data_str_m1_o1_o17_pcu_sym.117
_audit_creation_date              2020-01-03
_audit_creation_method            'Materials Studio'
_symmetry_space_group_name_H-M    'P1'
_symmetry_Int_Tables_number       1
_symmetry_cell_setting            triclinic
loop_
_symmetry_equiv_pos_as_xyz
  x,y,z
_cell_length_a                    36.6385
_cell_length_b                    36.5637
_cell_length_c                    34.4531
_cell_angle_alpha                 90.2158
_cell_angle_beta                  89.8830
_cell_angle_gamma                 89.9094
loop_
_atom_site_label
_atom_site_type_symbol
_atom_site_fract_x
_atom_site_fract_y
_atom_site_fract_z
_atom_site_U_iso_or_equiv
_atom_site_adp_type
_atom_site_occupancy
C1     C     0.48090   0.27760   0.41828   0.00000  Uiso   1.00
C2     C     0.27222   0.47500   0.08168   0.00000  Uiso   1.00
C3     C     0.22051   0.01524   0.54135   0.00000  Uiso   1.00
C4     C     0.48196   0.27841   0.45917   0.00000  Uiso   1.00
C5     C     0.01839   0.22188   0.54088   0.00000  Uiso   1.00
C6     C     0.22049   0.01532   0.45937   0.00000  Uiso   1.00
C7     C     0.27952   0.48316   0.54105   0.00000  Uiso   1.00
C8     C     0.27258   0.47556   0.95890   0.00000  Uiso   1.00
C9     C     0.22878   0.02634   0.04123   0.00000  Uiso   1.00
C10    C     0.02930   0.23423   0.95866   0.00000  Uiso   1.00
C11    C     0.47080   0.26702   0.04104   0.00000  Uiso   1.00
C12    C     0.22845   0.02619   0.95922   0.00000  Uiso   1.00
C13    C     0.47101   0.26736   0.91802   0.00000  Uiso   1.00
C14    C     0.27180   0.47467   0.04082   0.00000  Uiso   1.00
C15    C     0.47057   0.26682   0.95894   0.00000  Uiso   1.00
C16    C     0.02938   0.23425   0.04064   0.00000  Uiso   1.00
C17    C     0.09780   0.34837   0.25011   0.00000  Uiso   1.00
C18    C     0.40259   0.15120   0.74981   0.00000  Uiso   1.00
C19    C     0.15162   0.09797   0.25246   0.00000  Uiso   1.00
C20    C     0.34759   0.40144   0.74992   0.00000  Uiso   1.00
C21    C     0.40227   0.15151   0.24991   0.00000  Uiso   1.00
C22    C     0.09734   0.34885   0.74963   0.00000  Uiso   1.00
C23    C     0.34827   0.40213   0.24998   0.00000  Uiso   1.00
C24    C     0.02862   0.23290   0.08151   0.00000  Uiso   1.00
C25    C     0.15219   0.09825   0.75032   0.00000  Uiso   1.00
C26    C     0.09813   0.15202   0.75007   0.00000  Uiso   1.00
C27    C     0.40242   0.34848   0.25055   0.00000  Uiso   1.00
C28    C     0.15246   0.40129   0.75000   0.00000  Uiso   1.00
C29    C     0.34805   0.09820   0.25038   0.00000  Uiso   1.00
C30    C     0.40221   0.34828   0.74987   0.00000  Uiso   1.00
C31    C     0.09847   0.15202   0.24793   0.00000  Uiso   1.00
C32    C     0.34740   0.09882   0.75016   0.00000  Uiso   1.00
C33    C     0.15233   0.40151   0.24985   0.00000  Uiso   1.00
C34    C     0.00026   0.25021   0.47947   0.00000  Uiso   1.00
C35    C     0.27336   0.47635   0.91810   0.00000  Uiso   1.00
C36    C     0.00030   0.25023   0.52058   0.00000  Uiso   1.00
C37    C     0.24991   0.49910   0.47962   0.00000  Uiso   1.00
C38    C     0.24997   0.49913   0.52073   0.00000  Uiso   1.00
C39    C     0.25044   0.00078   0.97951   0.00000  Uiso   1.00
C40    C     0.25037   0.00062   0.02059   0.00000  Uiso   1.00
C41    C    -0.00000   0.25062   0.97927   0.00000  Uiso   1.00
C42    C     0.00006   0.25064   0.02037   0.00000  Uiso   1.00
C43    C     0.17865   0.39424   0.16569   0.00000  Uiso   1.00
C44    C     0.18467   0.40823   0.12463   0.00000  Uiso   1.00
C45    C     0.32241   0.10488   0.83445   0.00000  Uiso   1.00
C46    C     0.22796   0.02545   0.08208   0.00000  Uiso   1.00
C47    C     0.31528   0.08893   0.87448   0.00000  Uiso   1.00
C48    C     0.05000   0.11007   0.18647   0.00000  Uiso   1.00
C49    C     0.01087   0.10103   0.17576   0.00000  Uiso   1.00
C50    C     0.46229   0.39139   0.70675   0.00000  Uiso   1.00
C51    C     0.48463   0.40512   0.67255   0.00000  Uiso   1.00
C52    C     0.31582   0.12221   0.17093   0.00000  Uiso   1.00
C53    C     0.29622   0.10625   0.13587   0.00000  Uiso   1.00
C54    C     0.17596   0.39564   0.83501   0.00000  Uiso   1.00
C55    C     0.18034   0.40905   0.87662   0.00000  Uiso   1.00
C56    C     0.46084   0.37913   0.30283   0.00000  Uiso   1.00
C57    C     0.02855   0.23307   0.91782   0.00000  Uiso   1.00
C58    C     0.47962   0.39935   0.33591   0.00000  Uiso   1.00
C59    C     0.04113   0.11155   0.70083   0.00000  Uiso   1.00
C60    C     0.02036   0.09938   0.66489   0.00000  Uiso   1.00
C61    C     0.10935   0.04125   0.70221   0.00000  Uiso   1.00
C62    C     0.13003   0.00799   0.68735   0.00000  Uiso   1.00
C63    C     0.39842   0.45457   0.30654   0.00000  Uiso   1.00
C64    C     0.38499   0.48686   0.28265   0.00000  Uiso   1.00
C65    C     0.10634   0.33581   0.84296   0.00000  Uiso   1.00
C66    C     0.07972   0.31005   0.86276   0.00000  Uiso   1.00
C67    C     0.41455   0.13001   0.15348   0.00000  Uiso   1.00
C68    C     0.47145   0.26773   0.08197   0.00000  Uiso   1.00
C69    C     0.44003   0.15038   0.12621   0.00000  Uiso   1.00
C70    C     0.39340   0.46196   0.70921   0.00000  Uiso   1.00
C71    C     0.37398   0.49566   0.69388   0.00000  Uiso   1.00
C72    C     0.09398   0.03707   0.20869   0.00000  Uiso   1.00
C73    C     0.10148   0.49622   0.20626   0.00000  Uiso   1.00
C74    C     0.39441   0.16041   0.84583   0.00000  Uiso   1.00
C75    C     0.42039   0.18642   0.86637   0.00000  Uiso   1.00
C76    C     0.11125   0.32977   0.15931   0.00000  Uiso   1.00
C77    C     0.08591   0.30131   0.14181   0.00000  Uiso   1.00
C78    C     0.42701   0.14577   0.66511   0.00000  Uiso   1.00
C79    C     0.00002   0.25007   0.39812   0.00000  Uiso   1.00
C80    C     0.43340   0.16180   0.62497   0.00000  Uiso   1.00
C81    C     0.07195   0.35525   0.33451   0.00000  Uiso   1.00
C82    C     0.06589   0.34077   0.37535   0.00000  Uiso   1.00
C83    C     0.28668   0.35460   0.78651   0.00000  Uiso   1.00
C84    C     0.26267   0.33801   0.81792   0.00000  Uiso   1.00
C85    C     0.20056   0.13920   0.31404   0.00000  Uiso   1.00
C86    C     0.24030   0.14612   0.32441   0.00000  Uiso   1.00
C87    C     0.07311   0.35379   0.66502   0.00000  Uiso   1.00
C88    C     0.06671   0.33748   0.62491   0.00000  Uiso   1.00
C89    C     0.43572   0.13758   0.32986   0.00000  Uiso   1.00
C90    C     0.00017   0.25012   0.60191   0.00000  Uiso   1.00
C91    C     0.44626   0.14939   0.37071   0.00000  Uiso   1.00
C92    C     0.20978   0.13182   0.80260   0.00000  Uiso   1.00
C93    C     0.22761   0.15056   0.83718   0.00000  Uiso   1.00
C94    C     0.29185   0.36206   0.19928   0.00000  Uiso   1.00
C95    C     0.27226   0.34953   0.16274   0.00000  Uiso   1.00
C96    C     0.36135   0.29087   0.20149   0.00000  Uiso   1.00
C97    C     0.38096   0.25861   0.18269   0.00000  Uiso   1.00
C98    C     0.14208   0.20741   0.80078   0.00000  Uiso   1.00
C99    C     0.14352   0.23291   0.83562   0.00000  Uiso   1.00
C100   C     0.36507   0.07734   0.34108   0.00000  Uiso   1.00
C101   C     0.25005   0.49987   0.39822   0.00000  Uiso   1.00
C102   C     0.33992   0.05037   0.36127   0.00000  Uiso   1.00
C103   C     0.14504   0.40938   0.65384   0.00000  Uiso   1.00
C104   C     0.17119   0.43500   0.63311   0.00000  Uiso   1.00
C105   C     0.15534   0.21233   0.29343   0.00000  Uiso   1.00
C106   C     0.14680   0.25292   0.29690   0.00000  Uiso   1.00
C107   C     0.35710   0.28697   0.78935   0.00000  Uiso   1.00
C108   C     0.37702   0.25368   0.80495   0.00000  Uiso   1.00
C109   C     0.13915   0.41972   0.34089   0.00000  Uiso   1.00
C110   C     0.16448   0.44825   0.35826   0.00000  Uiso   1.00
C111   C     0.35554   0.08950   0.65423   0.00000  Uiso   1.00
C112   C     0.01907   0.22243   0.58177   0.00000  Uiso   1.00
C113   C     0.25023   0.49971   0.60201   0.00000  Uiso   1.00
C114   C     0.32959   0.06330   0.63394   0.00000  Uiso   1.00
C115   C     0.42334   0.29978   0.39287   0.00000  Uiso   1.00
C116   C     0.07617   0.19953   0.60773   0.00000  Uiso   1.00
C117   C     0.19512   0.07342   0.39559   0.00000  Uiso   1.00
C118   C     0.30622   0.42774   0.60871   0.00000  Uiso   1.00
C119   C     0.07727   0.20125   0.39202   0.00000  Uiso   1.00
C120   C     0.42461   0.30145   0.60861   0.00000  Uiso   1.00
C121   C     0.30279   0.42532   0.39211   0.00000  Uiso   1.00
C122   C     0.19506   0.07236   0.60801   0.00000  Uiso   1.00
C123   C     0.16715   0.03987   0.89334   0.00000  Uiso   1.00
C124   C     0.24989   0.00029   0.89817   0.00000  Uiso   1.00
C125   C     0.33145   0.45807   0.10771   0.00000  Uiso   1.00
C126   C     0.44418   0.32251   0.89135   0.00000  Uiso   1.00
C127   C     0.05458   0.17621   0.10463   0.00000  Uiso   1.00
C128   C     0.28357   0.41919   0.88404   0.00000  Uiso   1.00
C129   C     0.16823   0.04133   0.10786   0.00000  Uiso   1.00
C130   C     0.05377   0.17661   0.89221   0.00000  Uiso   1.00
C131   C     0.44649   0.32407   0.10815   0.00000  Uiso   1.00
C132   C     0.25006   0.00015   0.10188   0.00000  Uiso   1.00
C133   C     0.49980   0.25019   0.89800   0.00000  Uiso   1.00
C134   C     0.49994   0.25002   0.10178   0.00000  Uiso   1.00
C135   C     0.03574   0.19389   0.47957   0.00000  Uiso   1.00
C136   C     0.46521   0.30679   0.52046   0.00000  Uiso   1.00
C137   C     0.30839   0.46751   0.47969   0.00000  Uiso   1.00
C138   C     0.19110   0.03005   0.52064   0.00000  Uiso   1.00
C139   C     0.46496   0.30664   0.48025   0.00000  Uiso   1.00
C140   C     0.22128   0.01679   0.41851   0.00000  Uiso   1.00
C141   C     0.03558   0.19378   0.51979   0.00000  Uiso   1.00
C142   C     0.19106   0.03004   0.48047   0.00000  Uiso   1.00
C143   C     0.30859   0.46778   0.51995   0.00000  Uiso   1.00
C144   C     0.29303   0.44964   0.97955   0.00000  Uiso   1.00
C145   C     0.20832   0.05221   0.02050   0.00000  Uiso   1.00
C146   C     0.05858   0.21916   0.97938   0.00000  Uiso   1.00
C147   C     0.44171   0.28249   0.02026   0.00000  Uiso   1.00
C148   C     0.20803   0.05203   0.98029   0.00000  Uiso   1.00
C149   C     0.29246   0.44906   0.01971   0.00000  Uiso   1.00
C150   C     0.44156   0.28231   0.98002   0.00000  Uiso   1.00
C151   C     0.27914   0.48272   0.58197   0.00000  Uiso   1.00
C152   C     0.05866   0.21926   0.01955   0.00000  Uiso   1.00
C153   C     0.25000   0.00002   0.35585   0.00000  Uiso   1.00
C154   C     0.25018   0.49992   0.64423   0.00000  Uiso   1.00
C155   C     0.49998   0.25004   0.35579   0.00000  Uiso   1.00
C156   C     0.00004   0.25001   0.64422   0.00000  Uiso   1.00
C157   C     0.49984   0.25006   0.85577   0.00000  Uiso   1.00
C158   C     0.49997   0.24996   0.14415   0.00000  Uiso   1.00
C159   C     0.24996   0.00028   0.85581   0.00000  Uiso   1.00
C160   C     0.25002  -0.00000   0.14420   0.00000  Uiso   1.00
C161   C     0.17987   0.06996   0.25065   0.00000  Uiso   1.00
C162   C     0.01942   0.22272   0.41794   0.00000  Uiso   1.00
C163   C     0.31974   0.42973   0.75022   0.00000  Uiso   1.00
C164   C     0.42972   0.18021   0.24953   0.00000  Uiso   1.00
C165   C     0.07004   0.32003   0.75018   0.00000  Uiso   1.00
C166   C     0.32003   0.43003   0.24996   0.00000  Uiso   1.00
C167   C     0.18002   0.06999   0.75006   0.00000  Uiso   1.00
C168   C     0.07015   0.31987   0.24973   0.00000  Uiso   1.00
C169   C     0.42995   0.18002   0.75023   0.00000  Uiso   1.00
C170   C     0.17993   0.42998   0.74976   0.00000  Uiso   1.00
C171   C     0.32012   0.06995   0.25029   0.00000  Uiso   1.00
C172   C     0.43019   0.32018   0.74981   0.00000  Uiso   1.00
C173   C     0.48149   0.27798   0.58212   0.00000  Uiso   1.00
C174   C     0.07017   0.18005   0.24938   0.00000  Uiso   1.00
C175   C     0.32006   0.06997   0.74974   0.00000  Uiso   1.00
C176   C     0.17988   0.43011   0.25025   0.00000  Uiso   1.00
C177   C     0.07009   0.18010   0.75010   0.00000  Uiso   1.00
C178   C     0.43013   0.32010   0.25021   0.00000  Uiso   1.00
C179   C     0.13605   0.39091   0.21449   0.00000  Uiso   1.00
C180   C     0.36470   0.10828   0.78535   0.00000  Uiso   1.00
C181   C     0.08964   0.11550   0.23750   0.00000  Uiso   1.00
C182   C     0.40335   0.37651   0.72222   0.00000  Uiso   1.00
C183   C     0.36096   0.11168   0.21477   0.00000  Uiso   1.00
C184   C     0.27852   0.48207   0.41799   0.00000  Uiso   1.00
C185   C     0.13479   0.39223   0.78508   0.00000  Uiso   1.00
C186   C     0.40132   0.37476   0.28073   0.00000  Uiso   1.00
C187   C     0.09916   0.12587   0.72003   0.00000  Uiso   1.00
C188   C     0.12639   0.09902   0.72016   0.00000  Uiso   1.00
C189   C     0.37422   0.40201   0.27997   0.00000  Uiso   1.00
C190   C     0.10677   0.36639   0.78470   0.00000  Uiso   1.00
C191   C     0.38883   0.13805   0.21434   0.00000  Uiso   1.00
C192   C     0.37601   0.40328   0.72249   0.00000  Uiso   1.00
C193   C     0.11596   0.08797   0.24206   0.00000  Uiso   1.00
C194   C     0.39312   0.13381   0.78492   0.00000  Uiso   1.00
C195   C     0.22124   0.01640   0.58219   0.00000  Uiso   1.00
C196   C     0.10836   0.36465   0.21482   0.00000  Uiso   1.00
C197   C     0.38518   0.14182   0.71464   0.00000  Uiso   1.00
C198   C     0.11422   0.35884   0.28545   0.00000  Uiso   1.00
C199   C     0.34578   0.37249   0.77665   0.00000  Uiso   1.00
C200   C     0.16047   0.13446   0.26314   0.00000  Uiso   1.00
C201   C     0.11482   0.35804   0.71444   0.00000  Uiso   1.00
C202   C     0.38914   0.13811   0.28569   0.00000  Uiso   1.00
C203   C     0.15083   0.12405   0.78078   0.00000  Uiso   1.00
C204   C     0.34954   0.37597   0.21994   0.00000  Uiso   1.00
C205   C     0.37666   0.34904   0.22033   0.00000  Uiso   1.00
C206   C     0.22724   0.02503   0.91835   0.00000  Uiso   1.00
C207   C     0.12383   0.15118   0.78036   0.00000  Uiso   1.00
C208   C     0.36107   0.11218   0.28581   0.00000  Uiso   1.00
C209   C     0.14326   0.38357   0.71490   0.00000  Uiso   1.00
C210   C     0.13408   0.16196   0.25873   0.00000  Uiso   1.00
C211   C     0.37354   0.34617   0.77697   0.00000  Uiso   1.00
C212   C     0.14186   0.38515   0.28513   0.00000  Uiso   1.00
C213   C     0.35683   0.11622   0.71506   0.00000  Uiso   1.00
C214   C     0.01855   0.22201   0.45883   0.00000  Uiso   1.00
C215   C     0.48227   0.27860   0.54122   0.00000  Uiso   1.00
C216   C     0.27922   0.48284   0.45893   0.00000  Uiso   1.00
H217   H     0.04958   0.17154   0.46513   0.00000  Uiso   1.00
H218   H     0.19207   0.07286   0.03494   0.00000  Uiso   1.00
H219   H     0.45966   0.15163   0.61295   0.00000  Uiso   1.00
H220   H     0.41100   0.15368   0.60509   0.00000  Uiso   1.00
H221   H     0.04870   0.34599   0.31637   0.00000  Uiso   1.00
H222   H     0.07146   0.38565   0.33563   0.00000  Uiso   1.00
H223   H     0.03942   0.35091   0.38690   0.00000  Uiso   1.00
H224   H     0.06545   0.31040   0.37496   0.00000  Uiso   1.00
H225   H     0.08816   0.35019   0.39476   0.00000  Uiso   1.00
H226   H     0.29352   0.33256   0.76519   0.00000  Uiso   1.00
H227   H     0.27047   0.37596   0.77154   0.00000  Uiso   1.00
H228   H     0.25343   0.35951   0.83848   0.00000  Uiso   1.00
H229   H     0.08183   0.20692   0.96498   0.00000  Uiso   1.00
H230   H     0.23829   0.32517   0.80450   0.00000  Uiso   1.00
H231   H     0.27807   0.31687   0.83416   0.00000  Uiso   1.00
H232   H     0.19294   0.11149   0.32379   0.00000  Uiso   1.00
H233   H     0.18352   0.15800   0.33148   0.00000  Uiso   1.00
H234   H     0.24427   0.14301   0.35616   0.00000  Uiso   1.00
H235   H     0.25814   0.12628   0.30902   0.00000  Uiso   1.00
H236   H     0.24817   0.17430   0.31593   0.00000  Uiso   1.00
H237   H     0.07337   0.38410   0.66241   0.00000  Uiso   1.00
H238   H     0.04958   0.34610   0.68361   0.00000  Uiso   1.00
H239   H     0.06576   0.30718   0.62668   0.00000  Uiso   1.00
H240   H     0.41859   0.29496   0.03469   0.00000  Uiso   1.00
H241   H     0.04039   0.34752   0.61307   0.00000  Uiso   1.00
H242   H     0.08905   0.34552   0.60490   0.00000  Uiso   1.00
H243   H     0.45718   0.14757   0.30973   0.00000  Uiso   1.00
H244   H     0.43553   0.10714   0.32869   0.00000  Uiso   1.00
H245   H     0.42561   0.13968   0.39191   0.00000  Uiso   1.00
H246   H     0.47322   0.13758   0.37835   0.00000  Uiso   1.00
H247   H     0.44800   0.17969   0.37237   0.00000  Uiso   1.00
H248   H     0.21124   0.15082   0.77734   0.00000  Uiso   1.00
H249   H     0.22600   0.10694   0.79571   0.00000  Uiso   1.00
H250   H     0.21191   0.17538   0.84548   0.00000  Uiso   1.00
H251   H     0.19148   0.07248   0.96613   0.00000  Uiso   1.00
H252   H     0.22850   0.13162   0.86227   0.00000  Uiso   1.00
H253   H     0.25590   0.15871   0.82957   0.00000  Uiso   1.00
H254   H     0.27445   0.38289   0.21387   0.00000  Uiso   1.00
H255   H     0.29472   0.33800   0.21887   0.00000  Uiso   1.00
H256   H     0.28888   0.32862   0.14729   0.00000  Uiso   1.00
H257   H     0.24546   0.33743   0.17051   0.00000  Uiso   1.00
H258   H     0.26773   0.37316   0.14321   0.00000  Uiso   1.00
H259   H     0.33269   0.29110   0.19111   0.00000  Uiso   1.00
H260   H     0.36099   0.28618   0.23350   0.00000  Uiso   1.00
H261   H     0.41022   0.25856   0.19109   0.00000  Uiso   1.00
H262   H     0.30852   0.42818   0.03379   0.00000  Uiso   1.00
H263   H     0.36832   0.23259   0.19237   0.00000  Uiso   1.00
H264   H     0.37876   0.26037   0.15065   0.00000  Uiso   1.00
H265   H     0.12900   0.22231   0.77638   0.00000  Uiso   1.00
H266   H     0.17061   0.20039   0.79248   0.00000  Uiso   1.00
H267   H     0.15613   0.21876   0.86072   0.00000  Uiso   1.00
H268   H     0.15996   0.25748   0.82846   0.00000  Uiso   1.00
H269   H     0.11548   0.24155   0.84351   0.00000  Uiso   1.00
H270   H     0.38077   0.09205   0.36378   0.00000  Uiso   1.00
H271   H     0.38444   0.06141   0.32259   0.00000  Uiso   1.00
H272   H     0.32038   0.06513   0.38043   0.00000  Uiso   1.00
H273   H     0.41833   0.29461   0.96581   0.00000  Uiso   1.00
H274   H     0.32446   0.03439   0.33938   0.00000  Uiso   1.00
H275   H     0.35637   0.03126   0.37909   0.00000  Uiso   1.00
H276   H     0.12242   0.42623   0.66621   0.00000  Uiso   1.00
H277   H     0.13372   0.39030   0.63185   0.00000  Uiso   1.00
H278   H     0.15674   0.44941   0.60933   0.00000  Uiso   1.00
H279   H     0.18163   0.45562   0.65393   0.00000  Uiso   1.00
H280   H     0.19448   0.41939   0.62065   0.00000  Uiso   1.00
H281   H     0.18544   0.20967   0.29539   0.00000  Uiso   1.00
H282   H     0.14146   0.19856   0.31822   0.00000  Uiso   1.00
H283   H     0.11813   0.25645   0.30633   0.00000  Uiso   1.00
H284   H     0.08204   0.20718   0.03367   0.00000  Uiso   1.00
H285   H     0.16444   0.26558   0.31940   0.00000  Uiso   1.00
H286   H     0.15147   0.26707   0.26885   0.00000  Uiso   1.00
H287   H     0.35761   0.28528   0.75696   0.00000  Uiso   1.00
H288   H     0.32822   0.28555   0.79895   0.00000  Uiso   1.00
H289   H     0.36502   0.22853   0.79216   0.00000  Uiso   1.00
H290   H     0.40639   0.25490   0.79704   0.00000  Uiso   1.00
H291   H     0.37440   0.25264   0.83705   0.00000  Uiso   1.00
H292   H     0.12556   0.40530   0.36523   0.00000  Uiso   1.00
H293   H     0.11795   0.43447   0.32364   0.00000  Uiso   1.00
H294   H     0.18689   0.43482   0.37458   0.00000  Uiso   1.00
H295   H     0.17934   0.36383   0.16503   0.00000  Uiso   1.00
H296   H     0.17618   0.46544   0.33487   0.00000  Uiso   1.00
H297   H     0.14882   0.46606   0.37845   0.00000  Uiso   1.00
H298   H     0.37820   0.07301   0.66682   0.00000  Uiso   1.00
H299   H     0.36686   0.10816   0.63195   0.00000  Uiso   1.00
H300   H     0.34415   0.04861   0.61026   0.00000  Uiso   1.00
H301   H     0.31930   0.04294   0.65503   0.00000  Uiso   1.00
H302   H     0.30617   0.07851   0.62139   0.00000  Uiso   1.00
H303   H     0.46928   0.33155   0.40427   0.00000  Uiso   1.00
H304   H     0.40944   0.30327   0.42130   0.00000  Uiso   1.00
H305   H     0.41734   0.27200   0.38147   0.00000  Uiso   1.00
H306   H     0.20181   0.40387   0.18373   0.00000  Uiso   1.00
H307   H     0.41215   0.32016   0.37226   0.00000  Uiso   1.00
H308   H     0.03005   0.16825   0.59557   0.00000  Uiso   1.00
H309   H     0.09040   0.19589   0.57951   0.00000  Uiso   1.00
H310   H     0.08690   0.17904   0.62850   0.00000  Uiso   1.00
H311   H     0.08235   0.22726   0.61918   0.00000  Uiso   1.00
H312   H     0.16689   0.02481   0.40422   0.00000  Uiso   1.00
H313   H     0.19441   0.08567   0.42510   0.00000  Uiso   1.00
H314   H     0.17155   0.08427   0.37906   0.00000  Uiso   1.00
H315   H     0.22085   0.08169   0.38106   0.00000  Uiso   1.00
H316   H     0.33396   0.47598   0.59588   0.00000  Uiso   1.00
H317   H     0.18510   0.43861   0.12463   0.00000  Uiso   1.00
H318   H     0.31068   0.41335   0.58067   0.00000  Uiso   1.00
H319   H     0.27917   0.41974   0.62047   0.00000  Uiso   1.00
H320   H     0.32754   0.41884   0.62950   0.00000  Uiso   1.00
H321   H     0.03164   0.16885   0.40310   0.00000  Uiso   1.00
H322   H     0.09128   0.19764   0.42028   0.00000  Uiso   1.00
H323   H     0.08298   0.22920   0.38108   0.00000  Uiso   1.00
H324   H     0.08864   0.18118   0.37094   0.00000  Uiso   1.00
H325   H     0.47113   0.33229   0.59671   0.00000  Uiso   1.00
H326   H     0.41037   0.30554   0.58055   0.00000  Uiso   1.00
H327   H     0.41419   0.32187   0.62985   0.00000  Uiso   1.00
H328   H     0.45165   0.32932   0.53489   0.00000  Uiso   1.00
H329   H     0.21112   0.39799   0.11314   0.00000  Uiso   1.00
H330   H     0.41812   0.27369   0.61957   0.00000  Uiso   1.00
H331   H     0.33280   0.47253   0.40321   0.00000  Uiso   1.00
H332   H     0.30672   0.41165   0.42051   0.00000  Uiso   1.00
H333   H     0.32358   0.41478   0.37142   0.00000  Uiso   1.00
H334   H     0.27534   0.41823   0.38077   0.00000  Uiso   1.00
H335   H     0.16669   0.02405   0.59689   0.00000  Uiso   1.00
H336   H     0.19078   0.08591   0.57961   0.00000  Uiso   1.00
H337   H     0.22221   0.08036   0.61946   0.00000  Uiso   1.00
H338   H     0.17385   0.08219   0.62860   0.00000  Uiso   1.00
H339   H     0.20906   0.07715   0.90391   0.00000  Uiso   1.00
H340   H     0.16238   0.39859   0.10538   0.00000  Uiso   1.00
H341   H     0.15306   0.04199   0.92181   0.00000  Uiso   1.00
H342   H     0.16451   0.01141   0.88235   0.00000  Uiso   1.00
H343   H     0.15350   0.05849   0.87252   0.00000  Uiso   1.00
H344   H     0.28878   0.42217   0.09536   0.00000  Uiso   1.00
H345   H     0.34622   0.45551   0.07968   0.00000  Uiso   1.00
H346   H     0.34400   0.43906   0.12891   0.00000  Uiso   1.00
H347   H     0.33473   0.48645   0.11873   0.00000  Uiso   1.00
H348   H     0.41622   0.27435   0.90404   0.00000  Uiso   1.00
H349   H     0.43967   0.33688   0.91939   0.00000  Uiso   1.00
H350   H     0.42296   0.33151   0.87048   0.00000  Uiso   1.00
H351   H     0.29909   0.09719   0.81560   0.00000  Uiso   1.00
H352   H     0.47130   0.33042   0.87972   0.00000  Uiso   1.00
H353   H     0.08298   0.22468   0.09577   0.00000  Uiso   1.00
H354   H     0.05523   0.16384   0.07517   0.00000  Uiso   1.00
H355   H     0.02885   0.16805   0.11921   0.00000  Uiso   1.00
H356   H     0.07811   0.16533   0.12122   0.00000  Uiso   1.00
H357   H     0.32420   0.45225   0.90795   0.00000  Uiso   1.00
H358   H     0.27387   0.40302   0.90926   0.00000  Uiso   1.00
H359   H     0.30520   0.40341   0.86889   0.00000  Uiso   1.00
H360   H     0.26073   0.42365   0.86348   0.00000  Uiso   1.00
H361   H     0.21071   0.07790   0.09696   0.00000  Uiso   1.00
H362   H     0.32282   0.13520   0.83703   0.00000  Uiso   1.00
H363   H     0.15397   0.04352   0.07958   0.00000  Uiso   1.00
H364   H     0.15501   0.06030   0.12884   0.00000  Uiso   1.00
H365   H     0.16514   0.01298   0.11882   0.00000  Uiso   1.00
H366   H     0.08295   0.22442   0.90319   0.00000  Uiso   1.00
H367   H     0.05778   0.16310   0.92069   0.00000  Uiso   1.00
H368   H     0.07483   0.16633   0.87171   0.00000  Uiso   1.00
H369   H     0.02649   0.16902   0.88076   0.00000  Uiso   1.00
H370   H     0.41708   0.27660   0.09632   0.00000  Uiso   1.00
H371   H     0.44264   0.33792   0.07984   0.00000  Uiso   1.00
H372   H     0.47378   0.33136   0.11978   0.00000  Uiso   1.00
H373   H     0.33717   0.09731   0.89487   0.00000  Uiso   1.00
H374   H     0.42543   0.33424   0.12873   0.00000  Uiso   1.00
H375   H     0.28865   0.09891   0.88577   0.00000  Uiso   1.00
H376   H     0.31454   0.05862   0.87279   0.00000  Uiso   1.00
H377   H     0.06828   0.09207   0.16947   0.00000  Uiso   1.00
H378   H     0.05621   0.13806   0.17655   0.00000  Uiso   1.00
H379   H     0.49206   0.11979   0.19139   0.00000  Uiso   1.00
H380   H     0.33154   0.45513   0.46523   0.00000  Uiso   1.00
H381   H     0.00698   0.10416   0.14400   0.00000  Uiso   1.00
H382   H     0.00445   0.07241   0.18396   0.00000  Uiso   1.00
H383   H     0.47847   0.36988   0.72151   0.00000  Uiso   1.00
H384   H     0.45808   0.41468   0.72730   0.00000  Uiso   1.00
H385   H     0.46946   0.42695   0.65709   0.00000  Uiso   1.00
H386   H     0.01098   0.41638   0.68303   0.00000  Uiso   1.00
H387   H     0.49024   0.38227   0.65205   0.00000  Uiso   1.00
H388   H     0.32548   0.15018   0.16347   0.00000  Uiso   1.00
H389   H     0.29579   0.12407   0.19527   0.00000  Uiso   1.00
H390   H     0.31524   0.10443   0.11080   0.00000  Uiso   1.00
H391   H     0.16773   0.04204   0.53505   0.00000  Uiso   1.00
H392   H     0.28586   0.07848   0.14273   0.00000  Uiso   1.00
H393   H     0.27279   0.12399   0.12793   0.00000  Uiso   1.00
H394   H     0.20001   0.40511   0.81818   0.00000  Uiso   1.00
H395   H     0.17624   0.36519   0.83509   0.00000  Uiso   1.00
H396   H     0.20449   0.39588   0.89005   0.00000  Uiso   1.00
H397   H     0.18409   0.43919   0.87706   0.00000  Uiso   1.00
H398   H     0.15581   0.40203   0.89401   0.00000  Uiso   1.00
H399   H     0.46407   0.39569   0.27588   0.00000  Uiso   1.00
H400   H     0.47531   0.35268   0.29878   0.00000  Uiso   1.00
H401   H     0.46494   0.42507   0.34298   0.00000  Uiso   1.00
H402   H     0.45116   0.32904   0.46609   0.00000  Uiso   1.00
H403   H     0.48031   0.38195   0.36218   0.00000  Uiso   1.00
H404   H     0.00799   0.40624   0.32739   0.00000  Uiso   1.00
H405   H     0.02416   0.13221   0.71621   0.00000  Uiso   1.00
H406   H     0.04458   0.08730   0.72004   0.00000  Uiso   1.00
H407   H     0.49399   0.08686   0.67352   0.00000  Uiso   1.00
H408   H     0.01479   0.12327   0.64606   0.00000  Uiso   1.00
H409   H     0.03663   0.07894   0.64835   0.00000  Uiso   1.00
H410   H     0.08167   0.04103   0.68918   0.00000  Uiso   1.00
H411   H     0.10627   0.03826   0.73433   0.00000  Uiso   1.00
H412   H     0.12997   0.00761   0.65514   0.00000  Uiso   1.00
H413   H     0.04929   0.17132   0.53394   0.00000  Uiso   1.00
H414   H     0.15866   0.00852   0.69787   0.00000  Uiso   1.00
H415   H     0.11665   0.48282   0.69820   0.00000  Uiso   1.00
H416   H     0.42447   0.44463   0.29374   0.00000  Uiso   1.00
H417   H     0.40479   0.46467   0.33620   0.00000  Uiso   1.00
H418   H     0.40422   0.01007   0.28590   0.00000  Uiso   1.00
H419   H     0.38428   0.47930   0.25147   0.00000  Uiso   1.00
H420   H     0.35741   0.49551   0.29244   0.00000  Uiso   1.00
H421   H     0.11985   0.35213   0.86597   0.00000  Uiso   1.00
H422   H     0.12727   0.31878   0.82767   0.00000  Uiso   1.00
H423   H     0.05686   0.32568   0.87608   0.00000  Uiso   1.00
H424   H     0.16760   0.04198   0.46636   0.00000  Uiso   1.00
H425   H     0.06883   0.29045   0.84109   0.00000  Uiso   1.00
H426   H     0.09397   0.29449   0.88584   0.00000  Uiso   1.00
H427   H     0.39280   0.11758   0.13539   0.00000  Uiso   1.00
H428   H     0.43035   0.10789   0.16804   0.00000  Uiso   1.00
H429   H     0.45161   0.13115   0.10439   0.00000  Uiso   1.00
H430   H     0.42492   0.17237   0.11090   0.00000  Uiso   1.00
H431   H     0.46267   0.16276   0.14295   0.00000  Uiso   1.00
H432   H     0.42208   0.46253   0.69881   0.00000  Uiso   1.00
H433   H     0.39363   0.46390   0.74159   0.00000  Uiso   1.00
H434   H     0.34481   0.49529   0.70271   0.00000  Uiso   1.00
H435   H     0.33190   0.45563   0.53415   0.00000  Uiso   1.00
H436   H     0.38699   0.02057   0.70605   0.00000  Uiso   1.00
H437   H     0.37576   0.49637   0.66171   0.00000  Uiso   1.00
H438   H     0.10803   0.04987   0.18345   0.00000  Uiso   1.00
H439   H     0.06395   0.04041   0.20688   0.00000  Uiso   1.00
H440   H     0.09733   0.48295   0.23489   0.00000  Uiso   1.00
H441   H     0.08292   0.48335   0.18474   0.00000  Uiso   1.00
H442   H     0.12975   0.49179   0.19600   0.00000  Uiso   1.00
H443   H     0.38298   0.14165   0.86796   0.00000  Uiso   1.00
H444   H     0.37184   0.17703   0.83327   0.00000  Uiso   1.00
H445   H     0.44370   0.17106   0.87892   0.00000  Uiso   1.00
H446   H     0.30931   0.42902   0.96504   0.00000  Uiso   1.00
H447   H     0.43082   0.20683   0.84542   0.00000  Uiso   1.00
H448   H     0.40579   0.20106   0.89006   0.00000  Uiso   1.00
H449   H     0.13223   0.31498   0.17681   0.00000  Uiso   1.00
H450   H     0.12513   0.34404   0.13505   0.00000  Uiso   1.00
H451   H     0.10165   0.28331   0.12188   0.00000  Uiso   1.00
H452   H     0.07389   0.28430   0.16517   0.00000  Uiso   1.00
H453   H     0.06373   0.31480   0.12520   0.00000  Uiso   1.00
H454   H     0.42681   0.11544   0.66253   0.00000  Uiso   1.00
H455   H     0.45053   0.15363   0.68360   0.00000  Uiso   1.00
H456   H     0.43442   0.19210   0.62675   0.00000  Uiso   1.00
N457   N     0.46231   0.30518   0.39676   0.00000  Uiso   1.00
N458   N     0.29321   0.44907   0.10308   0.00000  Uiso   1.00
N459   N     0.44190   0.28328   0.89635   0.00000  Uiso   1.00
N460   N     0.05718   0.21565   0.10278   0.00000  Uiso   1.00
N461   N     0.29820   0.45389   0.89670   0.00000  Uiso   1.00
N462   N     0.20644   0.05084   0.10390   0.00000  Uiso   1.00
N463   N     0.05702   0.21592   0.89601   0.00000  Uiso   1.00
N464   N     0.44301   0.28482   0.10385   0.00000  Uiso   1.00
N465   N     0.03720   0.19453   0.60330   0.00000  Uiso   1.00
N466   N     0.19267   0.03397   0.39728   0.00000  Uiso   1.00
N467   N     0.30833   0.46697   0.60365   0.00000  Uiso   1.00
N468   N     0.03836   0.19538   0.39608   0.00000  Uiso   1.00
N469   N     0.46364   0.30603   0.60401   0.00000  Uiso   1.00
N470   N     0.30670   0.46456   0.39606   0.00000  Uiso   1.00
N471   N     0.19248   0.03300   0.60404   0.00000  Uiso   1.00
N472   N     0.20520   0.05001   0.89689   0.00000  Uiso   1.00
O473   O     0.25000  -0.00000   0.25000   0.00000  Uiso   1.00
O474   O     0.25000   0.46963   0.66245   0.00000  Uiso   1.00
O475   O     0.46964   0.25000   0.33755   0.00000  Uiso   1.00
O476   O     0.03037   0.25000   0.66245   0.00000  Uiso   1.00
O477   O     0.00000   0.21963   0.83755   0.00000  Uiso   1.00
O478   O     0.00000   0.28036   0.16245   0.00000  Uiso   1.00
O479   O     0.28037  -0.00000   0.83755   0.00000  Uiso   1.00
O480   O     0.21964  -0.00000   0.16245   0.00000  Uiso   1.00
O481   O     0.00000   0.28036   0.83755   0.00000  Uiso   1.00
O482   O     0.00000   0.21963   0.16245   0.00000  Uiso   1.00
O483   O     0.21964  -0.00000   0.83755   0.00000  Uiso   1.00
O484   O     0.25000  -0.00000   0.75000   0.00000  Uiso   1.00
O485   O     0.28037  -0.00000   0.16245   0.00000  Uiso   1.00
O486   O     0.20725   0.07307   0.27302   0.00000  Uiso   1.00
O487   O     0.29276   0.42692   0.72698   0.00000  Uiso   1.00
O488   O     0.42693   0.20724   0.27302   0.00000  Uiso   1.00
O489   O     0.07308   0.29275   0.72698   0.00000  Uiso   1.00
O490   O     0.29276   0.42692   0.27302   0.00000  Uiso   1.00
O491   O     0.20725   0.07307   0.72698   0.00000  Uiso   1.00
O492   O     0.07308   0.29275   0.27302   0.00000  Uiso   1.00
O493   O     0.42693   0.20724   0.72698   0.00000  Uiso   1.00
O494   O     0.20725   0.42692   0.72698   0.00000  Uiso   1.00
O495   O     0.00000   0.25000   0.25000   0.00000  Uiso   1.00
O496   O     0.29276   0.07307   0.27302   0.00000  Uiso   1.00
O497   O     0.42693   0.29275   0.72698   0.00000  Uiso   1.00
O498   O     0.07308   0.20724   0.27302   0.00000  Uiso   1.00
O499   O     0.29276   0.07307   0.72698   0.00000  Uiso   1.00
O500   O     0.20725   0.42692   0.27302   0.00000  Uiso   1.00
O501   O     0.07308   0.20724   0.72698   0.00000  Uiso   1.00
O502   O     0.42693   0.29275   0.27302   0.00000  Uiso   1.00
O503   O     0.45725   0.32307   0.77302   0.00000  Uiso   1.00
O504   O     0.04276   0.17692   0.22698   0.00000  Uiso   1.00
O505   O     0.17693   0.45724   0.77302   0.00000  Uiso   1.00
O506   O     0.00000   0.25000   0.75000   0.00000  Uiso   1.00
O507   O     0.32308   0.04275   0.22698   0.00000  Uiso   1.00
O508   O     0.04276   0.17692   0.77302   0.00000  Uiso   1.00
O509   O     0.45725   0.32307   0.22698   0.00000  Uiso   1.00
O510   O     0.32308   0.04275   0.77302   0.00000  Uiso   1.00
O511   O     0.17693   0.45724   0.22698   0.00000  Uiso   1.00
O512   O     0.45725   0.17692   0.22698   0.00000  Uiso   1.00
O513   O     0.04276   0.32307   0.77302   0.00000  Uiso   1.00
O514   O     0.17693   0.04275   0.22698   0.00000  Uiso   1.00
O515   O     0.32308   0.45724   0.77302   0.00000  Uiso   1.00
O516   O     0.04276   0.32307   0.22698   0.00000  Uiso   1.00
O517   O     0.25000   0.46963   0.33755   0.00000  Uiso   1.00
O518   O     0.45725   0.17692   0.77302   0.00000  Uiso   1.00
O519   O     0.32308   0.45724   0.22698   0.00000  Uiso   1.00
O520   O     0.17693   0.04275   0.77302   0.00000  Uiso   1.00
O521   O     0.14486   0.40779   0.17973   0.00000  Uiso   1.00
O522   O     0.35594   0.09100   0.81994   0.00000  Uiso   1.00
O523   O     0.05438   0.10600   0.22720   0.00000  Uiso   1.00
O524   O     0.42915   0.37663   0.69278   0.00000  Uiso   1.00
O525   O     0.34564   0.09943   0.18043   0.00000  Uiso   1.00
O526   O     0.14306   0.40990   0.81965   0.00000  Uiso   1.00
O527   O     0.42393   0.37254   0.31300   0.00000  Uiso   1.00
O528   O     0.25000   0.03036   0.66245   0.00000  Uiso   1.00
O529   O     0.07479   0.12712   0.68936   0.00000  Uiso   1.00
O530   O     0.12781   0.07340   0.69052   0.00000  Uiso   1.00
O531   O     0.37123   0.42723   0.30999   0.00000  Uiso   1.00
O532   O     0.08690   0.35969   0.81824   0.00000  Uiso   1.00
O533   O     0.39923   0.15524   0.18014   0.00000  Uiso   1.00
O534   O     0.37602   0.43029   0.69448   0.00000  Uiso   1.00
O535   O     0.10626   0.05116   0.24459   0.00000  Uiso   1.00
O536   O     0.41399   0.13971   0.81796   0.00000  Uiso   1.00
O537   O     0.09051   0.35563   0.18068   0.00000  Uiso   1.00
O538   O     0.39359   0.15942   0.68014   0.00000  Uiso   1.00
O539   O     0.03037   0.25000   0.33755   0.00000  Uiso   1.00
O540   O     0.10563   0.34175   0.32017   0.00000  Uiso   1.00
O541   O     0.31796   0.37039   0.80382   0.00000  Uiso   1.00
O542   O     0.19578   0.14401   0.27343   0.00000  Uiso   1.00
O543   O     0.10649   0.34022   0.67994   0.00000  Uiso   1.00
O544   O     0.40111   0.15248   0.32071   0.00000  Uiso   1.00
O545   O     0.17371   0.12170   0.81273   0.00000  Uiso   1.00
O546   O     0.32579   0.37759   0.18877   0.00000  Uiso   1.00
O547   O     0.37867   0.32382   0.19028   0.00000  Uiso   1.00
O548   O     0.12177   0.17597   0.81070   0.00000  Uiso   1.00
O549   O     0.34381   0.10283   0.32021   0.00000  Uiso   1.00
O550   O     0.46964   0.25000   0.66245   0.00000  Uiso   1.00
O551   O     0.16442   0.38910   0.68196   0.00000  Uiso   1.00
O552   O     0.14373   0.19882   0.25701   0.00000  Uiso   1.00
O553   O     0.37327   0.31899   0.80481   0.00000  Uiso   1.00
O554   O     0.15984   0.39404   0.31923   0.00000  Uiso   1.00
O555   O     0.33598   0.11031   0.68203   0.00000  Uiso   1.00
O556   O     0.25000   0.03036   0.33755   0.00000  Uiso   1.00
Zn557  Zn    0.20660  -0.00000   0.21735   0.00000  Uiso   1.00
Zn558  Zn    0.04341   0.25000   0.28265   0.00000  Uiso   1.00
Zn559  Zn    0.25000   0.45659   0.71735   0.00000  Uiso   1.00
Zn560  Zn    0.25000   0.04340   0.28265   0.00000  Uiso   1.00
Zn561  Zn    0.04341   0.25000   0.71735   0.00000  Uiso   1.00
Zn562  Zn    0.45660   0.25000   0.28265   0.00000  Uiso   1.00
Zn563  Zn    0.25000   0.04340   0.71735   0.00000  Uiso   1.00
Zn564  Zn    0.25000   0.45659   0.28265   0.00000  Uiso   1.00
Zn565  Zn    0.29341  -0.00000   0.78265   0.00000  Uiso   1.00
Zn566  Zn    0.00000   0.20659   0.21735   0.00000  Uiso   1.00
Zn567  Zn    0.00000   0.29340   0.78265   0.00000  Uiso   1.00
Zn568  Zn    0.29341  -0.00000   0.21735   0.00000  Uiso   1.00
Zn569  Zn    0.20660  -0.00000   0.78265   0.00000  Uiso   1.00
Zn570  Zn    0.00000   0.29340   0.21735   0.00000  Uiso   1.00
Zn571  Zn    0.00000   0.20659   0.78265   0.00000  Uiso   1.00
Zn572  Zn    0.45660   0.25000   0.71735   0.00000  Uiso   1.00
C573   C     0.98090   0.27760   0.41828   0.00000  Uiso   1.00
C574   C     0.77222   0.47500   0.08168   0.00000  Uiso   1.00
C575   C     0.72051   0.01524   0.54135   0.00000  Uiso   1.00
C576   C     0.98196   0.27841   0.45917   0.00000  Uiso   1.00
C577   C     0.51839   0.22188   0.54088   0.00000  Uiso   1.00
C578   C     0.72049   0.01532   0.45937   0.00000  Uiso   1.00
C579   C     0.77952   0.48316   0.54105   0.00000  Uiso   1.00
C580   C     0.77258   0.47556   0.95890   0.00000  Uiso   1.00
C581   C     0.72878   0.02634   0.04123   0.00000  Uiso   1.00
C582   C     0.52930   0.23423   0.95866   0.00000  Uiso   1.00
C583   C     0.97080   0.26702   0.04104   0.00000  Uiso   1.00
C584   C     0.72845   0.02619   0.95922   0.00000  Uiso   1.00
C585   C     0.97101   0.26736   0.91802   0.00000  Uiso   1.00
C586   C     0.77180   0.47467   0.04082   0.00000  Uiso   1.00
C587   C     0.97057   0.26682   0.95894   0.00000  Uiso   1.00
C588   C     0.52938   0.23425   0.04064   0.00000  Uiso   1.00
C589   C     0.59780   0.34837   0.25011   0.00000  Uiso   1.00
C590   C     0.90259   0.15120   0.74981   0.00000  Uiso   1.00
C591   C     0.65162   0.09797   0.25246   0.00000  Uiso   1.00
C592   C     0.84759   0.40144   0.74992   0.00000  Uiso   1.00
C593   C     0.90227   0.15151   0.24991   0.00000  Uiso   1.00
C594   C     0.59734   0.34885   0.74963   0.00000  Uiso   1.00
C595   C     0.84827   0.40213   0.24998   0.00000  Uiso   1.00
C596   C     0.52862   0.23290   0.08151   0.00000  Uiso   1.00
C597   C     0.65219   0.09825   0.75032   0.00000  Uiso   1.00
C598   C     0.59813   0.15202   0.75007   0.00000  Uiso   1.00
C599   C     0.90242   0.34848   0.25055   0.00000  Uiso   1.00
C600   C     0.65246   0.40129   0.75000   0.00000  Uiso   1.00
C601   C     0.84805   0.09820   0.25038   0.00000  Uiso   1.00
C602   C     0.90221   0.34828   0.74987   0.00000  Uiso   1.00
C603   C     0.59847   0.15202   0.24793   0.00000  Uiso   1.00
C604   C     0.84740   0.09882   0.75016   0.00000  Uiso   1.00
C605   C     0.65233   0.40151   0.24985   0.00000  Uiso   1.00
C606   C     0.50026   0.25021   0.47947   0.00000  Uiso   1.00
C607   C     0.77336   0.47635   0.91810   0.00000  Uiso   1.00
C608   C     0.50030   0.25023   0.52058   0.00000  Uiso   1.00
C609   C     0.74991   0.49910   0.47962   0.00000  Uiso   1.00
C610   C     0.74997   0.49913   0.52073   0.00000  Uiso   1.00
C611   C     0.75044   0.00078   0.97951   0.00000  Uiso   1.00
C612   C     0.75037   0.00062   0.02059   0.00000  Uiso   1.00
C613   C     0.50000   0.25062   0.97927   0.00000  Uiso   1.00
C614   C     0.50006   0.25064   0.02037   0.00000  Uiso   1.00
C615   C     0.67865   0.39424   0.16569   0.00000  Uiso   1.00
C616   C     0.68467   0.40823   0.12463   0.00000  Uiso   1.00
C617   C     0.82241   0.10488   0.83445   0.00000  Uiso   1.00
C618   C     0.72796   0.02545   0.08208   0.00000  Uiso   1.00
C619   C     0.81528   0.08893   0.87448   0.00000  Uiso   1.00
C620   C     0.55000   0.11007   0.18647   0.00000  Uiso   1.00
C621   C     0.51087   0.10103   0.17576   0.00000  Uiso   1.00
C622   C     0.96229   0.39139   0.70675   0.00000  Uiso   1.00
C623   C     0.98463   0.40512   0.67255   0.00000  Uiso   1.00
C624   C     0.81582   0.12221   0.17093   0.00000  Uiso   1.00
C625   C     0.79622   0.10625   0.13587   0.00000  Uiso   1.00
C626   C     0.67596   0.39564   0.83501   0.00000  Uiso   1.00
C627   C     0.68034   0.40905   0.87662   0.00000  Uiso   1.00
C628   C     0.96084   0.37913   0.30283   0.00000  Uiso   1.00
C629   C     0.52855   0.23307   0.91782   0.00000  Uiso   1.00
C630   C     0.97962   0.39935   0.33591   0.00000  Uiso   1.00
C631   C     0.54113   0.11155   0.70083   0.00000  Uiso   1.00
C632   C     0.52036   0.09938   0.66489   0.00000  Uiso   1.00
C633   C     0.60935   0.04125   0.70221   0.00000  Uiso   1.00
C634   C     0.63003   0.00799   0.68735   0.00000  Uiso   1.00
C635   C     0.89842   0.45457   0.30654   0.00000  Uiso   1.00
C636   C     0.88499   0.48686   0.28265   0.00000  Uiso   1.00
C637   C     0.60634   0.33581   0.84296   0.00000  Uiso   1.00
C638   C     0.57972   0.31005   0.86276   0.00000  Uiso   1.00
C639   C     0.91455   0.13001   0.15348   0.00000  Uiso   1.00
C640   C     0.97145   0.26773   0.08197   0.00000  Uiso   1.00
C641   C     0.94003   0.15038   0.12621   0.00000  Uiso   1.00
C642   C     0.89340   0.46196   0.70921   0.00000  Uiso   1.00
C643   C     0.87398   0.49566   0.69388   0.00000  Uiso   1.00
C644   C     0.59398   0.03707   0.20869   0.00000  Uiso   1.00
C645   C     0.60148   0.49622   0.20626   0.00000  Uiso   1.00
C646   C     0.89441   0.16041   0.84583   0.00000  Uiso   1.00
C647   C     0.92039   0.18642   0.86637   0.00000  Uiso   1.00
C648   C     0.61125   0.32977   0.15931   0.00000  Uiso   1.00
C649   C     0.58591   0.30131   0.14181   0.00000  Uiso   1.00
C650   C     0.92701   0.14577   0.66511   0.00000  Uiso   1.00
C651   C     0.50002   0.25007   0.39812   0.00000  Uiso   1.00
C652   C     0.93340   0.16180   0.62497   0.00000  Uiso   1.00
C653   C     0.57195   0.35525   0.33451   0.00000  Uiso   1.00
C654   C     0.56589   0.34077   0.37535   0.00000  Uiso   1.00
C655   C     0.78668   0.35460   0.78651   0.00000  Uiso   1.00
C656   C     0.76267   0.33801   0.81792   0.00000  Uiso   1.00
C657   C     0.70056   0.13920   0.31404   0.00000  Uiso   1.00
C658   C     0.74030   0.14612   0.32441   0.00000  Uiso   1.00
C659   C     0.57311   0.35379   0.66502   0.00000  Uiso   1.00
C660   C     0.56671   0.33748   0.62491   0.00000  Uiso   1.00
C661   C     0.93572   0.13758   0.32986   0.00000  Uiso   1.00
C662   C     0.50017   0.25012   0.60191   0.00000  Uiso   1.00
C663   C     0.94626   0.14939   0.37071   0.00000  Uiso   1.00
C664   C     0.70978   0.13182   0.80260   0.00000  Uiso   1.00
C665   C     0.72761   0.15056   0.83718   0.00000  Uiso   1.00
C666   C     0.79185   0.36206   0.19928   0.00000  Uiso   1.00
C667   C     0.77226   0.34953   0.16274   0.00000  Uiso   1.00
C668   C     0.86135   0.29087   0.20149   0.00000  Uiso   1.00
C669   C     0.88096   0.25861   0.18269   0.00000  Uiso   1.00
C670   C     0.64208   0.20741   0.80078   0.00000  Uiso   1.00
C671   C     0.64352   0.23291   0.83562   0.00000  Uiso   1.00
C672   C     0.86507   0.07734   0.34108   0.00000  Uiso   1.00
C673   C     0.75005   0.49987   0.39822   0.00000  Uiso   1.00
C674   C     0.83992   0.05037   0.36127   0.00000  Uiso   1.00
C675   C     0.64504   0.40938   0.65384   0.00000  Uiso   1.00
C676   C     0.67119   0.43500   0.63311   0.00000  Uiso   1.00
C677   C     0.65534   0.21233   0.29343   0.00000  Uiso   1.00
C678   C     0.64680   0.25292   0.29690   0.00000  Uiso   1.00
C679   C     0.85710   0.28697   0.78935   0.00000  Uiso   1.00
C680   C     0.87702   0.25368   0.80495   0.00000  Uiso   1.00
C681   C     0.63915   0.41972   0.34089   0.00000  Uiso   1.00
C682   C     0.66448   0.44825   0.35826   0.00000  Uiso   1.00
C683   C     0.85554   0.08950   0.65423   0.00000  Uiso   1.00
C684   C     0.51907   0.22243   0.58177   0.00000  Uiso   1.00
C685   C     0.75023   0.49971   0.60201   0.00000  Uiso   1.00
C686   C     0.82959   0.06330   0.63394   0.00000  Uiso   1.00
C687   C     0.92334   0.29978   0.39287   0.00000  Uiso   1.00
C688   C     0.57617   0.19953   0.60773   0.00000  Uiso   1.00
C689   C     0.69512   0.07342   0.39559   0.00000  Uiso   1.00
C690   C     0.80622   0.42774   0.60871   0.00000  Uiso   1.00
C691   C     0.57727   0.20125   0.39202   0.00000  Uiso   1.00
C692   C     0.92461   0.30145   0.60861   0.00000  Uiso   1.00
C693   C     0.80279   0.42532   0.39211   0.00000  Uiso   1.00
C694   C     0.69506   0.07236   0.60801   0.00000  Uiso   1.00
C695   C     0.66715   0.03987   0.89334   0.00000  Uiso   1.00
C696   C     0.74989   0.00029   0.89817   0.00000  Uiso   1.00
C697   C     0.83145   0.45807   0.10771   0.00000  Uiso   1.00
C698   C     0.94418   0.32251   0.89135   0.00000  Uiso   1.00
C699   C     0.55458   0.17621   0.10463   0.00000  Uiso   1.00
C700   C     0.78357   0.41919   0.88404   0.00000  Uiso   1.00
C701   C     0.66823   0.04133   0.10786   0.00000  Uiso   1.00
C702   C     0.55377   0.17661   0.89221   0.00000  Uiso   1.00
C703   C     0.94649   0.32407   0.10815   0.00000  Uiso   1.00
C704   C     0.75006   0.00015   0.10188   0.00000  Uiso   1.00
C705   C     0.99980   0.25019   0.89800   0.00000  Uiso   1.00
C706   C     0.99994   0.25002   0.10178   0.00000  Uiso   1.00
C707   C     0.53574   0.19389   0.47957   0.00000  Uiso   1.00
C708   C     0.96521   0.30679   0.52046   0.00000  Uiso   1.00
C709   C     0.80839   0.46751   0.47969   0.00000  Uiso   1.00
C710   C     0.69110   0.03005   0.52064   0.00000  Uiso   1.00
C711   C     0.96496   0.30664   0.48025   0.00000  Uiso   1.00
C712   C     0.72128   0.01679   0.41851   0.00000  Uiso   1.00
C713   C     0.53558   0.19378   0.51979   0.00000  Uiso   1.00
C714   C     0.69106   0.03004   0.48047   0.00000  Uiso   1.00
C715   C     0.80859   0.46778   0.51995   0.00000  Uiso   1.00
C716   C     0.79303   0.44964   0.97955   0.00000  Uiso   1.00
C717   C     0.70832   0.05221   0.02050   0.00000  Uiso   1.00
C718   C     0.55858   0.21916   0.97938   0.00000  Uiso   1.00
C719   C     0.94171   0.28249   0.02026   0.00000  Uiso   1.00
C720   C     0.70803   0.05203   0.98029   0.00000  Uiso   1.00
C721   C     0.79246   0.44906   0.01971   0.00000  Uiso   1.00
C722   C     0.94156   0.28231   0.98002   0.00000  Uiso   1.00
C723   C     0.77914   0.48272   0.58197   0.00000  Uiso   1.00
C724   C     0.55866   0.21926   0.01955   0.00000  Uiso   1.00
C725   C     0.75000   0.00002   0.35585   0.00000  Uiso   1.00
C726   C     0.75018   0.49992   0.64423   0.00000  Uiso   1.00
C727   C     0.99998   0.25004   0.35579   0.00000  Uiso   1.00
C728   C     0.50004   0.25001   0.64422   0.00000  Uiso   1.00
C729   C     0.99984   0.25006   0.85577   0.00000  Uiso   1.00
C730   C     0.99997   0.24996   0.14415   0.00000  Uiso   1.00
C731   C     0.74996   0.00028   0.85581   0.00000  Uiso   1.00
C732   C     0.75002  -0.00000   0.14420   0.00000  Uiso   1.00
C733   C     0.67987   0.06996   0.25065   0.00000  Uiso   1.00
C734   C     0.51942   0.22272   0.41794   0.00000  Uiso   1.00
C735   C     0.81974   0.42973   0.75022   0.00000  Uiso   1.00
C736   C     0.92972   0.18021   0.24953   0.00000  Uiso   1.00
C737   C     0.57004   0.32003   0.75018   0.00000  Uiso   1.00
C738   C     0.82003   0.43003   0.24996   0.00000  Uiso   1.00
C739   C     0.68002   0.06999   0.75006   0.00000  Uiso   1.00
C740   C     0.57015   0.31987   0.24973   0.00000  Uiso   1.00
C741   C     0.92995   0.18002   0.75023   0.00000  Uiso   1.00
C742   C     0.67993   0.42998   0.74976   0.00000  Uiso   1.00
C743   C     0.82012   0.06995   0.25029   0.00000  Uiso   1.00
C744   C     0.93019   0.32018   0.74981   0.00000  Uiso   1.00
C745   C     0.98149   0.27798   0.58212   0.00000  Uiso   1.00
C746   C     0.57017   0.18005   0.24938   0.00000  Uiso   1.00
C747   C     0.82006   0.06997   0.74974   0.00000  Uiso   1.00
C748   C     0.67988   0.43011   0.25025   0.00000  Uiso   1.00
C749   C     0.57009   0.18010   0.75010   0.00000  Uiso   1.00
C750   C     0.93013   0.32010   0.25021   0.00000  Uiso   1.00
C751   C     0.63605   0.39091   0.21449   0.00000  Uiso   1.00
C752   C     0.86470   0.10828   0.78535   0.00000  Uiso   1.00
C753   C     0.58964   0.11550   0.23750   0.00000  Uiso   1.00
C754   C     0.90335   0.37651   0.72222   0.00000  Uiso   1.00
C755   C     0.86096   0.11168   0.21477   0.00000  Uiso   1.00
C756   C     0.77852   0.48207   0.41799   0.00000  Uiso   1.00
C757   C     0.63479   0.39223   0.78508   0.00000  Uiso   1.00
C758   C     0.90132   0.37476   0.28073   0.00000  Uiso   1.00
C759   C     0.59916   0.12587   0.72003   0.00000  Uiso   1.00
C760   C     0.62639   0.09902   0.72016   0.00000  Uiso   1.00
C761   C     0.87422   0.40201   0.27997   0.00000  Uiso   1.00
C762   C     0.60677   0.36639   0.78470   0.00000  Uiso   1.00
C763   C     0.88883   0.13805   0.21434   0.00000  Uiso   1.00
C764   C     0.87601   0.40328   0.72249   0.00000  Uiso   1.00
C765   C     0.61596   0.08797   0.24206   0.00000  Uiso   1.00
C766   C     0.89312   0.13381   0.78492   0.00000  Uiso   1.00
C767   C     0.72124   0.01640   0.58219   0.00000  Uiso   1.00
C768   C     0.60836   0.36465   0.21482   0.00000  Uiso   1.00
C769   C     0.88518   0.14182   0.71464   0.00000  Uiso   1.00
C770   C     0.61422   0.35884   0.28545   0.00000  Uiso   1.00
C771   C     0.84578   0.37249   0.77665   0.00000  Uiso   1.00
C772   C     0.66047   0.13446   0.26314   0.00000  Uiso   1.00
C773   C     0.61482   0.35804   0.71444   0.00000  Uiso   1.00
C774   C     0.88914   0.13811   0.28569   0.00000  Uiso   1.00
C775   C     0.65083   0.12405   0.78078   0.00000  Uiso   1.00
C776   C     0.84954   0.37597   0.21994   0.00000  Uiso   1.00
C777   C     0.87666   0.34904   0.22033   0.00000  Uiso   1.00
C778   C     0.72724   0.02503   0.91835   0.00000  Uiso   1.00
C779   C     0.62383   0.15118   0.78036   0.00000  Uiso   1.00
C780   C     0.86107   0.11218   0.28581   0.00000  Uiso   1.00
C781   C     0.64326   0.38357   0.71490   0.00000  Uiso   1.00
C782   C     0.63408   0.16196   0.25873   0.00000  Uiso   1.00
C783   C     0.87354   0.34617   0.77697   0.00000  Uiso   1.00
C784   C     0.64186   0.38515   0.28513   0.00000  Uiso   1.00
C785   C     0.85683   0.11622   0.71506   0.00000  Uiso   1.00
C786   C     0.51855   0.22201   0.45883   0.00000  Uiso   1.00
C787   C     0.98227   0.27860   0.54122   0.00000  Uiso   1.00
C788   C     0.77922   0.48284   0.45893   0.00000  Uiso   1.00
H789   H     0.54958   0.17154   0.46513   0.00000  Uiso   1.00
H790   H     0.69207   0.07286   0.03494   0.00000  Uiso   1.00
H791   H     0.95966   0.15163   0.61295   0.00000  Uiso   1.00
H792   H     0.91100   0.15368   0.60509   0.00000  Uiso   1.00
H793   H     0.54870   0.34599   0.31637   0.00000  Uiso   1.00
H794   H     0.57146   0.38565   0.33563   0.00000  Uiso   1.00
H795   H     0.53942   0.35091   0.38690   0.00000  Uiso   1.00
H796   H     0.56545   0.31040   0.37496   0.00000  Uiso   1.00
H797   H     0.58816   0.35019   0.39476   0.00000  Uiso   1.00
H798   H     0.79352   0.33256   0.76519   0.00000  Uiso   1.00
H799   H     0.77047   0.37596   0.77154   0.00000  Uiso   1.00
H800   H     0.75343   0.35951   0.83848   0.00000  Uiso   1.00
H801   H     0.58183   0.20692   0.96498   0.00000  Uiso   1.00
H802   H     0.73829   0.32517   0.80450   0.00000  Uiso   1.00
H803   H     0.77807   0.31687   0.83416   0.00000  Uiso   1.00
H804   H     0.69294   0.11149   0.32379   0.00000  Uiso   1.00
H805   H     0.68352   0.15800   0.33148   0.00000  Uiso   1.00
H806   H     0.74427   0.14301   0.35616   0.00000  Uiso   1.00
H807   H     0.75814   0.12628   0.30902   0.00000  Uiso   1.00
H808   H     0.74817   0.17430   0.31593   0.00000  Uiso   1.00
H809   H     0.57337   0.38410   0.66241   0.00000  Uiso   1.00
H810   H     0.54958   0.34610   0.68361   0.00000  Uiso   1.00
H811   H     0.56576   0.30718   0.62668   0.00000  Uiso   1.00
H812   H     0.91859   0.29496   0.03469   0.00000  Uiso   1.00
H813   H     0.54039   0.34752   0.61307   0.00000  Uiso   1.00
H814   H     0.58905   0.34552   0.60490   0.00000  Uiso   1.00
H815   H     0.95718   0.14757   0.30973   0.00000  Uiso   1.00
H816   H     0.93553   0.10714   0.32869   0.00000  Uiso   1.00
H817   H     0.92561   0.13968   0.39191   0.00000  Uiso   1.00
H818   H     0.97322   0.13758   0.37835   0.00000  Uiso   1.00
H819   H     0.94800   0.17969   0.37237   0.00000  Uiso   1.00
H820   H     0.71124   0.15082   0.77734   0.00000  Uiso   1.00
H821   H     0.72600   0.10694   0.79571   0.00000  Uiso   1.00
H822   H     0.71191   0.17538   0.84548   0.00000  Uiso   1.00
H823   H     0.69148   0.07248   0.96613   0.00000  Uiso   1.00
H824   H     0.72850   0.13162   0.86227   0.00000  Uiso   1.00
H825   H     0.75590   0.15871   0.82957   0.00000  Uiso   1.00
H826   H     0.77445   0.38289   0.21387   0.00000  Uiso   1.00
H827   H     0.79472   0.33800   0.21887   0.00000  Uiso   1.00
H828   H     0.78888   0.32862   0.14729   0.00000  Uiso   1.00
H829   H     0.74546   0.33743   0.17051   0.00000  Uiso   1.00
H830   H     0.76773   0.37316   0.14321   0.00000  Uiso   1.00
H831   H     0.83269   0.29110   0.19111   0.00000  Uiso   1.00
H832   H     0.86099   0.28618   0.23350   0.00000  Uiso   1.00
H833   H     0.91022   0.25856   0.19109   0.00000  Uiso   1.00
H834   H     0.80852   0.42818   0.03379   0.00000  Uiso   1.00
H835   H     0.86832   0.23259   0.19237   0.00000  Uiso   1.00
H836   H     0.87876   0.26037   0.15065   0.00000  Uiso   1.00
H837   H     0.62900   0.22231   0.77638   0.00000  Uiso   1.00
H838   H     0.67061   0.20039   0.79248   0.00000  Uiso   1.00
H839   H     0.65613   0.21876   0.86072   0.00000  Uiso   1.00
H840   H     0.65996   0.25748   0.82846   0.00000  Uiso   1.00
H841   H     0.61548   0.24155   0.84351   0.00000  Uiso   1.00
H842   H     0.88077   0.09205   0.36378   0.00000  Uiso   1.00
H843   H     0.88444   0.06141   0.32259   0.00000  Uiso   1.00
H844   H     0.82038   0.06513   0.38043   0.00000  Uiso   1.00
H845   H     0.91833   0.29461   0.96581   0.00000  Uiso   1.00
H846   H     0.82446   0.03439   0.33938   0.00000  Uiso   1.00
H847   H     0.85637   0.03126   0.37909   0.00000  Uiso   1.00
H848   H     0.62242   0.42623   0.66621   0.00000  Uiso   1.00
H849   H     0.63372   0.39030   0.63185   0.00000  Uiso   1.00
H850   H     0.65674   0.44941   0.60933   0.00000  Uiso   1.00
H851   H     0.68163   0.45562   0.65393   0.00000  Uiso   1.00
H852   H     0.69448   0.41939   0.62065   0.00000  Uiso   1.00
H853   H     0.68544   0.20967   0.29539   0.00000  Uiso   1.00
H854   H     0.64146   0.19856   0.31822   0.00000  Uiso   1.00
H855   H     0.61813   0.25645   0.30633   0.00000  Uiso   1.00
H856   H     0.58204   0.20718   0.03367   0.00000  Uiso   1.00
H857   H     0.66444   0.26558   0.31940   0.00000  Uiso   1.00
H858   H     0.65147   0.26707   0.26885   0.00000  Uiso   1.00
H859   H     0.85761   0.28528   0.75696   0.00000  Uiso   1.00
H860   H     0.82822   0.28555   0.79895   0.00000  Uiso   1.00
H861   H     0.86502   0.22853   0.79216   0.00000  Uiso   1.00
H862   H     0.90639   0.25490   0.79704   0.00000  Uiso   1.00
H863   H     0.87440   0.25264   0.83705   0.00000  Uiso   1.00
H864   H     0.62556   0.40530   0.36523   0.00000  Uiso   1.00
H865   H     0.61795   0.43447   0.32364   0.00000  Uiso   1.00
H866   H     0.68689   0.43482   0.37458   0.00000  Uiso   1.00
H867   H     0.67934   0.36383   0.16503   0.00000  Uiso   1.00
H868   H     0.67618   0.46544   0.33487   0.00000  Uiso   1.00
H869   H     0.64882   0.46606   0.37845   0.00000  Uiso   1.00
H870   H     0.87820   0.07301   0.66682   0.00000  Uiso   1.00
H871   H     0.86686   0.10816   0.63195   0.00000  Uiso   1.00
H872   H     0.84415   0.04861   0.61026   0.00000  Uiso   1.00
H873   H     0.81930   0.04294   0.65503   0.00000  Uiso   1.00
H874   H     0.80617   0.07851   0.62139   0.00000  Uiso   1.00
H875   H     0.96928   0.33155   0.40427   0.00000  Uiso   1.00
H876   H     0.90944   0.30327   0.42130   0.00000  Uiso   1.00
H877   H     0.91734   0.27200   0.38147   0.00000  Uiso   1.00
H878   H     0.70181   0.40387   0.18373   0.00000  Uiso   1.00
H879   H     0.91215   0.32016   0.37226   0.00000  Uiso   1.00
H880   H     0.53005   0.16825   0.59557   0.00000  Uiso   1.00
H881   H     0.59040   0.19589   0.57951   0.00000  Uiso   1.00
H882   H     0.58690   0.17904   0.62850   0.00000  Uiso   1.00
H883   H     0.58235   0.22726   0.61918   0.00000  Uiso   1.00
H884   H     0.66689   0.02481   0.40422   0.00000  Uiso   1.00
H885   H     0.69441   0.08567   0.42510   0.00000  Uiso   1.00
H886   H     0.67155   0.08427   0.37906   0.00000  Uiso   1.00
H887   H     0.72085   0.08169   0.38106   0.00000  Uiso   1.00
H888   H     0.83396   0.47598   0.59588   0.00000  Uiso   1.00
H889   H     0.68510   0.43861   0.12463   0.00000  Uiso   1.00
H890   H     0.81068   0.41335   0.58067   0.00000  Uiso   1.00
H891   H     0.77917   0.41974   0.62047   0.00000  Uiso   1.00
H892   H     0.82754   0.41884   0.62950   0.00000  Uiso   1.00
H893   H     0.53164   0.16885   0.40310   0.00000  Uiso   1.00
H894   H     0.59128   0.19764   0.42028   0.00000  Uiso   1.00
H895   H     0.58298   0.22920   0.38108   0.00000  Uiso   1.00
H896   H     0.58864   0.18118   0.37094   0.00000  Uiso   1.00
H897   H     0.97113   0.33229   0.59671   0.00000  Uiso   1.00
H898   H     0.91037   0.30554   0.58055   0.00000  Uiso   1.00
H899   H     0.91419   0.32187   0.62985   0.00000  Uiso   1.00
H900   H     0.95165   0.32932   0.53489   0.00000  Uiso   1.00
H901   H     0.71112   0.39799   0.11314   0.00000  Uiso   1.00
H902   H     0.91812   0.27369   0.61957   0.00000  Uiso   1.00
H903   H     0.83280   0.47253   0.40321   0.00000  Uiso   1.00
H904   H     0.80672   0.41165   0.42051   0.00000  Uiso   1.00
H905   H     0.82358   0.41478   0.37142   0.00000  Uiso   1.00
H906   H     0.77534   0.41823   0.38077   0.00000  Uiso   1.00
H907   H     0.66669   0.02405   0.59689   0.00000  Uiso   1.00
H908   H     0.69078   0.08591   0.57961   0.00000  Uiso   1.00
H909   H     0.72221   0.08036   0.61946   0.00000  Uiso   1.00
H910   H     0.67385   0.08219   0.62860   0.00000  Uiso   1.00
H911   H     0.70906   0.07715   0.90391   0.00000  Uiso   1.00
H912   H     0.66238   0.39859   0.10538   0.00000  Uiso   1.00
H913   H     0.65306   0.04199   0.92181   0.00000  Uiso   1.00
H914   H     0.66451   0.01141   0.88235   0.00000  Uiso   1.00
H915   H     0.65350   0.05849   0.87252   0.00000  Uiso   1.00
H916   H     0.78878   0.42217   0.09536   0.00000  Uiso   1.00
H917   H     0.84622   0.45551   0.07968   0.00000  Uiso   1.00
H918   H     0.84400   0.43906   0.12891   0.00000  Uiso   1.00
H919   H     0.83473   0.48645   0.11873   0.00000  Uiso   1.00
H920   H     0.91622   0.27435   0.90404   0.00000  Uiso   1.00
H921   H     0.93967   0.33688   0.91939   0.00000  Uiso   1.00
H922   H     0.92296   0.33151   0.87048   0.00000  Uiso   1.00
H923   H     0.79909   0.09719   0.81560   0.00000  Uiso   1.00
H924   H     0.97130   0.33042   0.87972   0.00000  Uiso   1.00
H925   H     0.58298   0.22468   0.09577   0.00000  Uiso   1.00
H926   H     0.55523   0.16384   0.07517   0.00000  Uiso   1.00
H927   H     0.52885   0.16805   0.11921   0.00000  Uiso   1.00
H928   H     0.57811   0.16533   0.12122   0.00000  Uiso   1.00
H929   H     0.82420   0.45225   0.90795   0.00000  Uiso   1.00
H930   H     0.77387   0.40302   0.90926   0.00000  Uiso   1.00
H931   H     0.80520   0.40341   0.86889   0.00000  Uiso   1.00
H932   H     0.76073   0.42365   0.86348   0.00000  Uiso   1.00
H933   H     0.71071   0.07790   0.09696   0.00000  Uiso   1.00
H934   H     0.82282   0.13520   0.83703   0.00000  Uiso   1.00
H935   H     0.65397   0.04352   0.07958   0.00000  Uiso   1.00
H936   H     0.65501   0.06030   0.12884   0.00000  Uiso   1.00
H937   H     0.66514   0.01298   0.11882   0.00000  Uiso   1.00
H938   H     0.58295   0.22442   0.90319   0.00000  Uiso   1.00
H939   H     0.55778   0.16310   0.92069   0.00000  Uiso   1.00
H940   H     0.57483   0.16633   0.87171   0.00000  Uiso   1.00
H941   H     0.52649   0.16902   0.88076   0.00000  Uiso   1.00
H942   H     0.91708   0.27660   0.09632   0.00000  Uiso   1.00
H943   H     0.94264   0.33792   0.07984   0.00000  Uiso   1.00
H944   H     0.97378   0.33136   0.11978   0.00000  Uiso   1.00
H945   H     0.83717   0.09731   0.89487   0.00000  Uiso   1.00
H946   H     0.92543   0.33424   0.12873   0.00000  Uiso   1.00
H947   H     0.78865   0.09891   0.88577   0.00000  Uiso   1.00
H948   H     0.81454   0.05862   0.87279   0.00000  Uiso   1.00
H949   H     0.56828   0.09207   0.16947   0.00000  Uiso   1.00
H950   H     0.55621   0.13806   0.17655   0.00000  Uiso   1.00
H951   H     0.99206   0.11979   0.19139   0.00000  Uiso   1.00
H952   H     0.83154   0.45513   0.46523   0.00000  Uiso   1.00
H953   H     0.50698   0.10416   0.14400   0.00000  Uiso   1.00
H954   H     0.50445   0.07241   0.18396   0.00000  Uiso   1.00
H955   H     0.97847   0.36988   0.72151   0.00000  Uiso   1.00
H956   H     0.95808   0.41468   0.72730   0.00000  Uiso   1.00
H957   H     0.96946   0.42695   0.65709   0.00000  Uiso   1.00
H958   H     0.51098   0.41638   0.68303   0.00000  Uiso   1.00
H959   H     0.99024   0.38227   0.65205   0.00000  Uiso   1.00
H960   H     0.82548   0.15018   0.16347   0.00000  Uiso   1.00
H961   H     0.79579   0.12407   0.19527   0.00000  Uiso   1.00
H962   H     0.81524   0.10443   0.11080   0.00000  Uiso   1.00
H963   H     0.66773   0.04204   0.53505   0.00000  Uiso   1.00
H964   H     0.78586   0.07848   0.14273   0.00000  Uiso   1.00
H965   H     0.77279   0.12399   0.12793   0.00000  Uiso   1.00
H966   H     0.70001   0.40511   0.81818   0.00000  Uiso   1.00
H967   H     0.67624   0.36519   0.83509   0.00000  Uiso   1.00
H968   H     0.70449   0.39588   0.89005   0.00000  Uiso   1.00
H969   H     0.68409   0.43919   0.87706   0.00000  Uiso   1.00
H970   H     0.65581   0.40203   0.89401   0.00000  Uiso   1.00
H971   H     0.96407   0.39569   0.27588   0.00000  Uiso   1.00
H972   H     0.97531   0.35268   0.29878   0.00000  Uiso   1.00
H973   H     0.96494   0.42507   0.34298   0.00000  Uiso   1.00
H974   H     0.95116   0.32904   0.46609   0.00000  Uiso   1.00
H975   H     0.98031   0.38195   0.36218   0.00000  Uiso   1.00
H976   H     0.50799   0.40624   0.32739   0.00000  Uiso   1.00
H977   H     0.52416   0.13221   0.71621   0.00000  Uiso   1.00
H978   H     0.54458   0.08730   0.72004   0.00000  Uiso   1.00
H979   H     0.99399   0.08686   0.67352   0.00000  Uiso   1.00
H980   H     0.51479   0.12327   0.64606   0.00000  Uiso   1.00
H981   H     0.53663   0.07894   0.64835   0.00000  Uiso   1.00
H982   H     0.58167   0.04103   0.68918   0.00000  Uiso   1.00
H983   H     0.60627   0.03826   0.73433   0.00000  Uiso   1.00
H984   H     0.62997   0.00761   0.65514   0.00000  Uiso   1.00
H985   H     0.54929   0.17132   0.53394   0.00000  Uiso   1.00
H986   H     0.65866   0.00852   0.69787   0.00000  Uiso   1.00
H987   H     0.61665   0.48282   0.69820   0.00000  Uiso   1.00
H988   H     0.92447   0.44463   0.29374   0.00000  Uiso   1.00
H989   H     0.90479   0.46467   0.33620   0.00000  Uiso   1.00
H990   H     0.90422   0.01007   0.28590   0.00000  Uiso   1.00
H991   H     0.88428   0.47930   0.25147   0.00000  Uiso   1.00
H992   H     0.85741   0.49551   0.29244   0.00000  Uiso   1.00
H993   H     0.61985   0.35213   0.86597   0.00000  Uiso   1.00
H994   H     0.62727   0.31878   0.82767   0.00000  Uiso   1.00
H995   H     0.55686   0.32568   0.87608   0.00000  Uiso   1.00
H996   H     0.66760   0.04198   0.46636   0.00000  Uiso   1.00
H997   H     0.56883   0.29045   0.84109   0.00000  Uiso   1.00
H998   H     0.59397   0.29449   0.88584   0.00000  Uiso   1.00
H999   H     0.89280   0.11758   0.13539   0.00000  Uiso   1.00
H1000  H     0.93035   0.10789   0.16804   0.00000  Uiso   1.00
H1001  H     0.95161   0.13115   0.10439   0.00000  Uiso   1.00
H1002  H     0.92492   0.17237   0.11090   0.00000  Uiso   1.00
H1003  H     0.96267   0.16276   0.14295   0.00000  Uiso   1.00
H1004  H     0.92208   0.46253   0.69881   0.00000  Uiso   1.00
H1005  H     0.89363   0.46390   0.74159   0.00000  Uiso   1.00
H1006  H     0.84481   0.49529   0.70271   0.00000  Uiso   1.00
H1007  H     0.83190   0.45563   0.53415   0.00000  Uiso   1.00
H1008  H     0.88699   0.02057   0.70605   0.00000  Uiso   1.00
H1009  H     0.87576   0.49637   0.66171   0.00000  Uiso   1.00
H1010  H     0.60803   0.04987   0.18345   0.00000  Uiso   1.00
H1011  H     0.56395   0.04041   0.20688   0.00000  Uiso   1.00
H1012  H     0.59733   0.48295   0.23489   0.00000  Uiso   1.00
H1013  H     0.58292   0.48335   0.18474   0.00000  Uiso   1.00
H1014  H     0.62975   0.49179   0.19600   0.00000  Uiso   1.00
H1015  H     0.88298   0.14165   0.86796   0.00000  Uiso   1.00
H1016  H     0.87184   0.17703   0.83327   0.00000  Uiso   1.00
H1017  H     0.94370   0.17106   0.87892   0.00000  Uiso   1.00
H1018  H     0.80931   0.42902   0.96504   0.00000  Uiso   1.00
H1019  H     0.93082   0.20683   0.84542   0.00000  Uiso   1.00
H1020  H     0.90579   0.20106   0.89006   0.00000  Uiso   1.00
H1021  H     0.63223   0.31498   0.17681   0.00000  Uiso   1.00
H1022  H     0.62513   0.34404   0.13505   0.00000  Uiso   1.00
H1023  H     0.60165   0.28331   0.12188   0.00000  Uiso   1.00
H1024  H     0.57389   0.28430   0.16517   0.00000  Uiso   1.00
H1025  H     0.56373   0.31480   0.12520   0.00000  Uiso   1.00
H1026  H     0.92681   0.11544   0.66253   0.00000  Uiso   1.00
H1027  H     0.95053   0.15363   0.68360   0.00000  Uiso   1.00
H1028  H     0.93442   0.19210   0.62675   0.00000  Uiso   1.00
N1029  N     0.96231   0.30518   0.39676   0.00000  Uiso   1.00
N1030  N     0.79321   0.44907   0.10308   0.00000  Uiso   1.00
N1031  N     0.94190   0.28328   0.89635   0.00000  Uiso   1.00
N1032  N     0.55718   0.21565   0.10278   0.00000  Uiso   1.00
N1033  N     0.79820   0.45389   0.89670   0.00000  Uiso   1.00
N1034  N     0.70644   0.05084   0.10390   0.00000  Uiso   1.00
N1035  N     0.55702   0.21592   0.89601   0.00000  Uiso   1.00
N1036  N     0.94301   0.28482   0.10385   0.00000  Uiso   1.00
N1037  N     0.53720   0.19453   0.60330   0.00000  Uiso   1.00
N1038  N     0.69267   0.03397   0.39728   0.00000  Uiso   1.00
N1039  N     0.80833   0.46697   0.60365   0.00000  Uiso   1.00
N1040  N     0.53836   0.19538   0.39608   0.00000  Uiso   1.00
N1041  N     0.96364   0.30603   0.60401   0.00000  Uiso   1.00
N1042  N     0.80670   0.46456   0.39606   0.00000  Uiso   1.00
N1043  N     0.69248   0.03300   0.60404   0.00000  Uiso   1.00
N1044  N     0.70520   0.05001   0.89689   0.00000  Uiso   1.00
O1045  O     0.75000  -0.00000   0.25000   0.00000  Uiso   1.00
O1046  O     0.75000   0.46963   0.66245   0.00000  Uiso   1.00
O1047  O     0.96964   0.25000   0.33755   0.00000  Uiso   1.00
O1048  O     0.53037   0.25000   0.66245   0.00000  Uiso   1.00
O1049  O     0.50000   0.21963   0.83755   0.00000  Uiso   1.00
O1050  O     0.50000   0.28036   0.16245   0.00000  Uiso   1.00
O1051  O     0.78037  -0.00000   0.83755   0.00000  Uiso   1.00
O1052  O     0.71964  -0.00000   0.16245   0.00000  Uiso   1.00
O1053  O     0.50000   0.28036   0.83755   0.00000  Uiso   1.00
O1054  O     0.50000   0.21963   0.16245   0.00000  Uiso   1.00
O1055  O     0.71964  -0.00000   0.83755   0.00000  Uiso   1.00
O1056  O     0.75000  -0.00000   0.75000   0.00000  Uiso   1.00
O1057  O     0.78037  -0.00000   0.16245   0.00000  Uiso   1.00
O1058  O     0.70725   0.07307   0.27302   0.00000  Uiso   1.00
O1059  O     0.79276   0.42692   0.72698   0.00000  Uiso   1.00
O1060  O     0.92693   0.20724   0.27302   0.00000  Uiso   1.00
O1061  O     0.57308   0.29275   0.72698   0.00000  Uiso   1.00
O1062  O     0.79276   0.42692   0.27302   0.00000  Uiso   1.00
O1063  O     0.70725   0.07307   0.72698   0.00000  Uiso   1.00
O1064  O     0.57308   0.29275   0.27302   0.00000  Uiso   1.00
O1065  O     0.92693   0.20724   0.72698   0.00000  Uiso   1.00
O1066  O     0.70725   0.42692   0.72698   0.00000  Uiso   1.00
O1067  O     0.50000   0.25000   0.25000   0.00000  Uiso   1.00
O1068  O     0.79276   0.07307   0.27302   0.00000  Uiso   1.00
O1069  O     0.92693   0.29275   0.72698   0.00000  Uiso   1.00
O1070  O     0.57308   0.20724   0.27302   0.00000  Uiso   1.00
O1071  O     0.79276   0.07307   0.72698   0.00000  Uiso   1.00
O1072  O     0.70725   0.42692   0.27302   0.00000  Uiso   1.00
O1073  O     0.57308   0.20724   0.72698   0.00000  Uiso   1.00
O1074  O     0.92693   0.29275   0.27302   0.00000  Uiso   1.00
O1075  O     0.95725   0.32307   0.77302   0.00000  Uiso   1.00
O1076  O     0.54276   0.17692   0.22698   0.00000  Uiso   1.00
O1077  O     0.67693   0.45724   0.77302   0.00000  Uiso   1.00
O1078  O     0.50000   0.25000   0.75000   0.00000  Uiso   1.00
O1079  O     0.82308   0.04275   0.22698   0.00000  Uiso   1.00
O1080  O     0.54276   0.17692   0.77302   0.00000  Uiso   1.00
O1081  O     0.95725   0.32307   0.22698   0.00000  Uiso   1.00
O1082  O     0.82308   0.04275   0.77302   0.00000  Uiso   1.00
O1083  O     0.67693   0.45724   0.22698   0.00000  Uiso   1.00
O1084  O     0.95725   0.17692   0.22698   0.00000  Uiso   1.00
O1085  O     0.54276   0.32307   0.77302   0.00000  Uiso   1.00
O1086  O     0.67693   0.04275   0.22698   0.00000  Uiso   1.00
O1087  O     0.82308   0.45724   0.77302   0.00000  Uiso   1.00
O1088  O     0.54276   0.32307   0.22698   0.00000  Uiso   1.00
O1089  O     0.75000   0.46963   0.33755   0.00000  Uiso   1.00
O1090  O     0.95725   0.17692   0.77302   0.00000  Uiso   1.00
O1091  O     0.82308   0.45724   0.22698   0.00000  Uiso   1.00
O1092  O     0.67693   0.04275   0.77302   0.00000  Uiso   1.00
O1093  O     0.64486   0.40779   0.17973   0.00000  Uiso   1.00
O1094  O     0.85594   0.09100   0.81994   0.00000  Uiso   1.00
O1095  O     0.55438   0.10600   0.22720   0.00000  Uiso   1.00
O1096  O     0.92915   0.37663   0.69278   0.00000  Uiso   1.00
O1097  O     0.84564   0.09943   0.18043   0.00000  Uiso   1.00
O1098  O     0.64306   0.40990   0.81965   0.00000  Uiso   1.00
O1099  O     0.92393   0.37254   0.31300   0.00000  Uiso   1.00
O1100  O     0.75000   0.03036   0.66245   0.00000  Uiso   1.00
O1101  O     0.57479   0.12712   0.68936   0.00000  Uiso   1.00
O1102  O     0.62781   0.07340   0.69052   0.00000  Uiso   1.00
O1103  O     0.87123   0.42723   0.30999   0.00000  Uiso   1.00
O1104  O     0.58690   0.35969   0.81824   0.00000  Uiso   1.00
O1105  O     0.89923   0.15524   0.18014   0.00000  Uiso   1.00
O1106  O     0.87602   0.43029   0.69448   0.00000  Uiso   1.00
O1107  O     0.60626   0.05116   0.24459   0.00000  Uiso   1.00
O1108  O     0.91399   0.13971   0.81796   0.00000  Uiso   1.00
O1109  O     0.59051   0.35563   0.18068   0.00000  Uiso   1.00
O1110  O     0.89359   0.15942   0.68014   0.00000  Uiso   1.00
O1111  O     0.53037   0.25000   0.33755   0.00000  Uiso   1.00
O1112  O     0.60563   0.34175   0.32017   0.00000  Uiso   1.00
O1113  O     0.81796   0.37039   0.80382   0.00000  Uiso   1.00
O1114  O     0.69578   0.14401   0.27343   0.00000  Uiso   1.00
O1115  O     0.60649   0.34022   0.67994   0.00000  Uiso   1.00
O1116  O     0.90111   0.15248   0.32071   0.00000  Uiso   1.00
O1117  O     0.67371   0.12170   0.81273   0.00000  Uiso   1.00
O1118  O     0.82579   0.37759   0.18877   0.00000  Uiso   1.00
O1119  O     0.87867   0.32382   0.19028   0.00000  Uiso   1.00
O1120  O     0.62177   0.17597   0.81070   0.00000  Uiso   1.00
O1121  O     0.84381   0.10283   0.32021   0.00000  Uiso   1.00
O1122  O     0.96964   0.25000   0.66245   0.00000  Uiso   1.00
O1123  O     0.66442   0.38910   0.68196   0.00000  Uiso   1.00
O1124  O     0.64373   0.19882   0.25701   0.00000  Uiso   1.00
O1125  O     0.87327   0.31899   0.80481   0.00000  Uiso   1.00
O1126  O     0.65984   0.39404   0.31923   0.00000  Uiso   1.00
O1127  O     0.83598   0.11031   0.68203   0.00000  Uiso   1.00
O1128  O     0.75000   0.03036   0.33755   0.00000  Uiso   1.00
Zn1129 Zn    0.70660  -0.00000   0.21735   0.00000  Uiso   1.00
Zn1130 Zn    0.54341   0.25000   0.28265   0.00000  Uiso   1.00
Zn1131 Zn    0.75000   0.45659   0.71735   0.00000  Uiso   1.00
Zn1132 Zn    0.75000   0.04340   0.28265   0.00000  Uiso   1.00
Zn1133 Zn    0.54341   0.25000   0.71735   0.00000  Uiso   1.00
Zn1134 Zn    0.95660   0.25000   0.28265   0.00000  Uiso   1.00
Zn1135 Zn    0.75000   0.04340   0.71735   0.00000  Uiso   1.00
Zn1136 Zn    0.75000   0.45659   0.28265   0.00000  Uiso   1.00
Zn1137 Zn    0.79341  -0.00000   0.78265   0.00000  Uiso   1.00
Zn1138 Zn    0.50000   0.20659   0.21735   0.00000  Uiso   1.00
Zn1139 Zn    0.50000   0.29340   0.78265   0.00000  Uiso   1.00
Zn1140 Zn    0.79341  -0.00000   0.21735   0.00000  Uiso   1.00
Zn1141 Zn    0.70660  -0.00000   0.78265   0.00000  Uiso   1.00
Zn1142 Zn    0.50000   0.29340   0.21735   0.00000  Uiso   1.00
Zn1143 Zn    0.50000   0.20659   0.78265   0.00000  Uiso   1.00
Zn1144 Zn    0.95660   0.25000   0.71735   0.00000  Uiso   1.00
C1145  C     0.48090   0.77760   0.41828   0.00000  Uiso   1.00
C1146  C     0.27222   0.97500   0.08168   0.00000  Uiso   1.00
C1147  C     0.22051   0.51524   0.54135   0.00000  Uiso   1.00
C1148  C     0.48196   0.77841   0.45917   0.00000  Uiso   1.00
C1149  C     0.01839   0.72188   0.54088   0.00000  Uiso   1.00
C1150  C     0.22049   0.51532   0.45937   0.00000  Uiso   1.00
C1151  C     0.27952   0.98316   0.54105   0.00000  Uiso   1.00
C1152  C     0.27258   0.97556   0.95890   0.00000  Uiso   1.00
C1153  C     0.22878   0.52634   0.04123   0.00000  Uiso   1.00
C1154  C     0.02930   0.73423   0.95866   0.00000  Uiso   1.00
C1155  C     0.47080   0.76702   0.04104   0.00000  Uiso   1.00
C1156  C     0.22845   0.52619   0.95922   0.00000  Uiso   1.00
C1157  C     0.47101   0.76736   0.91802   0.00000  Uiso   1.00
C1158  C     0.27180   0.97467   0.04082   0.00000  Uiso   1.00
C1159  C     0.47057   0.76682   0.95894   0.00000  Uiso   1.00
C1160  C     0.02938   0.73425   0.04064   0.00000  Uiso   1.00
C1161  C     0.09780   0.84837   0.25011   0.00000  Uiso   1.00
C1162  C     0.40259   0.65120   0.74981   0.00000  Uiso   1.00
C1163  C     0.15162   0.59797   0.25246   0.00000  Uiso   1.00
C1164  C     0.34759   0.90144   0.74992   0.00000  Uiso   1.00
C1165  C     0.40227   0.65151   0.24991   0.00000  Uiso   1.00
C1166  C     0.09734   0.84885   0.74963   0.00000  Uiso   1.00
C1167  C     0.34827   0.90213   0.24998   0.00000  Uiso   1.00
C1168  C     0.02862   0.73290   0.08151   0.00000  Uiso   1.00
C1169  C     0.15219   0.59825   0.75032   0.00000  Uiso   1.00
C1170  C     0.09813   0.65202   0.75007   0.00000  Uiso   1.00
C1171  C     0.40242   0.84848   0.25055   0.00000  Uiso   1.00
C1172  C     0.15246   0.90129   0.75000   0.00000  Uiso   1.00
C1173  C     0.34805   0.59820   0.25038   0.00000  Uiso   1.00
C1174  C     0.40221   0.84828   0.74987   0.00000  Uiso   1.00
C1175  C     0.09847   0.65202   0.24793   0.00000  Uiso   1.00
C1176  C     0.34740   0.59882   0.75016   0.00000  Uiso   1.00
C1177  C     0.15233   0.90151   0.24985   0.00000  Uiso   1.00
C1178  C     0.00026   0.75021   0.47947   0.00000  Uiso   1.00
C1179  C     0.27336   0.97635   0.91810   0.00000  Uiso   1.00
C1180  C     0.00030   0.75023   0.52058   0.00000  Uiso   1.00
C1181  C     0.24991   0.99910   0.47962   0.00000  Uiso   1.00
C1182  C     0.24997   0.99913   0.52073   0.00000  Uiso   1.00
C1183  C     0.25044   0.50078   0.97951   0.00000  Uiso   1.00
C1184  C     0.25037   0.50062   0.02059   0.00000  Uiso   1.00
C1185  C    -0.00000   0.75062   0.97927   0.00000  Uiso   1.00
C1186  C     0.00006   0.75064   0.02037   0.00000  Uiso   1.00
C1187  C     0.17865   0.89424   0.16569   0.00000  Uiso   1.00
C1188  C     0.18467   0.90823   0.12463   0.00000  Uiso   1.00
C1189  C     0.32241   0.60488   0.83445   0.00000  Uiso   1.00
C1190  C     0.22796   0.52545   0.08208   0.00000  Uiso   1.00
C1191  C     0.31528   0.58893   0.87448   0.00000  Uiso   1.00
C1192  C     0.05000   0.61007   0.18647   0.00000  Uiso   1.00
C1193  C     0.01087   0.60103   0.17576   0.00000  Uiso   1.00
C1194  C     0.46229   0.89139   0.70675   0.00000  Uiso   1.00
C1195  C     0.48463   0.90512   0.67255   0.00000  Uiso   1.00
C1196  C     0.31582   0.62221   0.17093   0.00000  Uiso   1.00
C1197  C     0.29622   0.60625   0.13587   0.00000  Uiso   1.00
C1198  C     0.17596   0.89564   0.83501   0.00000  Uiso   1.00
C1199  C     0.18034   0.90905   0.87662   0.00000  Uiso   1.00
C1200  C     0.46084   0.87913   0.30283   0.00000  Uiso   1.00
C1201  C     0.02855   0.73307   0.91782   0.00000  Uiso   1.00
C1202  C     0.47962   0.89935   0.33591   0.00000  Uiso   1.00
C1203  C     0.04113   0.61155   0.70083   0.00000  Uiso   1.00
C1204  C     0.02036   0.59938   0.66489   0.00000  Uiso   1.00
C1205  C     0.10935   0.54125   0.70221   0.00000  Uiso   1.00
C1206  C     0.13003   0.50799   0.68735   0.00000  Uiso   1.00
C1207  C     0.39842   0.95457   0.30654   0.00000  Uiso   1.00
C1208  C     0.38499   0.98686   0.28265   0.00000  Uiso   1.00
C1209  C     0.10634   0.83581   0.84296   0.00000  Uiso   1.00
C1210  C     0.07972   0.81005   0.86276   0.00000  Uiso   1.00
C1211  C     0.41455   0.63001   0.15348   0.00000  Uiso   1.00
C1212  C     0.47145   0.76773   0.08197   0.00000  Uiso   1.00
C1213  C     0.44003   0.65038   0.12621   0.00000  Uiso   1.00
C1214  C     0.39340   0.96196   0.70921   0.00000  Uiso   1.00
C1215  C     0.37398   0.99566   0.69388   0.00000  Uiso   1.00
C1216  C     0.09398   0.53707   0.20869   0.00000  Uiso   1.00
C1217  C     0.10148   0.99622   0.20626   0.00000  Uiso   1.00
C1218  C     0.39441   0.66041   0.84583   0.00000  Uiso   1.00
C1219  C     0.42039   0.68642   0.86637   0.00000  Uiso   1.00
C1220  C     0.11125   0.82977   0.15931   0.00000  Uiso   1.00
C1221  C     0.08591   0.80131   0.14181   0.00000  Uiso   1.00
C1222  C     0.42701   0.64577   0.66511   0.00000  Uiso   1.00
C1223  C     0.00002   0.75007   0.39812   0.00000  Uiso   1.00
C1224  C     0.43340   0.66180   0.62497   0.00000  Uiso   1.00
C1225  C     0.07195   0.85525   0.33451   0.00000  Uiso   1.00
C1226  C     0.06589   0.84077   0.37535   0.00000  Uiso   1.00
C1227  C     0.28668   0.85460   0.78651   0.00000  Uiso   1.00
C1228  C     0.26267   0.83801   0.81792   0.00000  Uiso   1.00
C1229  C     0.20056   0.63920   0.31404   0.00000  Uiso   1.00
C1230  C     0.24030   0.64612   0.32441   0.00000  Uiso   1.00
C1231  C     0.07311   0.85379   0.66502   0.00000  Uiso   1.00
C1232  C     0.06671   0.83748   0.62491   0.00000  Uiso   1.00
C1233  C     0.43572   0.63758   0.32986   0.00000  Uiso   1.00
C1234  C     0.00017   0.75012   0.60191   0.00000  Uiso   1.00
C1235  C     0.44626   0.64939   0.37071   0.00000  Uiso   1.00
C1236  C     0.20978   0.63182   0.80260   0.00000  Uiso   1.00
C1237  C     0.22761   0.65056   0.83718   0.00000  Uiso   1.00
C1238  C     0.29185   0.86206   0.19928   0.00000  Uiso   1.00
C1239  C     0.27226   0.84953   0.16274   0.00000  Uiso   1.00
C1240  C     0.36135   0.79087   0.20149   0.00000  Uiso   1.00
C1241  C     0.38096   0.75861   0.18269   0.00000  Uiso   1.00
C1242  C     0.14208   0.70741   0.80078   0.00000  Uiso   1.00
C1243  C     0.14352   0.73291   0.83562   0.00000  Uiso   1.00
C1244  C     0.36507   0.57734   0.34108   0.00000  Uiso   1.00
C1245  C     0.25005   0.99987   0.39822   0.00000  Uiso   1.00
C1246  C     0.33992   0.55037   0.36127   0.00000  Uiso   1.00
C1247  C     0.14504   0.90938   0.65384   0.00000  Uiso   1.00
C1248  C     0.17119   0.93500   0.63311   0.00000  Uiso   1.00
C1249  C     0.15534   0.71233   0.29343   0.00000  Uiso   1.00
C1250  C     0.14680   0.75292   0.29690   0.00000  Uiso   1.00
C1251  C     0.35710   0.78697   0.78935   0.00000  Uiso   1.00
C1252  C     0.37702   0.75368   0.80495   0.00000  Uiso   1.00
C1253  C     0.13915   0.91972   0.34089   0.00000  Uiso   1.00
C1254  C     0.16448   0.94825   0.35826   0.00000  Uiso   1.00
C1255  C     0.35554   0.58950   0.65423   0.00000  Uiso   1.00
C1256  C     0.01907   0.72243   0.58177   0.00000  Uiso   1.00
C1257  C     0.25023   0.99971   0.60201   0.00000  Uiso   1.00
C1258  C     0.32959   0.56330   0.63394   0.00000  Uiso   1.00
C1259  C     0.42334   0.79978   0.39287   0.00000  Uiso   1.00
C1260  C     0.07617   0.69953   0.60773   0.00000  Uiso   1.00
C1261  C     0.19512   0.57342   0.39559   0.00000  Uiso   1.00
C1262  C     0.30622   0.92774   0.60871   0.00000  Uiso   1.00
C1263  C     0.07727   0.70125   0.39202   0.00000  Uiso   1.00
C1264  C     0.42461   0.80145   0.60861   0.00000  Uiso   1.00
C1265  C     0.30279   0.92532   0.39211   0.00000  Uiso   1.00
C1266  C     0.19506   0.57236   0.60801   0.00000  Uiso   1.00
C1267  C     0.16715   0.53987   0.89334   0.00000  Uiso   1.00
C1268  C     0.24989   0.50029   0.89817   0.00000  Uiso   1.00
C1269  C     0.33145   0.95807   0.10771   0.00000  Uiso   1.00
C1270  C     0.44418   0.82251   0.89135   0.00000  Uiso   1.00
C1271  C     0.05458   0.67621   0.10463   0.00000  Uiso   1.00
C1272  C     0.28357   0.91919   0.88404   0.00000  Uiso   1.00
C1273  C     0.16823   0.54133   0.10786   0.00000  Uiso   1.00
C1274  C     0.05377   0.67661   0.89221   0.00000  Uiso   1.00
C1275  C     0.44649   0.82407   0.10815   0.00000  Uiso   1.00
C1276  C     0.25006   0.50015   0.10188   0.00000  Uiso   1.00
C1277  C     0.49980   0.75019   0.89800   0.00000  Uiso   1.00
C1278  C     0.49994   0.75002   0.10178   0.00000  Uiso   1.00
C1279  C     0.03574   0.69389   0.47957   0.00000  Uiso   1.00
C1280  C     0.46521   0.80679   0.52046   0.00000  Uiso   1.00
C1281  C     0.30839   0.96751   0.47969   0.00000  Uiso   1.00
C1282  C     0.19110   0.53005   0.52064   0.00000  Uiso   1.00
C1283  C     0.46496   0.80664   0.48025   0.00000  Uiso   1.00
C1284  C     0.22128   0.51679   0.41851   0.00000  Uiso   1.00
C1285  C     0.03558   0.69378   0.51979   0.00000  Uiso   1.00
C1286  C     0.19106   0.53004   0.48047   0.00000  Uiso   1.00
C1287  C     0.30859   0.96778   0.51995   0.00000  Uiso   1.00
C1288  C     0.29303   0.94964   0.97955   0.00000  Uiso   1.00
C1289  C     0.20832   0.55221   0.02050   0.00000  Uiso   1.00
C1290  C     0.05858   0.71916   0.97938   0.00000  Uiso   1.00
C1291  C     0.44171   0.78249   0.02026   0.00000  Uiso   1.00
C1292  C     0.20803   0.55203   0.98029   0.00000  Uiso   1.00
C1293  C     0.29246   0.94906   0.01971   0.00000  Uiso   1.00
C1294  C     0.44156   0.78231   0.98002   0.00000  Uiso   1.00
C1295  C     0.27914   0.98272   0.58197   0.00000  Uiso   1.00
C1296  C     0.05866   0.71926   0.01955   0.00000  Uiso   1.00
C1297  C     0.25000   0.50002   0.35585   0.00000  Uiso   1.00
C1298  C     0.25018   0.99992   0.64423   0.00000  Uiso   1.00
C1299  C     0.49998   0.75004   0.35579   0.00000  Uiso   1.00
C1300  C     0.00004   0.75001   0.64422   0.00000  Uiso   1.00
C1301  C     0.49984   0.75006   0.85577   0.00000  Uiso   1.00
C1302  C     0.49997   0.74996   0.14415   0.00000  Uiso   1.00
C1303  C     0.24996   0.50028   0.85581   0.00000  Uiso   1.00
C1304  C     0.25002   0.50000   0.14420   0.00000  Uiso   1.00
C1305  C     0.17987   0.56996   0.25065   0.00000  Uiso   1.00
C1306  C     0.01942   0.72272   0.41794   0.00000  Uiso   1.00
C1307  C     0.31974   0.92973   0.75022   0.00000  Uiso   1.00
C1308  C     0.42972   0.68021   0.24953   0.00000  Uiso   1.00
C1309  C     0.07004   0.82003   0.75018   0.00000  Uiso   1.00
C1310  C     0.32003   0.93003   0.24996   0.00000  Uiso   1.00
C1311  C     0.18002   0.56999   0.75006   0.00000  Uiso   1.00
C1312  C     0.07015   0.81987   0.24973   0.00000  Uiso   1.00
C1313  C     0.42995   0.68002   0.75023   0.00000  Uiso   1.00
C1314  C     0.17993   0.92998   0.74976   0.00000  Uiso   1.00
C1315  C     0.32012   0.56995   0.25029   0.00000  Uiso   1.00
C1316  C     0.43019   0.82018   0.74981   0.00000  Uiso   1.00
C1317  C     0.48149   0.77798   0.58212   0.00000  Uiso   1.00
C1318  C     0.07017   0.68005   0.24938   0.00000  Uiso   1.00
C1319  C     0.32006   0.56997   0.74974   0.00000  Uiso   1.00
C1320  C     0.17988   0.93011   0.25025   0.00000  Uiso   1.00
C1321  C     0.07009   0.68010   0.75010   0.00000  Uiso   1.00
C1322  C     0.43013   0.82010   0.25021   0.00000  Uiso   1.00
C1323  C     0.13605   0.89091   0.21449   0.00000  Uiso   1.00
C1324  C     0.36470   0.60828   0.78535   0.00000  Uiso   1.00
C1325  C     0.08964   0.61550   0.23750   0.00000  Uiso   1.00
C1326  C     0.40335   0.87651   0.72222   0.00000  Uiso   1.00
C1327  C     0.36096   0.61168   0.21477   0.00000  Uiso   1.00
C1328  C     0.27852   0.98207   0.41799   0.00000  Uiso   1.00
C1329  C     0.13479   0.89223   0.78508   0.00000  Uiso   1.00
C1330  C     0.40132   0.87476   0.28073   0.00000  Uiso   1.00
C1331  C     0.09916   0.62587   0.72003   0.00000  Uiso   1.00
C1332  C     0.12639   0.59902   0.72016   0.00000  Uiso   1.00
C1333  C     0.37422   0.90201   0.27997   0.00000  Uiso   1.00
C1334  C     0.10677   0.86639   0.78470   0.00000  Uiso   1.00
C1335  C     0.38883   0.63805   0.21434   0.00000  Uiso   1.00
C1336  C     0.37601   0.90328   0.72249   0.00000  Uiso   1.00
C1337  C     0.11596   0.58797   0.24206   0.00000  Uiso   1.00
C1338  C     0.39312   0.63381   0.78492   0.00000  Uiso   1.00
C1339  C     0.22124   0.51640   0.58219   0.00000  Uiso   1.00
C1340  C     0.10836   0.86465   0.21482   0.00000  Uiso   1.00
C1341  C     0.38518   0.64182   0.71464   0.00000  Uiso   1.00
C1342  C     0.11422   0.85884   0.28545   0.00000  Uiso   1.00
C1343  C     0.34578   0.87249   0.77665   0.00000  Uiso   1.00
C1344  C     0.16047   0.63446   0.26314   0.00000  Uiso   1.00
C1345  C     0.11482   0.85804   0.71444   0.00000  Uiso   1.00
C1346  C     0.38914   0.63811   0.28569   0.00000  Uiso   1.00
C1347  C     0.15083   0.62405   0.78078   0.00000  Uiso   1.00
C1348  C     0.34954   0.87597   0.21994   0.00000  Uiso   1.00
C1349  C     0.37666   0.84904   0.22033   0.00000  Uiso   1.00
C1350  C     0.22724   0.52503   0.91835   0.00000  Uiso   1.00
C1351  C     0.12383   0.65118   0.78036   0.00000  Uiso   1.00
C1352  C     0.36107   0.61218   0.28581   0.00000  Uiso   1.00
C1353  C     0.14326   0.88357   0.71490   0.00000  Uiso   1.00
C1354  C     0.13408   0.66196   0.25873   0.00000  Uiso   1.00
C1355  C     0.37354   0.84617   0.77697   0.00000  Uiso   1.00
C1356  C     0.14186   0.88515   0.28513   0.00000  Uiso   1.00
C1357  C     0.35683   0.61622   0.71506   0.00000  Uiso   1.00
C1358  C     0.01855   0.72201   0.45883   0.00000  Uiso   1.00
C1359  C     0.48227   0.77860   0.54122   0.00000  Uiso   1.00
C1360  C     0.27922   0.98284   0.45893   0.00000  Uiso   1.00
H1361  H     0.04958   0.67154   0.46513   0.00000  Uiso   1.00
H1362  H     0.19207   0.57286   0.03494   0.00000  Uiso   1.00
H1363  H     0.45966   0.65163   0.61295   0.00000  Uiso   1.00
H1364  H     0.41100   0.65368   0.60509   0.00000  Uiso   1.00
H1365  H     0.04870   0.84599   0.31637   0.00000  Uiso   1.00
H1366  H     0.07146   0.88565   0.33563   0.00000  Uiso   1.00
H1367  H     0.03942   0.85091   0.38690   0.00000  Uiso   1.00
H1368  H     0.06545   0.81040   0.37496   0.00000  Uiso   1.00
H1369  H     0.08816   0.85019   0.39476   0.00000  Uiso   1.00
H1370  H     0.29352   0.83256   0.76519   0.00000  Uiso   1.00
H1371  H     0.27047   0.87596   0.77154   0.00000  Uiso   1.00
H1372  H     0.25343   0.85951   0.83848   0.00000  Uiso   1.00
H1373  H     0.08183   0.70692   0.96498   0.00000  Uiso   1.00
H1374  H     0.23829   0.82517   0.80450   0.00000  Uiso   1.00
H1375  H     0.27807   0.81687   0.83416   0.00000  Uiso   1.00
H1376  H     0.19294   0.61149   0.32379   0.00000  Uiso   1.00
H1377  H     0.18352   0.65800   0.33148   0.00000  Uiso   1.00
H1378  H     0.24427   0.64301   0.35616   0.00000  Uiso   1.00
H1379  H     0.25814   0.62628   0.30902   0.00000  Uiso   1.00
H1380  H     0.24817   0.67430   0.31593   0.00000  Uiso   1.00
H1381  H     0.07337   0.88410   0.66241   0.00000  Uiso   1.00
H1382  H     0.04958   0.84610   0.68361   0.00000  Uiso   1.00
H1383  H     0.06576   0.80718   0.62668   0.00000  Uiso   1.00
H1384  H     0.41859   0.79496   0.03469   0.00000  Uiso   1.00
H1385  H     0.04039   0.84752   0.61307   0.00000  Uiso   1.00
H1386  H     0.08905   0.84552   0.60490   0.00000  Uiso   1.00
H1387  H     0.45718   0.64757   0.30973   0.00000  Uiso   1.00
H1388  H     0.43553   0.60714   0.32869   0.00000  Uiso   1.00
H1389  H     0.42561   0.63968   0.39191   0.00000  Uiso   1.00
H1390  H     0.47322   0.63758   0.37835   0.00000  Uiso   1.00
H1391  H     0.44800   0.67969   0.37237   0.00000  Uiso   1.00
H1392  H     0.21124   0.65082   0.77734   0.00000  Uiso   1.00
H1393  H     0.22600   0.60694   0.79571   0.00000  Uiso   1.00
H1394  H     0.21191   0.67538   0.84548   0.00000  Uiso   1.00
H1395  H     0.19148   0.57248   0.96613   0.00000  Uiso   1.00
H1396  H     0.22850   0.63162   0.86227   0.00000  Uiso   1.00
H1397  H     0.25590   0.65871   0.82957   0.00000  Uiso   1.00
H1398  H     0.27445   0.88289   0.21387   0.00000  Uiso   1.00
H1399  H     0.29472   0.83800   0.21887   0.00000  Uiso   1.00
H1400  H     0.28888   0.82862   0.14729   0.00000  Uiso   1.00
H1401  H     0.24546   0.83743   0.17051   0.00000  Uiso   1.00
H1402  H     0.26773   0.87316   0.14321   0.00000  Uiso   1.00
H1403  H     0.33269   0.79110   0.19111   0.00000  Uiso   1.00
H1404  H     0.36099   0.78618   0.23350   0.00000  Uiso   1.00
H1405  H     0.41022   0.75856   0.19109   0.00000  Uiso   1.00
H1406  H     0.30852   0.92818   0.03379   0.00000  Uiso   1.00
H1407  H     0.36832   0.73259   0.19237   0.00000  Uiso   1.00
H1408  H     0.37876   0.76037   0.15065   0.00000  Uiso   1.00
H1409  H     0.12900   0.72231   0.77638   0.00000  Uiso   1.00
H1410  H     0.17061   0.70039   0.79248   0.00000  Uiso   1.00
H1411  H     0.15613   0.71876   0.86072   0.00000  Uiso   1.00
H1412  H     0.15996   0.75748   0.82846   0.00000  Uiso   1.00
H1413  H     0.11548   0.74155   0.84351   0.00000  Uiso   1.00
H1414  H     0.38077   0.59205   0.36378   0.00000  Uiso   1.00
H1415  H     0.38444   0.56141   0.32259   0.00000  Uiso   1.00
H1416  H     0.32038   0.56513   0.38043   0.00000  Uiso   1.00
H1417  H     0.41833   0.79461   0.96581   0.00000  Uiso   1.00
H1418  H     0.32446   0.53439   0.33938   0.00000  Uiso   1.00
H1419  H     0.35637   0.53126   0.37909   0.00000  Uiso   1.00
H1420  H     0.12242   0.92623   0.66621   0.00000  Uiso   1.00
H1421  H     0.13372   0.89030   0.63185   0.00000  Uiso   1.00
H1422  H     0.15674   0.94941   0.60933   0.00000  Uiso   1.00
H1423  H     0.18163   0.95562   0.65393   0.00000  Uiso   1.00
H1424  H     0.19448   0.91939   0.62065   0.00000  Uiso   1.00
H1425  H     0.18544   0.70967   0.29539   0.00000  Uiso   1.00
H1426  H     0.14146   0.69856   0.31822   0.00000  Uiso   1.00
H1427  H     0.11813   0.75645   0.30633   0.00000  Uiso   1.00
H1428  H     0.08204   0.70718   0.03367   0.00000  Uiso   1.00
H1429  H     0.16444   0.76558   0.31940   0.00000  Uiso   1.00
H1430  H     0.15147   0.76707   0.26885   0.00000  Uiso   1.00
H1431  H     0.35761   0.78528   0.75696   0.00000  Uiso   1.00
H1432  H     0.32822   0.78555   0.79895   0.00000  Uiso   1.00
H1433  H     0.36502   0.72853   0.79216   0.00000  Uiso   1.00
H1434  H     0.40639   0.75490   0.79704   0.00000  Uiso   1.00
H1435  H     0.37440   0.75264   0.83705   0.00000  Uiso   1.00
H1436  H     0.12556   0.90530   0.36523   0.00000  Uiso   1.00
H1437  H     0.11795   0.93447   0.32364   0.00000  Uiso   1.00
H1438  H     0.18689   0.93482   0.37458   0.00000  Uiso   1.00
H1439  H     0.17934   0.86383   0.16503   0.00000  Uiso   1.00
H1440  H     0.17618   0.96544   0.33487   0.00000  Uiso   1.00
H1441  H     0.14882   0.96606   0.37845   0.00000  Uiso   1.00
H1442  H     0.37820   0.57301   0.66682   0.00000  Uiso   1.00
H1443  H     0.36686   0.60816   0.63195   0.00000  Uiso   1.00
H1444  H     0.34415   0.54861   0.61026   0.00000  Uiso   1.00
H1445  H     0.31930   0.54294   0.65503   0.00000  Uiso   1.00
H1446  H     0.30617   0.57851   0.62139   0.00000  Uiso   1.00
H1447  H     0.46928   0.83155   0.40427   0.00000  Uiso   1.00
H1448  H     0.40944   0.80327   0.42130   0.00000  Uiso   1.00
H1449  H     0.41734   0.77200   0.38147   0.00000  Uiso   1.00
H1450  H     0.20181   0.90387   0.18373   0.00000  Uiso   1.00
H1451  H     0.41215   0.82016   0.37226   0.00000  Uiso   1.00
H1452  H     0.03005   0.66825   0.59557   0.00000  Uiso   1.00
H1453  H     0.09040   0.69589   0.57951   0.00000  Uiso   1.00
H1454  H     0.08690   0.67904   0.62850   0.00000  Uiso   1.00
H1455  H     0.08235   0.72726   0.61918   0.00000  Uiso   1.00
H1456  H     0.16689   0.52481   0.40422   0.00000  Uiso   1.00
H1457  H     0.19441   0.58567   0.42510   0.00000  Uiso   1.00
H1458  H     0.17155   0.58427   0.37906   0.00000  Uiso   1.00
H1459  H     0.22085   0.58169   0.38106   0.00000  Uiso   1.00
H1460  H     0.33396   0.97598   0.59588   0.00000  Uiso   1.00
H1461  H     0.18510   0.93861   0.12463   0.00000  Uiso   1.00
H1462  H     0.31068   0.91335   0.58067   0.00000  Uiso   1.00
H1463  H     0.27917   0.91974   0.62047   0.00000  Uiso   1.00
H1464  H     0.32754   0.91884   0.62950   0.00000  Uiso   1.00
H1465  H     0.03164   0.66885   0.40310   0.00000  Uiso   1.00
H1466  H     0.09128   0.69764   0.42028   0.00000  Uiso   1.00
H1467  H     0.08298   0.72920   0.38108   0.00000  Uiso   1.00
H1468  H     0.08864   0.68118   0.37094   0.00000  Uiso   1.00
H1469  H     0.47113   0.83229   0.59671   0.00000  Uiso   1.00
H1470  H     0.41037   0.80554   0.58055   0.00000  Uiso   1.00
H1471  H     0.41419   0.82187   0.62985   0.00000  Uiso   1.00
H1472  H     0.45165   0.82932   0.53489   0.00000  Uiso   1.00
H1473  H     0.21112   0.89799   0.11314   0.00000  Uiso   1.00
H1474  H     0.41812   0.77369   0.61957   0.00000  Uiso   1.00
H1475  H     0.33280   0.97253   0.40321   0.00000  Uiso   1.00
H1476  H     0.30672   0.91165   0.42051   0.00000  Uiso   1.00
H1477  H     0.32358   0.91478   0.37142   0.00000  Uiso   1.00
H1478  H     0.27534   0.91823   0.38077   0.00000  Uiso   1.00
H1479  H     0.16669   0.52405   0.59689   0.00000  Uiso   1.00
H1480  H     0.19078   0.58591   0.57961   0.00000  Uiso   1.00
H1481  H     0.22221   0.58036   0.61946   0.00000  Uiso   1.00
H1482  H     0.17385   0.58219   0.62860   0.00000  Uiso   1.00
H1483  H     0.20906   0.57715   0.90391   0.00000  Uiso   1.00
H1484  H     0.16238   0.89859   0.10538   0.00000  Uiso   1.00
H1485  H     0.15306   0.54199   0.92181   0.00000  Uiso   1.00
H1486  H     0.16451   0.51141   0.88235   0.00000  Uiso   1.00
H1487  H     0.15350   0.55849   0.87252   0.00000  Uiso   1.00
H1488  H     0.28878   0.92217   0.09536   0.00000  Uiso   1.00
H1489  H     0.34622   0.95551   0.07968   0.00000  Uiso   1.00
H1490  H     0.34400   0.93906   0.12891   0.00000  Uiso   1.00
H1491  H     0.33473   0.98645   0.11873   0.00000  Uiso   1.00
H1492  H     0.41622   0.77435   0.90404   0.00000  Uiso   1.00
H1493  H     0.43967   0.83688   0.91939   0.00000  Uiso   1.00
H1494  H     0.42296   0.83151   0.87048   0.00000  Uiso   1.00
H1495  H     0.29909   0.59719   0.81560   0.00000  Uiso   1.00
H1496  H     0.47130   0.83042   0.87972   0.00000  Uiso   1.00
H1497  H     0.08298   0.72468   0.09577   0.00000  Uiso   1.00
H1498  H     0.05523   0.66384   0.07517   0.00000  Uiso   1.00
H1499  H     0.02885   0.66805   0.11921   0.00000  Uiso   1.00
H1500  H     0.07811   0.66533   0.12122   0.00000  Uiso   1.00
H1501  H     0.32420   0.95225   0.90795   0.00000  Uiso   1.00
H1502  H     0.27387   0.90302   0.90926   0.00000  Uiso   1.00
H1503  H     0.30520   0.90341   0.86889   0.00000  Uiso   1.00
H1504  H     0.26073   0.92365   0.86348   0.00000  Uiso   1.00
H1505  H     0.21071   0.57790   0.09696   0.00000  Uiso   1.00
H1506  H     0.32282   0.63520   0.83703   0.00000  Uiso   1.00
H1507  H     0.15397   0.54352   0.07958   0.00000  Uiso   1.00
H1508  H     0.15501   0.56030   0.12884   0.00000  Uiso   1.00
H1509  H     0.16514   0.51298   0.11882   0.00000  Uiso   1.00
H1510  H     0.08295   0.72442   0.90319   0.00000  Uiso   1.00
H1511  H     0.05778   0.66310   0.92069   0.00000  Uiso   1.00
H1512  H     0.07483   0.66633   0.87171   0.00000  Uiso   1.00
H1513  H     0.02649   0.66902   0.88076   0.00000  Uiso   1.00
H1514  H     0.41708   0.77660   0.09632   0.00000  Uiso   1.00
H1515  H     0.44264   0.83792   0.07984   0.00000  Uiso   1.00
H1516  H     0.47378   0.83136   0.11978   0.00000  Uiso   1.00
H1517  H     0.33717   0.59731   0.89487   0.00000  Uiso   1.00
H1518  H     0.42543   0.83424   0.12873   0.00000  Uiso   1.00
H1519  H     0.28865   0.59891   0.88577   0.00000  Uiso   1.00
H1520  H     0.31454   0.55862   0.87279   0.00000  Uiso   1.00
H1521  H     0.06828   0.59207   0.16947   0.00000  Uiso   1.00
H1522  H     0.05621   0.63806   0.17655   0.00000  Uiso   1.00
H1523  H     0.49206   0.61979   0.19139   0.00000  Uiso   1.00
H1524  H     0.33154   0.95513   0.46523   0.00000  Uiso   1.00
H1525  H     0.00698   0.60416   0.14400   0.00000  Uiso   1.00
H1526  H     0.00445   0.57241   0.18396   0.00000  Uiso   1.00
H1527  H     0.47847   0.86988   0.72151   0.00000  Uiso   1.00
H1528  H     0.45808   0.91468   0.72730   0.00000  Uiso   1.00
H1529  H     0.46946   0.92695   0.65709   0.00000  Uiso   1.00
H1530  H     0.01098   0.91638   0.68303   0.00000  Uiso   1.00
H1531  H     0.49024   0.88227   0.65205   0.00000  Uiso   1.00
H1532  H     0.32548   0.65018   0.16347   0.00000  Uiso   1.00
H1533  H     0.29579   0.62407   0.19527   0.00000  Uiso   1.00
H1534  H     0.31524   0.60443   0.11080   0.00000  Uiso   1.00
H1535  H     0.16773   0.54204   0.53505   0.00000  Uiso   1.00
H1536  H     0.28586   0.57848   0.14273   0.00000  Uiso   1.00
H1537  H     0.27279   0.62399   0.12793   0.00000  Uiso   1.00
H1538  H     0.20001   0.90511   0.81818   0.00000  Uiso   1.00
H1539  H     0.17624   0.86519   0.83509   0.00000  Uiso   1.00
H1540  H     0.20449   0.89588   0.89005   0.00000  Uiso   1.00
H1541  H     0.18409   0.93919   0.87706   0.00000  Uiso   1.00
H1542  H     0.15581   0.90203   0.89401   0.00000  Uiso   1.00
H1543  H     0.46407   0.89569   0.27588   0.00000  Uiso   1.00
H1544  H     0.47531   0.85268   0.29878   0.00000  Uiso   1.00
H1545  H     0.46494   0.92507   0.34298   0.00000  Uiso   1.00
H1546  H     0.45116   0.82904   0.46609   0.00000  Uiso   1.00
H1547  H     0.48031   0.88195   0.36218   0.00000  Uiso   1.00
H1548  H     0.00799   0.90624   0.32739   0.00000  Uiso   1.00
H1549  H     0.02416   0.63221   0.71621   0.00000  Uiso   1.00
H1550  H     0.04458   0.58730   0.72004   0.00000  Uiso   1.00
H1551  H     0.49399   0.58686   0.67352   0.00000  Uiso   1.00
H1552  H     0.01479   0.62327   0.64606   0.00000  Uiso   1.00
H1553  H     0.03663   0.57894   0.64835   0.00000  Uiso   1.00
H1554  H     0.08167   0.54103   0.68918   0.00000  Uiso   1.00
H1555  H     0.10627   0.53826   0.73433   0.00000  Uiso   1.00
H1556  H     0.12997   0.50761   0.65514   0.00000  Uiso   1.00
H1557  H     0.04929   0.67132   0.53394   0.00000  Uiso   1.00
H1558  H     0.15866   0.50852   0.69787   0.00000  Uiso   1.00
H1559  H     0.11665   0.98282   0.69820   0.00000  Uiso   1.00
H1560  H     0.42447   0.94463   0.29374   0.00000  Uiso   1.00
H1561  H     0.40479   0.96467   0.33620   0.00000  Uiso   1.00
H1562  H     0.40422   0.51007   0.28590   0.00000  Uiso   1.00
H1563  H     0.38428   0.97930   0.25147   0.00000  Uiso   1.00
H1564  H     0.35741   0.99551   0.29244   0.00000  Uiso   1.00
H1565  H     0.11985   0.85213   0.86597   0.00000  Uiso   1.00
H1566  H     0.12727   0.81878   0.82767   0.00000  Uiso   1.00
H1567  H     0.05686   0.82568   0.87608   0.00000  Uiso   1.00
H1568  H     0.16760   0.54198   0.46636   0.00000  Uiso   1.00
H1569  H     0.06883   0.79045   0.84109   0.00000  Uiso   1.00
H1570  H     0.09397   0.79449   0.88584   0.00000  Uiso   1.00
H1571  H     0.39280   0.61758   0.13539   0.00000  Uiso   1.00
H1572  H     0.43035   0.60789   0.16804   0.00000  Uiso   1.00
H1573  H     0.45161   0.63115   0.10439   0.00000  Uiso   1.00
H1574  H     0.42492   0.67237   0.11090   0.00000  Uiso   1.00
H1575  H     0.46267   0.66276   0.14295   0.00000  Uiso   1.00
H1576  H     0.42208   0.96253   0.69881   0.00000  Uiso   1.00
H1577  H     0.39363   0.96390   0.74159   0.00000  Uiso   1.00
H1578  H     0.34481   0.99529   0.70271   0.00000  Uiso   1.00
H1579  H     0.33190   0.95563   0.53415   0.00000  Uiso   1.00
H1580  H     0.38699   0.52057   0.70605   0.00000  Uiso   1.00
H1581  H     0.37576   0.99637   0.66171   0.00000  Uiso   1.00
H1582  H     0.10803   0.54987   0.18345   0.00000  Uiso   1.00
H1583  H     0.06395   0.54041   0.20688   0.00000  Uiso   1.00
H1584  H     0.09733   0.98295   0.23489   0.00000  Uiso   1.00
H1585  H     0.08292   0.98335   0.18474   0.00000  Uiso   1.00
H1586  H     0.12975   0.99179   0.19600   0.00000  Uiso   1.00
H1587  H     0.38298   0.64165   0.86796   0.00000  Uiso   1.00
H1588  H     0.37184   0.67703   0.83327   0.00000  Uiso   1.00
H1589  H     0.44370   0.67106   0.87892   0.00000  Uiso   1.00
H1590  H     0.30931   0.92902   0.96504   0.00000  Uiso   1.00
H1591  H     0.43082   0.70683   0.84542   0.00000  Uiso   1.00
H1592  H     0.40579   0.70106   0.89006   0.00000  Uiso   1.00
H1593  H     0.13223   0.81498   0.17681   0.00000  Uiso   1.00
H1594  H     0.12513   0.84404   0.13505   0.00000  Uiso   1.00
H1595  H     0.10165   0.78331   0.12188   0.00000  Uiso   1.00
H1596  H     0.07389   0.78430   0.16517   0.00000  Uiso   1.00
H1597  H     0.06373   0.81480   0.12520   0.00000  Uiso   1.00
H1598  H     0.42681   0.61544   0.66253   0.00000  Uiso   1.00
H1599  H     0.45053   0.65363   0.68360   0.00000  Uiso   1.00
H1600  H     0.43442   0.69210   0.62675   0.00000  Uiso   1.00
N1601  N     0.46231   0.80518   0.39676   0.00000  Uiso   1.00
N1602  N     0.29321   0.94907   0.10308   0.00000  Uiso   1.00
N1603  N     0.44190   0.78328   0.89635   0.00000  Uiso   1.00
N1604  N     0.05718   0.71565   0.10278   0.00000  Uiso   1.00
N1605  N     0.29820   0.95389   0.89670   0.00000  Uiso   1.00
N1606  N     0.20644   0.55084   0.10390   0.00000  Uiso   1.00
N1607  N     0.05702   0.71592   0.89601   0.00000  Uiso   1.00
N1608  N     0.44301   0.78482   0.10385   0.00000  Uiso   1.00
N1609  N     0.03720   0.69453   0.60330   0.00000  Uiso   1.00
N1610  N     0.19267   0.53397   0.39728   0.00000  Uiso   1.00
N1611  N     0.30833   0.96697   0.60365   0.00000  Uiso   1.00
N1612  N     0.03836   0.69538   0.39608   0.00000  Uiso   1.00
N1613  N     0.46364   0.80603   0.60401   0.00000  Uiso   1.00
N1614  N     0.30670   0.96456   0.39606   0.00000  Uiso   1.00
N1615  N     0.19248   0.53300   0.60404   0.00000  Uiso   1.00
N1616  N     0.20520   0.55001   0.89689   0.00000  Uiso   1.00
O1617  O     0.25000   0.50000   0.25000   0.00000  Uiso   1.00
O1618  O     0.25000   0.96963   0.66245   0.00000  Uiso   1.00
O1619  O     0.46964   0.75000   0.33755   0.00000  Uiso   1.00
O1620  O     0.03037   0.75000   0.66245   0.00000  Uiso   1.00
O1621  O     0.00000   0.71963   0.83755   0.00000  Uiso   1.00
O1622  O     0.00000   0.78036   0.16245   0.00000  Uiso   1.00
O1623  O     0.28037   0.50000   0.83755   0.00000  Uiso   1.00
O1624  O     0.21964   0.50000   0.16245   0.00000  Uiso   1.00
O1625  O     0.00000   0.78036   0.83755   0.00000  Uiso   1.00
O1626  O     0.00000   0.71963   0.16245   0.00000  Uiso   1.00
O1627  O     0.21964   0.50000   0.83755   0.00000  Uiso   1.00
O1628  O     0.25000   0.50000   0.75000   0.00000  Uiso   1.00
O1629  O     0.28037   0.50000   0.16245   0.00000  Uiso   1.00
O1630  O     0.20725   0.57307   0.27302   0.00000  Uiso   1.00
O1631  O     0.29276   0.92692   0.72698   0.00000  Uiso   1.00
O1632  O     0.42693   0.70724   0.27302   0.00000  Uiso   1.00
O1633  O     0.07308   0.79275   0.72698   0.00000  Uiso   1.00
O1634  O     0.29276   0.92692   0.27302   0.00000  Uiso   1.00
O1635  O     0.20725   0.57307   0.72698   0.00000  Uiso   1.00
O1636  O     0.07308   0.79275   0.27302   0.00000  Uiso   1.00
O1637  O     0.42693   0.70724   0.72698   0.00000  Uiso   1.00
O1638  O     0.20725   0.92692   0.72698   0.00000  Uiso   1.00
O1639  O     0.00000   0.75000   0.25000   0.00000  Uiso   1.00
O1640  O     0.29276   0.57307   0.27302   0.00000  Uiso   1.00
O1641  O     0.42693   0.79275   0.72698   0.00000  Uiso   1.00
O1642  O     0.07308   0.70724   0.27302   0.00000  Uiso   1.00
O1643  O     0.29276   0.57307   0.72698   0.00000  Uiso   1.00
O1644  O     0.20725   0.92692   0.27302   0.00000  Uiso   1.00
O1645  O     0.07308   0.70724   0.72698   0.00000  Uiso   1.00
O1646  O     0.42693   0.79275   0.27302   0.00000  Uiso   1.00
O1647  O     0.45725   0.82307   0.77302   0.00000  Uiso   1.00
O1648  O     0.04276   0.67692   0.22698   0.00000  Uiso   1.00
O1649  O     0.17693   0.95724   0.77302   0.00000  Uiso   1.00
O1650  O     0.00000   0.75000   0.75000   0.00000  Uiso   1.00
O1651  O     0.32308   0.54275   0.22698   0.00000  Uiso   1.00
O1652  O     0.04276   0.67692   0.77302   0.00000  Uiso   1.00
O1653  O     0.45725   0.82307   0.22698   0.00000  Uiso   1.00
O1654  O     0.32308   0.54275   0.77302   0.00000  Uiso   1.00
O1655  O     0.17693   0.95724   0.22698   0.00000  Uiso   1.00
O1656  O     0.45725   0.67692   0.22698   0.00000  Uiso   1.00
O1657  O     0.04276   0.82307   0.77302   0.00000  Uiso   1.00
O1658  O     0.17693   0.54275   0.22698   0.00000  Uiso   1.00
O1659  O     0.32308   0.95724   0.77302   0.00000  Uiso   1.00
O1660  O     0.04276   0.82307   0.22698   0.00000  Uiso   1.00
O1661  O     0.25000   0.96963   0.33755   0.00000  Uiso   1.00
O1662  O     0.45725   0.67692   0.77302   0.00000  Uiso   1.00
O1663  O     0.32308   0.95724   0.22698   0.00000  Uiso   1.00
O1664  O     0.17693   0.54275   0.77302   0.00000  Uiso   1.00
O1665  O     0.14486   0.90779   0.17973   0.00000  Uiso   1.00
O1666  O     0.35594   0.59100   0.81994   0.00000  Uiso   1.00
O1667  O     0.05438   0.60600   0.22720   0.00000  Uiso   1.00
O1668  O     0.42915   0.87663   0.69278   0.00000  Uiso   1.00
O1669  O     0.34564   0.59943   0.18043   0.00000  Uiso   1.00
O1670  O     0.14306   0.90990   0.81965   0.00000  Uiso   1.00
O1671  O     0.42393   0.87254   0.31300   0.00000  Uiso   1.00
O1672  O     0.25000   0.53036   0.66245   0.00000  Uiso   1.00
O1673  O     0.07479   0.62712   0.68936   0.00000  Uiso   1.00
O1674  O     0.12781   0.57340   0.69052   0.00000  Uiso   1.00
O1675  O     0.37123   0.92723   0.30999   0.00000  Uiso   1.00
O1676  O     0.08690   0.85969   0.81824   0.00000  Uiso   1.00
O1677  O     0.39923   0.65524   0.18014   0.00000  Uiso   1.00
O1678  O     0.37602   0.93029   0.69448   0.00000  Uiso   1.00
O1679  O     0.10626   0.55116   0.24459   0.00000  Uiso   1.00
O1680  O     0.41399   0.63971   0.81796   0.00000  Uiso   1.00
O1681  O     0.09051   0.85563   0.18068   0.00000  Uiso   1.00
O1682  O     0.39359   0.65942   0.68014   0.00000  Uiso   1.00
O1683  O     0.03037   0.75000   0.33755   0.00000  Uiso   1.00
O1684  O     0.10563   0.84175   0.32017   0.00000  Uiso   1.00
O1685  O     0.31796   0.87039   0.80382   0.00000  Uiso   1.00
O1686  O     0.19578   0.64401   0.27343   0.00000  Uiso   1.00
O1687  O     0.10649   0.84022   0.67994   0.00000  Uiso   1.00
O1688  O     0.40111   0.65248   0.32071   0.00000  Uiso   1.00
O1689  O     0.17371   0.62170   0.81273   0.00000  Uiso   1.00
O1690  O     0.32579   0.87759   0.18877   0.00000  Uiso   1.00
O1691  O     0.37867   0.82382   0.19028   0.00000  Uiso   1.00
O1692  O     0.12177   0.67597   0.81070   0.00000  Uiso   1.00
O1693  O     0.34381   0.60283   0.32021   0.00000  Uiso   1.00
O1694  O     0.46964   0.75000   0.66245   0.00000  Uiso   1.00
O1695  O     0.16442   0.88910   0.68196   0.00000  Uiso   1.00
O1696  O     0.14373   0.69882   0.25701   0.00000  Uiso   1.00
O1697  O     0.37327   0.81899   0.80481   0.00000  Uiso   1.00
O1698  O     0.15984   0.89404   0.31923   0.00000  Uiso   1.00
O1699  O     0.33598   0.61031   0.68203   0.00000  Uiso   1.00
O1700  O     0.25000   0.53036   0.33755   0.00000  Uiso   1.00
Zn1701 Zn    0.20660   0.50000   0.21735   0.00000  Uiso   1.00
Zn1702 Zn    0.04341   0.75000   0.28265   0.00000  Uiso   1.00
Zn1703 Zn    0.25000   0.95659   0.71735   0.00000  Uiso   1.00
Zn1704 Zn    0.25000   0.54340   0.28265   0.00000  Uiso   1.00
Zn1705 Zn    0.04341   0.75000   0.71735   0.00000  Uiso   1.00
Zn1706 Zn    0.45660   0.75000   0.28265   0.00000  Uiso   1.00
Zn1707 Zn    0.25000   0.54340   0.71735   0.00000  Uiso   1.00
Zn1708 Zn    0.25000   0.95659   0.28265   0.00000  Uiso   1.00
Zn1709 Zn    0.29341   0.50000   0.78265   0.00000  Uiso   1.00
Zn1710 Zn    0.00000   0.70659   0.21735   0.00000  Uiso   1.00
Zn1711 Zn    0.00000   0.79340   0.78265   0.00000  Uiso   1.00
Zn1712 Zn    0.29341   0.50000   0.21735   0.00000  Uiso   1.00
Zn1713 Zn    0.20660   0.50000   0.78265   0.00000  Uiso   1.00
Zn1714 Zn    0.00000   0.79340   0.21735   0.00000  Uiso   1.00
Zn1715 Zn    0.00000   0.70659   0.78265   0.00000  Uiso   1.00
Zn1716 Zn    0.45660   0.75000   0.71735   0.00000  Uiso   1.00
C1717  C     0.98090   0.77760   0.41828   0.00000  Uiso   1.00
C1718  C     0.77222   0.97500   0.08168   0.00000  Uiso   1.00
C1719  C     0.72051   0.51524   0.54135   0.00000  Uiso   1.00
C1720  C     0.98196   0.77841   0.45917   0.00000  Uiso   1.00
C1721  C     0.51839   0.72188   0.54088   0.00000  Uiso   1.00
C1722  C     0.72049   0.51532   0.45937   0.00000  Uiso   1.00
C1723  C     0.77952   0.98316   0.54105   0.00000  Uiso   1.00
C1724  C     0.77258   0.97556   0.95890   0.00000  Uiso   1.00
C1725  C     0.72878   0.52634   0.04123   0.00000  Uiso   1.00
C1726  C     0.52930   0.73423   0.95866   0.00000  Uiso   1.00
C1727  C     0.97080   0.76702   0.04104   0.00000  Uiso   1.00
C1728  C     0.72845   0.52619   0.95922   0.00000  Uiso   1.00
C1729  C     0.97101   0.76736   0.91802   0.00000  Uiso   1.00
C1730  C     0.77180   0.97467   0.04082   0.00000  Uiso   1.00
C1731  C     0.97057   0.76682   0.95894   0.00000  Uiso   1.00
C1732  C     0.52938   0.73425   0.04064   0.00000  Uiso   1.00
C1733  C     0.59780   0.84837   0.25011   0.00000  Uiso   1.00
C1734  C     0.90259   0.65120   0.74981   0.00000  Uiso   1.00
C1735  C     0.65162   0.59797   0.25246   0.00000  Uiso   1.00
C1736  C     0.84759   0.90144   0.74992   0.00000  Uiso   1.00
C1737  C     0.90227   0.65151   0.24991   0.00000  Uiso   1.00
C1738  C     0.59734   0.84885   0.74963   0.00000  Uiso   1.00
C1739  C     0.84827   0.90213   0.24998   0.00000  Uiso   1.00
C1740  C     0.52862   0.73290   0.08151   0.00000  Uiso   1.00
C1741  C     0.65219   0.59825   0.75032   0.00000  Uiso   1.00
C1742  C     0.59813   0.65202   0.75007   0.00000  Uiso   1.00
C1743  C     0.90242   0.84848   0.25055   0.00000  Uiso   1.00
C1744  C     0.65246   0.90129   0.75000   0.00000  Uiso   1.00
C1745  C     0.84805   0.59820   0.25038   0.00000  Uiso   1.00
C1746  C     0.90221   0.84828   0.74987   0.00000  Uiso   1.00
C1747  C     0.59847   0.65202   0.24793   0.00000  Uiso   1.00
C1748  C     0.84740   0.59882   0.75016   0.00000  Uiso   1.00
C1749  C     0.65233   0.90151   0.24985   0.00000  Uiso   1.00
C1750  C     0.50026   0.75021   0.47947   0.00000  Uiso   1.00
C1751  C     0.77336   0.97635   0.91810   0.00000  Uiso   1.00
C1752  C     0.50030   0.75023   0.52058   0.00000  Uiso   1.00
C1753  C     0.74991   0.99910   0.47962   0.00000  Uiso   1.00
C1754  C     0.74997   0.99913   0.52073   0.00000  Uiso   1.00
C1755  C     0.75044   0.50078   0.97951   0.00000  Uiso   1.00
C1756  C     0.75037   0.50062   0.02059   0.00000  Uiso   1.00
C1757  C     0.50000   0.75062   0.97927   0.00000  Uiso   1.00
C1758  C     0.50006   0.75064   0.02037   0.00000  Uiso   1.00
C1759  C     0.67865   0.89424   0.16569   0.00000  Uiso   1.00
C1760  C     0.68467   0.90823   0.12463   0.00000  Uiso   1.00
C1761  C     0.82241   0.60488   0.83445   0.00000  Uiso   1.00
C1762  C     0.72796   0.52545   0.08208   0.00000  Uiso   1.00
C1763  C     0.81528   0.58893   0.87448   0.00000  Uiso   1.00
C1764  C     0.55000   0.61007   0.18647   0.00000  Uiso   1.00
C1765  C     0.51087   0.60103   0.17576   0.00000  Uiso   1.00
C1766  C     0.96229   0.89139   0.70675   0.00000  Uiso   1.00
C1767  C     0.98463   0.90512   0.67255   0.00000  Uiso   1.00
C1768  C     0.81582   0.62221   0.17093   0.00000  Uiso   1.00
C1769  C     0.79622   0.60625   0.13587   0.00000  Uiso   1.00
C1770  C     0.67596   0.89564   0.83501   0.00000  Uiso   1.00
C1771  C     0.68034   0.90905   0.87662   0.00000  Uiso   1.00
C1772  C     0.96084   0.87913   0.30283   0.00000  Uiso   1.00
C1773  C     0.52855   0.73307   0.91782   0.00000  Uiso   1.00
C1774  C     0.97962   0.89935   0.33591   0.00000  Uiso   1.00
C1775  C     0.54113   0.61155   0.70083   0.00000  Uiso   1.00
C1776  C     0.52036   0.59938   0.66489   0.00000  Uiso   1.00
C1777  C     0.60935   0.54125   0.70221   0.00000  Uiso   1.00
C1778  C     0.63003   0.50799   0.68735   0.00000  Uiso   1.00
C1779  C     0.89842   0.95457   0.30654   0.00000  Uiso   1.00
C1780  C     0.88499   0.98686   0.28265   0.00000  Uiso   1.00
C1781  C     0.60634   0.83581   0.84296   0.00000  Uiso   1.00
C1782  C     0.57972   0.81005   0.86276   0.00000  Uiso   1.00
C1783  C     0.91455   0.63001   0.15348   0.00000  Uiso   1.00
C1784  C     0.97145   0.76773   0.08197   0.00000  Uiso   1.00
C1785  C     0.94003   0.65038   0.12621   0.00000  Uiso   1.00
C1786  C     0.89340   0.96196   0.70921   0.00000  Uiso   1.00
C1787  C     0.87398   0.99566   0.69388   0.00000  Uiso   1.00
C1788  C     0.59398   0.53707   0.20869   0.00000  Uiso   1.00
C1789  C     0.60148   0.99622   0.20626   0.00000  Uiso   1.00
C1790  C     0.89441   0.66041   0.84583   0.00000  Uiso   1.00
C1791  C     0.92039   0.68642   0.86637   0.00000  Uiso   1.00
C1792  C     0.61125   0.82977   0.15931   0.00000  Uiso   1.00
C1793  C     0.58591   0.80131   0.14181   0.00000  Uiso   1.00
C1794  C     0.92701   0.64577   0.66511   0.00000  Uiso   1.00
C1795  C     0.50002   0.75007   0.39812   0.00000  Uiso   1.00
C1796  C     0.93340   0.66180   0.62497   0.00000  Uiso   1.00
C1797  C     0.57195   0.85525   0.33451   0.00000  Uiso   1.00
C1798  C     0.56589   0.84077   0.37535   0.00000  Uiso   1.00
C1799  C     0.78668   0.85460   0.78651   0.00000  Uiso   1.00
C1800  C     0.76267   0.83801   0.81792   0.00000  Uiso   1.00
C1801  C     0.70056   0.63920   0.31404   0.00000  Uiso   1.00
C1802  C     0.74030   0.64612   0.32441   0.00000  Uiso   1.00
C1803  C     0.57311   0.85379   0.66502   0.00000  Uiso   1.00
C1804  C     0.56671   0.83748   0.62491   0.00000  Uiso   1.00
C1805  C     0.93572   0.63758   0.32986   0.00000  Uiso   1.00
C1806  C     0.50017   0.75012   0.60191   0.00000  Uiso   1.00
C1807  C     0.94626   0.64939   0.37071   0.00000  Uiso   1.00
C1808  C     0.70978   0.63182   0.80260   0.00000  Uiso   1.00
C1809  C     0.72761   0.65056   0.83718   0.00000  Uiso   1.00
C1810  C     0.79185   0.86206   0.19928   0.00000  Uiso   1.00
C1811  C     0.77226   0.84953   0.16274   0.00000  Uiso   1.00
C1812  C     0.86135   0.79087   0.20149   0.00000  Uiso   1.00
C1813  C     0.88096   0.75861   0.18269   0.00000  Uiso   1.00
C1814  C     0.64208   0.70741   0.80078   0.00000  Uiso   1.00
C1815  C     0.64352   0.73291   0.83562   0.00000  Uiso   1.00
C1816  C     0.86507   0.57734   0.34108   0.00000  Uiso   1.00
C1817  C     0.75005   0.99987   0.39822   0.00000  Uiso   1.00
C1818  C     0.83992   0.55037   0.36127   0.00000  Uiso   1.00
C1819  C     0.64504   0.90938   0.65384   0.00000  Uiso   1.00
C1820  C     0.67119   0.93500   0.63311   0.00000  Uiso   1.00
C1821  C     0.65534   0.71233   0.29343   0.00000  Uiso   1.00
C1822  C     0.64680   0.75292   0.29690   0.00000  Uiso   1.00
C1823  C     0.85710   0.78697   0.78935   0.00000  Uiso   1.00
C1824  C     0.87702   0.75368   0.80495   0.00000  Uiso   1.00
C1825  C     0.63915   0.91972   0.34089   0.00000  Uiso   1.00
C1826  C     0.66448   0.94825   0.35826   0.00000  Uiso   1.00
C1827  C     0.85554   0.58950   0.65423   0.00000  Uiso   1.00
C1828  C     0.51907   0.72243   0.58177   0.00000  Uiso   1.00
C1829  C     0.75023   0.99971   0.60201   0.00000  Uiso   1.00
C1830  C     0.82959   0.56330   0.63394   0.00000  Uiso   1.00
C1831  C     0.92334   0.79978   0.39287   0.00000  Uiso   1.00
C1832  C     0.57617   0.69953   0.60773   0.00000  Uiso   1.00
C1833  C     0.69512   0.57342   0.39559   0.00000  Uiso   1.00
C1834  C     0.80622   0.92774   0.60871   0.00000  Uiso   1.00
C1835  C     0.57727   0.70125   0.39202   0.00000  Uiso   1.00
C1836  C     0.92461   0.80145   0.60861   0.00000  Uiso   1.00
C1837  C     0.80279   0.92532   0.39211   0.00000  Uiso   1.00
C1838  C     0.69506   0.57236   0.60801   0.00000  Uiso   1.00
C1839  C     0.66715   0.53987   0.89334   0.00000  Uiso   1.00
C1840  C     0.74989   0.50029   0.89817   0.00000  Uiso   1.00
C1841  C     0.83145   0.95807   0.10771   0.00000  Uiso   1.00
C1842  C     0.94418   0.82251   0.89135   0.00000  Uiso   1.00
C1843  C     0.55458   0.67621   0.10463   0.00000  Uiso   1.00
C1844  C     0.78357   0.91919   0.88404   0.00000  Uiso   1.00
C1845  C     0.66823   0.54133   0.10786   0.00000  Uiso   1.00
C1846  C     0.55377   0.67661   0.89221   0.00000  Uiso   1.00
C1847  C     0.94649   0.82407   0.10815   0.00000  Uiso   1.00
C1848  C     0.75006   0.50015   0.10188   0.00000  Uiso   1.00
C1849  C     0.99980   0.75019   0.89800   0.00000  Uiso   1.00
C1850  C     0.99994   0.75002   0.10178   0.00000  Uiso   1.00
C1851  C     0.53574   0.69389   0.47957   0.00000  Uiso   1.00
C1852  C     0.96521   0.80679   0.52046   0.00000  Uiso   1.00
C1853  C     0.80839   0.96751   0.47969   0.00000  Uiso   1.00
C1854  C     0.69110   0.53005   0.52064   0.00000  Uiso   1.00
C1855  C     0.96496   0.80664   0.48025   0.00000  Uiso   1.00
C1856  C     0.72128   0.51679   0.41851   0.00000  Uiso   1.00
C1857  C     0.53558   0.69378   0.51979   0.00000  Uiso   1.00
C1858  C     0.69106   0.53004   0.48047   0.00000  Uiso   1.00
C1859  C     0.80859   0.96778   0.51995   0.00000  Uiso   1.00
C1860  C     0.79303   0.94964   0.97955   0.00000  Uiso   1.00
C1861  C     0.70832   0.55221   0.02050   0.00000  Uiso   1.00
C1862  C     0.55858   0.71916   0.97938   0.00000  Uiso   1.00
C1863  C     0.94171   0.78249   0.02026   0.00000  Uiso   1.00
C1864  C     0.70803   0.55203   0.98029   0.00000  Uiso   1.00
C1865  C     0.79246   0.94906   0.01971   0.00000  Uiso   1.00
C1866  C     0.94156   0.78231   0.98002   0.00000  Uiso   1.00
C1867  C     0.77914   0.98272   0.58197   0.00000  Uiso   1.00
C1868  C     0.55866   0.71926   0.01955   0.00000  Uiso   1.00
C1869  C     0.75000   0.50002   0.35585   0.00000  Uiso   1.00
C1870  C     0.75018   0.99992   0.64423   0.00000  Uiso   1.00
C1871  C     0.99998   0.75004   0.35579   0.00000  Uiso   1.00
C1872  C     0.50004   0.75001   0.64422   0.00000  Uiso   1.00
C1873  C     0.99984   0.75006   0.85577   0.00000  Uiso   1.00
C1874  C     0.99997   0.74996   0.14415   0.00000  Uiso   1.00
C1875  C     0.74996   0.50028   0.85581   0.00000  Uiso   1.00
C1876  C     0.75002   0.50000   0.14420   0.00000  Uiso   1.00
C1877  C     0.67987   0.56996   0.25065   0.00000  Uiso   1.00
C1878  C     0.51942   0.72272   0.41794   0.00000  Uiso   1.00
C1879  C     0.81974   0.92973   0.75022   0.00000  Uiso   1.00
C1880  C     0.92972   0.68021   0.24953   0.00000  Uiso   1.00
C1881  C     0.57004   0.82003   0.75018   0.00000  Uiso   1.00
C1882  C     0.82003   0.93003   0.24996   0.00000  Uiso   1.00
C1883  C     0.68002   0.56999   0.75006   0.00000  Uiso   1.00
C1884  C     0.57015   0.81987   0.24973   0.00000  Uiso   1.00
C1885  C     0.92995   0.68002   0.75023   0.00000  Uiso   1.00
C1886  C     0.67993   0.92998   0.74976   0.00000  Uiso   1.00
C1887  C     0.82012   0.56995   0.25029   0.00000  Uiso   1.00
C1888  C     0.93019   0.82018   0.74981   0.00000  Uiso   1.00
C1889  C     0.98149   0.77798   0.58212   0.00000  Uiso   1.00
C1890  C     0.57017   0.68005   0.24938   0.00000  Uiso   1.00
C1891  C     0.82006   0.56997   0.74974   0.00000  Uiso   1.00
C1892  C     0.67988   0.93011   0.25025   0.00000  Uiso   1.00
C1893  C     0.57009   0.68010   0.75010   0.00000  Uiso   1.00
C1894  C     0.93013   0.82010   0.25021   0.00000  Uiso   1.00
C1895  C     0.63605   0.89091   0.21449   0.00000  Uiso   1.00
C1896  C     0.86470   0.60828   0.78535   0.00000  Uiso   1.00
C1897  C     0.58964   0.61550   0.23750   0.00000  Uiso   1.00
C1898  C     0.90335   0.87651   0.72222   0.00000  Uiso   1.00
C1899  C     0.86096   0.61168   0.21477   0.00000  Uiso   1.00
C1900  C     0.77852   0.98207   0.41799   0.00000  Uiso   1.00
C1901  C     0.63479   0.89223   0.78508   0.00000  Uiso   1.00
C1902  C     0.90132   0.87476   0.28073   0.00000  Uiso   1.00
C1903  C     0.59916   0.62587   0.72003   0.00000  Uiso   1.00
C1904  C     0.62639   0.59902   0.72016   0.00000  Uiso   1.00
C1905  C     0.87422   0.90201   0.27997   0.00000  Uiso   1.00
C1906  C     0.60677   0.86639   0.78470   0.00000  Uiso   1.00
C1907  C     0.88883   0.63805   0.21434   0.00000  Uiso   1.00
C1908  C     0.87601   0.90328   0.72249   0.00000  Uiso   1.00
C1909  C     0.61596   0.58797   0.24206   0.00000  Uiso   1.00
C1910  C     0.89312   0.63381   0.78492   0.00000  Uiso   1.00
C1911  C     0.72124   0.51640   0.58219   0.00000  Uiso   1.00
C1912  C     0.60836   0.86465   0.21482   0.00000  Uiso   1.00
C1913  C     0.88518   0.64182   0.71464   0.00000  Uiso   1.00
C1914  C     0.61422   0.85884   0.28545   0.00000  Uiso   1.00
C1915  C     0.84578   0.87249   0.77665   0.00000  Uiso   1.00
C1916  C     0.66047   0.63446   0.26314   0.00000  Uiso   1.00
C1917  C     0.61482   0.85804   0.71444   0.00000  Uiso   1.00
C1918  C     0.88914   0.63811   0.28569   0.00000  Uiso   1.00
C1919  C     0.65083   0.62405   0.78078   0.00000  Uiso   1.00
C1920  C     0.84954   0.87597   0.21994   0.00000  Uiso   1.00
C1921  C     0.87666   0.84904   0.22033   0.00000  Uiso   1.00
C1922  C     0.72724   0.52503   0.91835   0.00000  Uiso   1.00
C1923  C     0.62383   0.65118   0.78036   0.00000  Uiso   1.00
C1924  C     0.86107   0.61218   0.28581   0.00000  Uiso   1.00
C1925  C     0.64326   0.88357   0.71490   0.00000  Uiso   1.00
C1926  C     0.63408   0.66196   0.25873   0.00000  Uiso   1.00
C1927  C     0.87354   0.84617   0.77697   0.00000  Uiso   1.00
C1928  C     0.64186   0.88515   0.28513   0.00000  Uiso   1.00
C1929  C     0.85683   0.61622   0.71506   0.00000  Uiso   1.00
C1930  C     0.51855   0.72201   0.45883   0.00000  Uiso   1.00
C1931  C     0.98227   0.77860   0.54122   0.00000  Uiso   1.00
C1932  C     0.77922   0.98284   0.45893   0.00000  Uiso   1.00
H1933  H     0.54958   0.67154   0.46513   0.00000  Uiso   1.00
H1934  H     0.69207   0.57286   0.03494   0.00000  Uiso   1.00
H1935  H     0.95966   0.65163   0.61295   0.00000  Uiso   1.00
H1936  H     0.91100   0.65368   0.60509   0.00000  Uiso   1.00
H1937  H     0.54870   0.84599   0.31637   0.00000  Uiso   1.00
H1938  H     0.57146   0.88565   0.33563   0.00000  Uiso   1.00
H1939  H     0.53942   0.85091   0.38690   0.00000  Uiso   1.00
H1940  H     0.56545   0.81040   0.37496   0.00000  Uiso   1.00
H1941  H     0.58816   0.85019   0.39476   0.00000  Uiso   1.00
H1942  H     0.79352   0.83256   0.76519   0.00000  Uiso   1.00
H1943  H     0.77047   0.87596   0.77154   0.00000  Uiso   1.00
H1944  H     0.75343   0.85951   0.83848   0.00000  Uiso   1.00
H1945  H     0.58183   0.70692   0.96498   0.00000  Uiso   1.00
H1946  H     0.73829   0.82517   0.80450   0.00000  Uiso   1.00
H1947  H     0.77807   0.81687   0.83416   0.00000  Uiso   1.00
H1948  H     0.69294   0.61149   0.32379   0.00000  Uiso   1.00
H1949  H     0.68352   0.65800   0.33148   0.00000  Uiso   1.00
H1950  H     0.74427   0.64301   0.35616   0.00000  Uiso   1.00
H1951  H     0.75814   0.62628   0.30902   0.00000  Uiso   1.00
H1952  H     0.74817   0.67430   0.31593   0.00000  Uiso   1.00
H1953  H     0.57337   0.88410   0.66241   0.00000  Uiso   1.00
H1954  H     0.54958   0.84610   0.68361   0.00000  Uiso   1.00
H1955  H     0.56576   0.80718   0.62668   0.00000  Uiso   1.00
H1956  H     0.91859   0.79496   0.03469   0.00000  Uiso   1.00
H1957  H     0.54039   0.84752   0.61307   0.00000  Uiso   1.00
H1958  H     0.58905   0.84552   0.60490   0.00000  Uiso   1.00
H1959  H     0.95718   0.64757   0.30973   0.00000  Uiso   1.00
H1960  H     0.93553   0.60714   0.32869   0.00000  Uiso   1.00
H1961  H     0.92561   0.63968   0.39191   0.00000  Uiso   1.00
H1962  H     0.97322   0.63758   0.37835   0.00000  Uiso   1.00
H1963  H     0.94800   0.67969   0.37237   0.00000  Uiso   1.00
H1964  H     0.71124   0.65082   0.77734   0.00000  Uiso   1.00
H1965  H     0.72600   0.60694   0.79571   0.00000  Uiso   1.00
H1966  H     0.71191   0.67538   0.84548   0.00000  Uiso   1.00
H1967  H     0.69148   0.57248   0.96613   0.00000  Uiso   1.00
H1968  H     0.72850   0.63162   0.86227   0.00000  Uiso   1.00
H1969  H     0.75590   0.65871   0.82957   0.00000  Uiso   1.00
H1970  H     0.77445   0.88289   0.21387   0.00000  Uiso   1.00
H1971  H     0.79472   0.83800   0.21887   0.00000  Uiso   1.00
H1972  H     0.78888   0.82862   0.14729   0.00000  Uiso   1.00
H1973  H     0.74546   0.83743   0.17051   0.00000  Uiso   1.00
H1974  H     0.76773   0.87316   0.14321   0.00000  Uiso   1.00
H1975  H     0.83269   0.79110   0.19111   0.00000  Uiso   1.00
H1976  H     0.86099   0.78618   0.23350   0.00000  Uiso   1.00
H1977  H     0.91022   0.75856   0.19109   0.00000  Uiso   1.00
H1978  H     0.80852   0.92818   0.03379   0.00000  Uiso   1.00
H1979  H     0.86832   0.73259   0.19237   0.00000  Uiso   1.00
H1980  H     0.87876   0.76037   0.15065   0.00000  Uiso   1.00
H1981  H     0.62900   0.72231   0.77638   0.00000  Uiso   1.00
H1982  H     0.67061   0.70039   0.79248   0.00000  Uiso   1.00
H1983  H     0.65613   0.71876   0.86072   0.00000  Uiso   1.00
H1984  H     0.65996   0.75748   0.82846   0.00000  Uiso   1.00
H1985  H     0.61548   0.74155   0.84351   0.00000  Uiso   1.00
H1986  H     0.88077   0.59205   0.36378   0.00000  Uiso   1.00
H1987  H     0.88444   0.56141   0.32259   0.00000  Uiso   1.00
H1988  H     0.82038   0.56513   0.38043   0.00000  Uiso   1.00
H1989  H     0.91833   0.79461   0.96581   0.00000  Uiso   1.00
H1990  H     0.82446   0.53439   0.33938   0.00000  Uiso   1.00
H1991  H     0.85637   0.53126   0.37909   0.00000  Uiso   1.00
H1992  H     0.62242   0.92623   0.66621   0.00000  Uiso   1.00
H1993  H     0.63372   0.89030   0.63185   0.00000  Uiso   1.00
H1994  H     0.65674   0.94941   0.60933   0.00000  Uiso   1.00
H1995  H     0.68163   0.95562   0.65393   0.00000  Uiso   1.00
H1996  H     0.69448   0.91939   0.62065   0.00000  Uiso   1.00
H1997  H     0.68544   0.70967   0.29539   0.00000  Uiso   1.00
H1998  H     0.64146   0.69856   0.31822   0.00000  Uiso   1.00
H1999  H     0.61813   0.75645   0.30633   0.00000  Uiso   1.00
H2000  H     0.58204   0.70718   0.03367   0.00000  Uiso   1.00
H2001  H     0.66444   0.76558   0.31940   0.00000  Uiso   1.00
H2002  H     0.65147   0.76707   0.26885   0.00000  Uiso   1.00
H2003  H     0.85761   0.78528   0.75696   0.00000  Uiso   1.00
H2004  H     0.82822   0.78555   0.79895   0.00000  Uiso   1.00
H2005  H     0.86502   0.72853   0.79216   0.00000  Uiso   1.00
H2006  H     0.90639   0.75490   0.79704   0.00000  Uiso   1.00
H2007  H     0.87440   0.75264   0.83705   0.00000  Uiso   1.00
H2008  H     0.62556   0.90530   0.36523   0.00000  Uiso   1.00
H2009  H     0.61795   0.93447   0.32364   0.00000  Uiso   1.00
H2010  H     0.68689   0.93482   0.37458   0.00000  Uiso   1.00
H2011  H     0.67934   0.86383   0.16503   0.00000  Uiso   1.00
H2012  H     0.67618   0.96544   0.33487   0.00000  Uiso   1.00
H2013  H     0.64882   0.96606   0.37845   0.00000  Uiso   1.00
H2014  H     0.87820   0.57301   0.66682   0.00000  Uiso   1.00
H2015  H     0.86686   0.60816   0.63195   0.00000  Uiso   1.00
H2016  H     0.84415   0.54861   0.61026   0.00000  Uiso   1.00
H2017  H     0.81930   0.54294   0.65503   0.00000  Uiso   1.00
H2018  H     0.80617   0.57851   0.62139   0.00000  Uiso   1.00
H2019  H     0.96928   0.83155   0.40427   0.00000  Uiso   1.00
H2020  H     0.90944   0.80327   0.42130   0.00000  Uiso   1.00
H2021  H     0.91734   0.77200   0.38147   0.00000  Uiso   1.00
H2022  H     0.70181   0.90387   0.18373   0.00000  Uiso   1.00
H2023  H     0.91215   0.82016   0.37226   0.00000  Uiso   1.00
H2024  H     0.53005   0.66825   0.59557   0.00000  Uiso   1.00
H2025  H     0.59040   0.69589   0.57951   0.00000  Uiso   1.00
H2026  H     0.58690   0.67904   0.62850   0.00000  Uiso   1.00
H2027  H     0.58235   0.72726   0.61918   0.00000  Uiso   1.00
H2028  H     0.66689   0.52481   0.40422   0.00000  Uiso   1.00
H2029  H     0.69441   0.58567   0.42510   0.00000  Uiso   1.00
H2030  H     0.67155   0.58427   0.37906   0.00000  Uiso   1.00
H2031  H     0.72085   0.58169   0.38106   0.00000  Uiso   1.00
H2032  H     0.83396   0.97598   0.59588   0.00000  Uiso   1.00
H2033  H     0.68510   0.93861   0.12463   0.00000  Uiso   1.00
H2034  H     0.81068   0.91335   0.58067   0.00000  Uiso   1.00
H2035  H     0.77917   0.91974   0.62047   0.00000  Uiso   1.00
H2036  H     0.82754   0.91884   0.62950   0.00000  Uiso   1.00
H2037  H     0.53164   0.66885   0.40310   0.00000  Uiso   1.00
H2038  H     0.59128   0.69764   0.42028   0.00000  Uiso   1.00
H2039  H     0.58298   0.72920   0.38108   0.00000  Uiso   1.00
H2040  H     0.58864   0.68118   0.37094   0.00000  Uiso   1.00
H2041  H     0.97113   0.83229   0.59671   0.00000  Uiso   1.00
H2042  H     0.91037   0.80554   0.58055   0.00000  Uiso   1.00
H2043  H     0.91419   0.82187   0.62985   0.00000  Uiso   1.00
H2044  H     0.95165   0.82932   0.53489   0.00000  Uiso   1.00
H2045  H     0.71112   0.89799   0.11314   0.00000  Uiso   1.00
H2046  H     0.91812   0.77369   0.61957   0.00000  Uiso   1.00
H2047  H     0.83280   0.97253   0.40321   0.00000  Uiso   1.00
H2048  H     0.80672   0.91165   0.42051   0.00000  Uiso   1.00
H2049  H     0.82358   0.91478   0.37142   0.00000  Uiso   1.00
H2050  H     0.77534   0.91823   0.38077   0.00000  Uiso   1.00
H2051  H     0.66669   0.52405   0.59689   0.00000  Uiso   1.00
H2052  H     0.69078   0.58591   0.57961   0.00000  Uiso   1.00
H2053  H     0.72221   0.58036   0.61946   0.00000  Uiso   1.00
H2054  H     0.67385   0.58219   0.62860   0.00000  Uiso   1.00
H2055  H     0.70906   0.57715   0.90391   0.00000  Uiso   1.00
H2056  H     0.66238   0.89859   0.10538   0.00000  Uiso   1.00
H2057  H     0.65306   0.54199   0.92181   0.00000  Uiso   1.00
H2058  H     0.66451   0.51141   0.88235   0.00000  Uiso   1.00
H2059  H     0.65350   0.55849   0.87252   0.00000  Uiso   1.00
H2060  H     0.78878   0.92217   0.09536   0.00000  Uiso   1.00
H2061  H     0.84622   0.95551   0.07968   0.00000  Uiso   1.00
H2062  H     0.84400   0.93906   0.12891   0.00000  Uiso   1.00
H2063  H     0.83473   0.98645   0.11873   0.00000  Uiso   1.00
H2064  H     0.91622   0.77435   0.90404   0.00000  Uiso   1.00
H2065  H     0.93967   0.83688   0.91939   0.00000  Uiso   1.00
H2066  H     0.92296   0.83151   0.87048   0.00000  Uiso   1.00
H2067  H     0.79909   0.59719   0.81560   0.00000  Uiso   1.00
H2068  H     0.97130   0.83042   0.87972   0.00000  Uiso   1.00
H2069  H     0.58298   0.72468   0.09577   0.00000  Uiso   1.00
H2070  H     0.55523   0.66384   0.07517   0.00000  Uiso   1.00
H2071  H     0.52885   0.66805   0.11921   0.00000  Uiso   1.00
H2072  H     0.57811   0.66533   0.12122   0.00000  Uiso   1.00
H2073  H     0.82420   0.95225   0.90795   0.00000  Uiso   1.00
H2074  H     0.77387   0.90302   0.90926   0.00000  Uiso   1.00
H2075  H     0.80520   0.90341   0.86889   0.00000  Uiso   1.00
H2076  H     0.76073   0.92365   0.86348   0.00000  Uiso   1.00
H2077  H     0.71071   0.57790   0.09696   0.00000  Uiso   1.00
H2078  H     0.82282   0.63520   0.83703   0.00000  Uiso   1.00
H2079  H     0.65397   0.54352   0.07958   0.00000  Uiso   1.00
H2080  H     0.65501   0.56030   0.12884   0.00000  Uiso   1.00
H2081  H     0.66514   0.51298   0.11882   0.00000  Uiso   1.00
H2082  H     0.58295   0.72442   0.90319   0.00000  Uiso   1.00
H2083  H     0.55778   0.66310   0.92069   0.00000  Uiso   1.00
H2084  H     0.57483   0.66633   0.87171   0.00000  Uiso   1.00
H2085  H     0.52649   0.66902   0.88076   0.00000  Uiso   1.00
H2086  H     0.91708   0.77660   0.09632   0.00000  Uiso   1.00
H2087  H     0.94264   0.83792   0.07984   0.00000  Uiso   1.00
H2088  H     0.97378   0.83136   0.11978   0.00000  Uiso   1.00
H2089  H     0.83717   0.59731   0.89487   0.00000  Uiso   1.00
H2090  H     0.92543   0.83424   0.12873   0.00000  Uiso   1.00
H2091  H     0.78865   0.59891   0.88577   0.00000  Uiso   1.00
H2092  H     0.81454   0.55862   0.87279   0.00000  Uiso   1.00
H2093  H     0.56828   0.59207   0.16947   0.00000  Uiso   1.00
H2094  H     0.55621   0.63806   0.17655   0.00000  Uiso   1.00
H2095  H     0.99206   0.61979   0.19139   0.00000  Uiso   1.00
H2096  H     0.83154   0.95513   0.46523   0.00000  Uiso   1.00
H2097  H     0.50698   0.60416   0.14400   0.00000  Uiso   1.00
H2098  H     0.50445   0.57241   0.18396   0.00000  Uiso   1.00
H2099  H     0.97847   0.86988   0.72151   0.00000  Uiso   1.00
H2100  H     0.95808   0.91468   0.72730   0.00000  Uiso   1.00
H2101  H     0.96946   0.92695   0.65709   0.00000  Uiso   1.00
H2102  H     0.51098   0.91638   0.68303   0.00000  Uiso   1.00
H2103  H     0.99024   0.88227   0.65205   0.00000  Uiso   1.00
H2104  H     0.82548   0.65018   0.16347   0.00000  Uiso   1.00
H2105  H     0.79579   0.62407   0.19527   0.00000  Uiso   1.00
H2106  H     0.81524   0.60443   0.11080   0.00000  Uiso   1.00
H2107  H     0.66773   0.54204   0.53505   0.00000  Uiso   1.00
H2108  H     0.78586   0.57848   0.14273   0.00000  Uiso   1.00
H2109  H     0.77279   0.62399   0.12793   0.00000  Uiso   1.00
H2110  H     0.70001   0.90511   0.81818   0.00000  Uiso   1.00
H2111  H     0.67624   0.86519   0.83509   0.00000  Uiso   1.00
H2112  H     0.70449   0.89588   0.89005   0.00000  Uiso   1.00
H2113  H     0.68409   0.93919   0.87706   0.00000  Uiso   1.00
H2114  H     0.65581   0.90203   0.89401   0.00000  Uiso   1.00
H2115  H     0.96407   0.89569   0.27588   0.00000  Uiso   1.00
H2116  H     0.97531   0.85268   0.29878   0.00000  Uiso   1.00
H2117  H     0.96494   0.92507   0.34298   0.00000  Uiso   1.00
H2118  H     0.95116   0.82904   0.46609   0.00000  Uiso   1.00
H2119  H     0.98031   0.88195   0.36218   0.00000  Uiso   1.00
H2120  H     0.50799   0.90624   0.32739   0.00000  Uiso   1.00
H2121  H     0.52416   0.63221   0.71621   0.00000  Uiso   1.00
H2122  H     0.54458   0.58730   0.72004   0.00000  Uiso   1.00
H2123  H     0.99399   0.58686   0.67352   0.00000  Uiso   1.00
H2124  H     0.51479   0.62327   0.64606   0.00000  Uiso   1.00
H2125  H     0.53663   0.57894   0.64835   0.00000  Uiso   1.00
H2126  H     0.58167   0.54103   0.68918   0.00000  Uiso   1.00
H2127  H     0.60627   0.53826   0.73433   0.00000  Uiso   1.00
H2128  H     0.62997   0.50761   0.65514   0.00000  Uiso   1.00
H2129  H     0.54929   0.67132   0.53394   0.00000  Uiso   1.00
H2130  H     0.65866   0.50852   0.69787   0.00000  Uiso   1.00
H2131  H     0.61665   0.98282   0.69820   0.00000  Uiso   1.00
H2132  H     0.92447   0.94463   0.29374   0.00000  Uiso   1.00
H2133  H     0.90479   0.96467   0.33620   0.00000  Uiso   1.00
H2134  H     0.90422   0.51007   0.28590   0.00000  Uiso   1.00
H2135  H     0.88428   0.97930   0.25147   0.00000  Uiso   1.00
H2136  H     0.85741   0.99551   0.29244   0.00000  Uiso   1.00
H2137  H     0.61985   0.85213   0.86597   0.00000  Uiso   1.00
H2138  H     0.62727   0.81878   0.82767   0.00000  Uiso   1.00
H2139  H     0.55686   0.82568   0.87608   0.00000  Uiso   1.00
H2140  H     0.66760   0.54198   0.46636   0.00000  Uiso   1.00
H2141  H     0.56883   0.79045   0.84109   0.00000  Uiso   1.00
H2142  H     0.59397   0.79449   0.88584   0.00000  Uiso   1.00
H2143  H     0.89280   0.61758   0.13539   0.00000  Uiso   1.00
H2144  H     0.93035   0.60789   0.16804   0.00000  Uiso   1.00
H2145  H     0.95161   0.63115   0.10439   0.00000  Uiso   1.00
H2146  H     0.92492   0.67237   0.11090   0.00000  Uiso   1.00
H2147  H     0.96267   0.66276   0.14295   0.00000  Uiso   1.00
H2148  H     0.92208   0.96253   0.69881   0.00000  Uiso   1.00
H2149  H     0.89363   0.96390   0.74159   0.00000  Uiso   1.00
H2150  H     0.84481   0.99529   0.70271   0.00000  Uiso   1.00
H2151  H     0.83190   0.95563   0.53415   0.00000  Uiso   1.00
H2152  H     0.88699   0.52057   0.70605   0.00000  Uiso   1.00
H2153  H     0.87576   0.99637   0.66171   0.00000  Uiso   1.00
H2154  H     0.60803   0.54987   0.18345   0.00000  Uiso   1.00
H2155  H     0.56395   0.54041   0.20688   0.00000  Uiso   1.00
H2156  H     0.59733   0.98295   0.23489   0.00000  Uiso   1.00
H2157  H     0.58292   0.98335   0.18474   0.00000  Uiso   1.00
H2158  H     0.62975   0.99179   0.19600   0.00000  Uiso   1.00
H2159  H     0.88298   0.64165   0.86796   0.00000  Uiso   1.00
H2160  H     0.87184   0.67703   0.83327   0.00000  Uiso   1.00
H2161  H     0.94370   0.67106   0.87892   0.00000  Uiso   1.00
H2162  H     0.80931   0.92902   0.96504   0.00000  Uiso   1.00
H2163  H     0.93082   0.70683   0.84542   0.00000  Uiso   1.00
H2164  H     0.90579   0.70106   0.89006   0.00000  Uiso   1.00
H2165  H     0.63223   0.81498   0.17681   0.00000  Uiso   1.00
H2166  H     0.62513   0.84404   0.13505   0.00000  Uiso   1.00
H2167  H     0.60165   0.78331   0.12188   0.00000  Uiso   1.00
H2168  H     0.57389   0.78430   0.16517   0.00000  Uiso   1.00
H2169  H     0.56373   0.81480   0.12520   0.00000  Uiso   1.00
H2170  H     0.92681   0.61544   0.66253   0.00000  Uiso   1.00
H2171  H     0.95053   0.65363   0.68360   0.00000  Uiso   1.00
H2172  H     0.93442   0.69210   0.62675   0.00000  Uiso   1.00
N2173  N     0.96231   0.80518   0.39676   0.00000  Uiso   1.00
N2174  N     0.79321   0.94907   0.10308   0.00000  Uiso   1.00
N2175  N     0.94190   0.78328   0.89635   0.00000  Uiso   1.00
N2176  N     0.55718   0.71565   0.10278   0.00000  Uiso   1.00
N2177  N     0.79820   0.95389   0.89670   0.00000  Uiso   1.00
N2178  N     0.70644   0.55084   0.10390   0.00000  Uiso   1.00
N2179  N     0.55702   0.71592   0.89601   0.00000  Uiso   1.00
N2180  N     0.94301   0.78482   0.10385   0.00000  Uiso   1.00
N2181  N     0.53720   0.69453   0.60330   0.00000  Uiso   1.00
N2182  N     0.69267   0.53397   0.39728   0.00000  Uiso   1.00
N2183  N     0.80833   0.96697   0.60365   0.00000  Uiso   1.00
N2184  N     0.53836   0.69538   0.39608   0.00000  Uiso   1.00
N2185  N     0.96364   0.80603   0.60401   0.00000  Uiso   1.00
N2186  N     0.80670   0.96456   0.39606   0.00000  Uiso   1.00
N2187  N     0.69248   0.53300   0.60404   0.00000  Uiso   1.00
N2188  N     0.70520   0.55001   0.89689   0.00000  Uiso   1.00
O2189  O     0.75000   0.50000   0.25000   0.00000  Uiso   1.00
O2190  O     0.75000   0.96963   0.66245   0.00000  Uiso   1.00
O2191  O     0.96964   0.75000   0.33755   0.00000  Uiso   1.00
O2192  O     0.53037   0.75000   0.66245   0.00000  Uiso   1.00
O2193  O     0.50000   0.71963   0.83755   0.00000  Uiso   1.00
O2194  O     0.50000   0.78036   0.16245   0.00000  Uiso   1.00
O2195  O     0.78037   0.50000   0.83755   0.00000  Uiso   1.00
O2196  O     0.71964   0.50000   0.16245   0.00000  Uiso   1.00
O2197  O     0.50000   0.78036   0.83755   0.00000  Uiso   1.00
O2198  O     0.50000   0.71963   0.16245   0.00000  Uiso   1.00
O2199  O     0.71964   0.50000   0.83755   0.00000  Uiso   1.00
O2200  O     0.75000   0.50000   0.75000   0.00000  Uiso   1.00
O2201  O     0.78037   0.50000   0.16245   0.00000  Uiso   1.00
O2202  O     0.70725   0.57307   0.27302   0.00000  Uiso   1.00
O2203  O     0.79276   0.92692   0.72698   0.00000  Uiso   1.00
O2204  O     0.92693   0.70724   0.27302   0.00000  Uiso   1.00
O2205  O     0.57308   0.79275   0.72698   0.00000  Uiso   1.00
O2206  O     0.79276   0.92692   0.27302   0.00000  Uiso   1.00
O2207  O     0.70725   0.57307   0.72698   0.00000  Uiso   1.00
O2208  O     0.57308   0.79275   0.27302   0.00000  Uiso   1.00
O2209  O     0.92693   0.70724   0.72698   0.00000  Uiso   1.00
O2210  O     0.70725   0.92692   0.72698   0.00000  Uiso   1.00
O2211  O     0.50000   0.75000   0.25000   0.00000  Uiso   1.00
O2212  O     0.79276   0.57307   0.27302   0.00000  Uiso   1.00
O2213  O     0.92693   0.79275   0.72698   0.00000  Uiso   1.00
O2214  O     0.57308   0.70724   0.27302   0.00000  Uiso   1.00
O2215  O     0.79276   0.57307   0.72698   0.00000  Uiso   1.00
O2216  O     0.70725   0.92692   0.27302   0.00000  Uiso   1.00
O2217  O     0.57308   0.70724   0.72698   0.00000  Uiso   1.00
O2218  O     0.92693   0.79275   0.27302   0.00000  Uiso   1.00
O2219  O     0.95725   0.82307   0.77302   0.00000  Uiso   1.00
O2220  O     0.54276   0.67692   0.22698   0.00000  Uiso   1.00
O2221  O     0.67693   0.95724   0.77302   0.00000  Uiso   1.00
O2222  O     0.50000   0.75000   0.75000   0.00000  Uiso   1.00
O2223  O     0.82308   0.54275   0.22698   0.00000  Uiso   1.00
O2224  O     0.54276   0.67692   0.77302   0.00000  Uiso   1.00
O2225  O     0.95725   0.82307   0.22698   0.00000  Uiso   1.00
O2226  O     0.82308   0.54275   0.77302   0.00000  Uiso   1.00
O2227  O     0.67693   0.95724   0.22698   0.00000  Uiso   1.00
O2228  O     0.95725   0.67692   0.22698   0.00000  Uiso   1.00
O2229  O     0.54276   0.82307   0.77302   0.00000  Uiso   1.00
O2230  O     0.67693   0.54275   0.22698   0.00000  Uiso   1.00
O2231  O     0.82308   0.95724   0.77302   0.00000  Uiso   1.00
O2232  O     0.54276   0.82307   0.22698   0.00000  Uiso   1.00
O2233  O     0.75000   0.96963   0.33755   0.00000  Uiso   1.00
O2234  O     0.95725   0.67692   0.77302   0.00000  Uiso   1.00
O2235  O     0.82308   0.95724   0.22698   0.00000  Uiso   1.00
O2236  O     0.67693   0.54275   0.77302   0.00000  Uiso   1.00
O2237  O     0.64486   0.90779   0.17973   0.00000  Uiso   1.00
O2238  O     0.85594   0.59100   0.81994   0.00000  Uiso   1.00
O2239  O     0.55438   0.60600   0.22720   0.00000  Uiso   1.00
O2240  O     0.92915   0.87663   0.69278   0.00000  Uiso   1.00
O2241  O     0.84564   0.59943   0.18043   0.00000  Uiso   1.00
O2242  O     0.64306   0.90990   0.81965   0.00000  Uiso   1.00
O2243  O     0.92393   0.87254   0.31300   0.00000  Uiso   1.00
O2244  O     0.75000   0.53036   0.66245   0.00000  Uiso   1.00
O2245  O     0.57479   0.62712   0.68936   0.00000  Uiso   1.00
O2246  O     0.62781   0.57340   0.69052   0.00000  Uiso   1.00
O2247  O     0.87123   0.92723   0.30999   0.00000  Uiso   1.00
O2248  O     0.58690   0.85969   0.81824   0.00000  Uiso   1.00
O2249  O     0.89923   0.65524   0.18014   0.00000  Uiso   1.00
O2250  O     0.87602   0.93029   0.69448   0.00000  Uiso   1.00
O2251  O     0.60626   0.55116   0.24459   0.00000  Uiso   1.00
O2252  O     0.91399   0.63971   0.81796   0.00000  Uiso   1.00
O2253  O     0.59051   0.85563   0.18068   0.00000  Uiso   1.00
O2254  O     0.89359   0.65942   0.68014   0.00000  Uiso   1.00
O2255  O     0.53037   0.75000   0.33755   0.00000  Uiso   1.00
O2256  O     0.60563   0.84175   0.32017   0.00000  Uiso   1.00
O2257  O     0.81796   0.87039   0.80382   0.00000  Uiso   1.00
O2258  O     0.69578   0.64401   0.27343   0.00000  Uiso   1.00
O2259  O     0.60649   0.84022   0.67994   0.00000  Uiso   1.00
O2260  O     0.90111   0.65248   0.32071   0.00000  Uiso   1.00
O2261  O     0.67371   0.62170   0.81273   0.00000  Uiso   1.00
O2262  O     0.82579   0.87759   0.18877   0.00000  Uiso   1.00
O2263  O     0.87867   0.82382   0.19028   0.00000  Uiso   1.00
O2264  O     0.62177   0.67597   0.81070   0.00000  Uiso   1.00
O2265  O     0.84381   0.60283   0.32021   0.00000  Uiso   1.00
O2266  O     0.96964   0.75000   0.66245   0.00000  Uiso   1.00
O2267  O     0.66442   0.88910   0.68196   0.00000  Uiso   1.00
O2268  O     0.64373   0.69882   0.25701   0.00000  Uiso   1.00
O2269  O     0.87327   0.81899   0.80481   0.00000  Uiso   1.00
O2270  O     0.65984   0.89404   0.31923   0.00000  Uiso   1.00
O2271  O     0.83598   0.61031   0.68203   0.00000  Uiso   1.00
O2272  O     0.75000   0.53036   0.33755   0.00000  Uiso   1.00
Zn2273 Zn    0.70660   0.50000   0.21735   0.00000  Uiso   1.00
Zn2274 Zn    0.54341   0.75000   0.28265   0.00000  Uiso   1.00
Zn2275 Zn    0.75000   0.95659   0.71735   0.00000  Uiso   1.00
Zn2276 Zn    0.75000   0.54340   0.28265   0.00000  Uiso   1.00
Zn2277 Zn    0.54341   0.75000   0.71735   0.00000  Uiso   1.00
Zn2278 Zn    0.95660   0.75000   0.28265   0.00000  Uiso   1.00
Zn2279 Zn    0.75000   0.54340   0.71735   0.00000  Uiso   1.00
Zn2280 Zn    0.75000   0.95659   0.28265   0.00000  Uiso   1.00
Zn2281 Zn    0.79341   0.50000   0.78265   0.00000  Uiso   1.00
Zn2282 Zn    0.50000   0.70659   0.21735   0.00000  Uiso   1.00
Zn2283 Zn    0.50000   0.79340   0.78265   0.00000  Uiso   1.00
Zn2284 Zn    0.79341   0.50000   0.21735   0.00000  Uiso   1.00
Zn2285 Zn    0.70660   0.50000   0.78265   0.00000  Uiso   1.00
Zn2286 Zn    0.50000   0.79340   0.21735   0.00000  Uiso   1.00
Zn2287 Zn    0.50000   0.70659   0.78265   0.00000  Uiso   1.00
Zn2288 Zn    0.95660   0.75000   0.71735   0.00000  Uiso   1.00
loop_
_geom_bond_atom_site_label_1
_geom_bond_atom_site_label_2
_geom_bond_distance
_geom_bond_site_symmetry_2
_ccdc_geom_bond_type
C1     N457    1.427   .     S
C1     C4      1.410   .     A
C1     C651    1.406   .     S
C2     C14     1.408   .     A
C2     N458    1.428   .     S
C2     C1276   1.407   .     S
C3     C195    1.408   .     A
C3     C138    1.403   .     A
C3     C1182   1.417   1_545 S
C4     C139    1.404   .     A
C4     C606    1.417   .     S
C5     C36     1.417   .     A
C5     C112    1.409   .     A
C5     C141    1.404   .     A
C6     C142    1.404   .     A
C6     C140    1.409   .     A
C6     C1181   1.416   1_545 S
C7     C143    1.404   .     A
C7     C151    1.410   .     A
C7     C38     1.417   .     A
C8     C35     1.407   .     A
C8     C144    1.404   .     A
C8     C1183   1.415   .     S
C9     C46     1.408   .     A
C9     C145    1.404   .     A
C9     C40     1.416   .     A
C10    C146    1.403   .     A
C10    C57     1.408   .     A
C10    C41     1.417   .     S
C11    C68     1.411   .     A
C11    C147    1.405   .     A
C11    C614    1.416   .     S
C12    C206    1.409   .     A
C12    C39     1.416   .     A
C12    C148    1.404   .     A
C13    C133    1.405   .     A
C13    N459    1.428   .     S
C13    C15     1.410   .     A
C14    C149    1.403   .     A
C14    C1184   1.417   .     S
C15    C613    1.417   .     A
C15    C150    1.404   .     A
C16    C152    1.404   .     A
C16    C24     1.409   .     A
C16    C42     1.416   .     A
C17    C168    1.455   .     S
C17    C196    1.409   .     A
C17    C198    1.411   .     A
C18    C169    1.456   .     S
C18    C197    1.412   .     A
C18    C194    1.412   .     A
C19    C200    1.421   .     A
C19    C193    1.404   .     A
C19    C161    1.456   .     S
C20    C192    1.407   .     A
C20    C163    1.452   .     S
C20    C199    1.407   .     A
C21    C191    1.409   .     A
C21    C164    1.455   .     S
C21    C202    1.412   .     A
C22    C190    1.410   .     A
C22    C201    1.412   .     A
C22    C165    1.454   .     S
C23    C204    1.407   .     A
C23    C166    1.452   .     S
C23    C189    1.406   .     A
C24    N460    1.426   .     S
C24    C706    1.406   1_455 S
C25    C203    1.409   .     A
C25    C167    1.451   .     S
C25    C188    1.407   .     A
C26    C177    1.451   .     S
C26    C207    1.407   .     A
C26    C187    1.407   .     A
C27    C205    1.407   .     A
C27    C178    1.451   .     S
C27    C186    1.414   .     A
C28    C209    1.412   .     A
C28    C170    1.455   .     S
C28    C185    1.411   .     A
C29    C208    1.406   .     A
C29    C171    1.455   .     S
C29    C183    1.405   .     A
C30    C182    1.408   .     A
C30    C211    1.407   .     A
C30    C172    1.450   .     S
C31    C181    1.420   .     A
C31    C210    1.405   .     A
C31    C174    1.457   .     S
C32    C180    1.412   .     A
C32    C175    1.456   .     S
C32    C213    1.411   .     A
C33    C179    1.411   .     A
C33    C212    1.409   .     A
C33    C176    1.454   .     S
C34    C36     1.416   .     A
C34    C214    1.417   .     A
C34    C576    1.417   1_455 S
C35    N461    1.427   .     S
C35    C1268   1.407   .     S
C36    C787    1.417   1_455 S
C37    C38     1.416   .     A
C37    C216    1.417   .     A
C37    C1150   1.416   .     S
C38    C1147   1.417   .     S
C39    C1152   1.415   1_545 S
C39    C40     1.415   1_556 S
C40    C1158   1.417   1_545 S
C40    C39     1.415   1_554 S
C41    C587    1.417   1_455 A
C41    C42     1.416   1_556 S
C42    C583    1.416   1_455 S
C42    C41     1.416   1_554 S
C43    H295    1.112   .     S
C43    C44     1.522   .     S
C43    H306    1.110   .     S
C43    O521    1.416   .     S
C44    H340    1.110   .     S
C44    H329    1.110   .     S
C44    H317    1.111   .     S
C45    O522    1.418   .     S
C45    H362    1.112   .     S
C45    C47     1.522   .     S
C45    H351    1.110   .     S
C46    N462    1.428   .     S
C46    C132    1.408   .     A
C47    H376    1.110   .     S
C47    H375    1.110   .     S
C47    H373    1.110   .     S
C48    H378    1.104   .     S
C48    O523    1.421   .     S
C48    C49     1.518   .     S
C48    H377    1.104   .     S
C49    H382    1.110   .     S
C49    H381    1.110   .     S
C49    H951    1.109   1_455 S
C50    H384    1.116   .     S
C50    H383    1.110   .     S
C50    C51     1.521   .     S
C50    O524    1.414   .     S
C51    H387    1.110   .     S
C51    H385    1.110   .     S
C51    H958    1.110   .     S
C52    O525    1.412   .     S
C52    H389    1.115   .     S
C52    H388    1.114   .     S
C52    C53     1.521   .     S
C53    H390    1.111   .     S
C53    H392    1.111   .     S
C53    H393    1.110   .     S
C54    H395    1.113   .     S
C54    O526    1.417   .     S
C54    C55     1.522   .     S
C54    H394    1.110   .     S
C55    H397    1.111   .     S
C55    H396    1.110   .     S
C55    H398    1.110   .     S
C56    H400    1.110   .     S
C56    O527    1.417   .     S
C56    C58     1.522   .     S
C56    H399    1.117   .     S
C57    N463    1.427   .     S
C57    C705    1.404   1_455 S
C58    H403    1.108   .     S
C58    H401    1.109   .     S
C58    H976    1.109   .     S
C59    H406    1.116   .     S
C59    C60     1.520   .     S
C59    O529    1.415   .     S
C59    H405    1.110   .     S
C60    H409    1.110   .     S
C60    H408    1.109   .     S
C60    H979    1.110   1_455 S
C61    H410    1.110   .     S
C61    H411    1.118   .     S
C61    C62     1.519   .     S
C61    O530    1.417   .     S
C62    H414    1.111   .     S
C62    H412    1.110   .     S
C62    H1559   1.109   1_545 S
C63    H416    1.110   .     S
C63    C64     1.523   .     S
C63    O531    1.418   .     S
C63    H417    1.110   .     S
C64    H419    1.108   .     S
C64    H420    1.110   .     S
C64    H1562   1.109   .     S
C65    H421    1.108   .     S
C65    O532    1.415   .     S
C65    H422    1.117   .     S
C65    C66     1.519   .     S
C66    H425    1.108   .     S
C66    H423    1.111   .     S
C66    H426    1.110   .     S
C67    H427    1.110   .     S
C67    H428    1.115   .     S
C67    O533    1.414   .     S
C67    C69     1.521   .     S
C68    N464    1.427   .     S
C68    C134    1.407   .     A
C69    H430    1.111   .     S
C69    H429    1.110   .     S
C69    H431    1.107   .     S
C70    C71     1.519   .     S
C70    O534    1.415   .     S
C70    H432    1.110   .     S
C70    H433    1.118   .     S
C71    H434    1.111   .     S
C71    H437    1.111   .     S
C71    H1580   1.110   .     S
C72    H439    1.109   .     S
C72    O535    1.413   .     S
C72    H438    1.115   .     S
C72    C1217   1.520   1_545 S
C73    H440    1.111   .     S
C73    H442    1.105   .     S
C73    H441    1.111   .     S
C73    C1216   1.520   .     S
C74    H444    1.115   .     S
C74    H443    1.109   .     S
C74    C75     1.520   .     S
C74    O536    1.414   .     S
C75    H448    1.110   .     S
C75    H447    1.108   .     S
C75    H445    1.111   .     S
C76    H449    1.118   .     S
C76    O537    1.416   .     S
C76    H450    1.110   .     S
C76    C77     1.520   .     S
C77    H453    1.111   .     S
C77    H452    1.110   .     S
C77    H451    1.109   .     S
C78    H455    1.110   .     S
C78    C80     1.522   .     S
C78    O538    1.418   .     S
C78    H454    1.112   .     S
C79    C162    1.406   .     A
C79    C573    1.406   1_455 S
C79    C727    1.458   1_455 S
C80    H456    1.110   .     S
C80    H219    1.110   .     S
C80    H220    1.110   .     S
C81    H221    1.110   .     S
C81    H222    1.112   .     S
C81    O540    1.416   .     S
C81    C82     1.521   .     S
C82    H224    1.111   .     S
C82    H223    1.110   .     S
C82    H225    1.110   .     S
C83    O541    1.416   .     S
C83    C84     1.522   .     S
C83    H226    1.116   .     S
C83    H227    1.109   .     S
C84    H230    1.111   .     S
C84    H231    1.110   .     S
C84    H228    1.109   .     S
C85    H233    1.103   .     S
C85    O542    1.422   .     S
C85    C86     1.521   .     S
C85    H232    1.105   .     S
C86    H236    1.111   .     S
C86    H234    1.110   .     S
C86    H235    1.109   .     S
C87    H238    1.110   .     S
C87    O543    1.418   .     S
C87    C88     1.522   .     S
C87    H237    1.112   .     S
C88    H241    1.110   .     S
C88    H239    1.110   .     S
C88    H242    1.110   .     S
C89    H243    1.110   .     S
C89    C91     1.521   .     S
C89    H244    1.113   .     S
C89    O544    1.416   .     S
C90    C156    1.457   .     S
C90    C112    1.406   .     A
C90    C745    1.406   1_455 S
C91    H246    1.110   .     S
C91    H247    1.111   .     S
C91    H245    1.110   .     S
C92    H248    1.117   .     S
C92    O545    1.416   .     S
C92    C93     1.521   .     S
C92    H249    1.110   .     S
C93    H250    1.110   .     S
C93    H253    1.110   .     S
C93    H252    1.110   .     S
C94    H254    1.110   .     S
C94    H255    1.116   .     S
C94    C95     1.520   .     S
C94    O546    1.415   .     S
C95    H256    1.110   .     S
C95    H258    1.110   .     S
C95    H257    1.110   .     S
C96    H259    1.110   .     S
C96    H260    1.117   .     S
C96    O547    1.417   .     S
C96    C97     1.522   .     S
C97    H263    1.111   .     S
C97    H261    1.111   .     S
C97    H264    1.109   .     S
C98    H265    1.112   .     S
C98    C99     1.518   .     S
C98    O548    1.413   .     S
C98    H266    1.112   .     S
C99    H268    1.110   .     S
C99    H269    1.108   .     S
C99    H267    1.111   .     S
C100   H271    1.115   .     S
C100   O549    1.413   .     S
C100   H270    1.110   .     S
C100   C102    1.520   .     S
C101   C184    1.407   .     A
C101   C1284   1.405   .     S
C101   C1297   1.460   .     S
C102   H274    1.109   .     S
C102   H272    1.111   .     S
C102   H275    1.110   .     S
C103   H276    1.115   .     S
C103   O551    1.414   .     S
C103   C104    1.520   .     S
C103   H277    1.109   .     S
C104   H280    1.111   .     S
C104   H279    1.108   .     S
C104   H278    1.110   .     S
C105   C106    1.521   .     S
C105   H281    1.109   .     S
C105   O552    1.413   .     S
C105   H282    1.115   .     S
C106   H286    1.111   .     S
C106   H285    1.111   .     S
C106   H283    1.106   .     S
C107   C108    1.519   .     S
C107   H287    1.117   .     S
C107   O553    1.416   .     S
C107   H288    1.109   .     S
C108   H291    1.111   .     S
C108   H289    1.110   .     S
C108   H290    1.110   .     S
C109   O554    1.416   .     S
C109   H293    1.118   .     S
C109   H292    1.110   .     S
C109   C110    1.519   .     S
C110   H297    1.109   .     S
C110   H294    1.111   .     S
C110   H296    1.110   .     S
C111   O555    1.414   .     S
C111   H298    1.115   .     S
C111   C114    1.520   .     S
C111   H299    1.109   .     S
C112   N465    1.427   .     S
C113   C151    1.406   .     A
C113   C154    1.455   .     S
C113   C1339   1.404   .     S
C114   H302    1.111   .     S
C114   H300    1.110   .     S
C114   H301    1.108   .     S
C115   H304    1.110   .     S
C115   H307    1.110   .     S
C115   H305    1.110   .     S
C115   N457    1.448   .     S
C116   H309    1.110   .     S
C116   H311    1.110   .     S
C116   H310    1.110   .     S
C116   N465    1.448   .     S
C117   N466    1.447   .     S
C117   H315    1.109   .     S
C117   H313    1.110   .     S
C117   H314    1.109   .     S
C118   H319    1.110   .     S
C118   H318    1.110   .     S
C118   H320    1.110   .     S
C118   N467    1.448   .     S
C119   H322    1.110   .     S
C119   H324    1.110   .     S
C119   N468    1.449   .     S
C119   H323    1.111   .     S
C120   H330    1.110   .     S
C120   H327    1.110   .     S
C120   H326    1.110   .     S
C120   N469    1.448   .     S
C121   H333    1.110   .     S
C121   H332    1.110   .     S
C121   H334    1.110   .     S
C121   N470    1.448   .     S
C122   H338    1.109   .     S
C122   H336    1.110   .     S
C122   N471    1.448   .     S
C122   H337    1.110   .     S
C123   H341    1.110   .     S
C123   N472    1.448   .     S
C123   H342    1.110   .     S
C123   H343    1.110   .     S
C124   C159    1.459   .     S
C124   C206    1.408   .     A
C124   C1179   1.407   1_545 S
C125   H345    1.109   .     S
C125   H346    1.110   .     S
C125   N458    1.449   .     S
C125   H347    1.110   .     S
C126   H349    1.110   .     S
C126   H352    1.110   .     S
C126   H350    1.110   .     S
C126   N459    1.448   .     S
C127   H354    1.110   .     S
C127   H356    1.109   .     S
C127   N460    1.447   .     S
C127   H355    1.109   .     S
C128   H358    1.111   .     S
C128   H360    1.110   .     S
C128   N461    1.444   .     S
C128   H359    1.108   .     S
C129   H364    1.110   .     S
C129   H363    1.110   .     S
C129   H365    1.110   .     S
C129   N462    1.449   .     S
C130   N463    1.448   .     S
C130   H368    1.109   .     S
C130   H369    1.110   .     S
C130   H367    1.110   .     S
C131   H372    1.110   .     S
C131   N464    1.448   .     S
C131   H371    1.110   .     S
C131   H374    1.110   .     S
C132   C1146   1.407   1_545 S
C132   C160    1.458   .     S
C133   C157    1.455   .     S
C133   C629    1.404   .     S
C134   C158    1.460   .     S
C134   C596    1.406   .     S
C135   H217    1.081   .     S
C135   C214    1.404   .     A
C135   C141    1.385   .     A
C136   C215    1.404   .     A
C136   C139    1.386   .     A
C136   H328    1.081   .     S
C137   H380    1.081   .     S
C137   C216    1.404   .     A
C137   C143    1.387   .     A
C138   C142    1.384   .     A
C138   H391    1.081   .     S
C139   H402    1.080   .     S
C140   N466    1.426   .     S
C140   C1245   1.405   1_545 S
C141   H413    1.080   .     S
C142   H424    1.080   .     S
C143   H435    1.081   .     S
C144   H446    1.081   .     S
C144   C149    1.384   1_556 S
C145   H218    1.080   .     S
C145   C148    1.385   1_554 S
C146   H229    1.081   .     S
C146   C152    1.384   1_556 S
C147   H240    1.080   .     S
C147   C150    1.386   1_554 S
C148   H251    1.081   .     S
C148   C145    1.385   1_556 S
C149   H262    1.080   .     S
C149   C144    1.384   1_554 S
C150   H273    1.081   .     S
C150   C147    1.386   1_556 S
C151   N467    1.428   .     S
C152   H284    1.080   .     S
C152   C146    1.384   1_554 S
C153   O556    1.278   .     A
C153   C1245   1.460   1_545 S
C153   O1661   1.275   1_545 S
C154   O474    1.275   .     A
C154   O1672   1.276   .     S
C155   O475    1.278   .     A
C155   C651    1.458   .     S
C155   O1111   1.277   .     S
C156   O476    1.277   .     A
C156   O1122   1.278   1_455 S
C157   O1049   1.275   .     S
C157   O1053   1.276   .     S
C158   O1050   1.276   .     S
C158   O1054   1.277   .     S
C159   O479    1.278   .     S
C159   O483    1.278   .     S
C160   O480    1.277   .     S
C160   O485    1.278   .     S
C161   O486    1.271   .     A
C161   O514    1.289   .     A
C162   C214    1.409   .     A
C162   N468    1.428   .     S
C163   O487    1.278   .     A
C163   O515    1.280   .     A
C164   O488    1.279   .     A
C164   O512    1.277   .     A
C165   O489    1.280   .     A
C165   O513    1.275   .     A
C166   O519    1.279   .     A
C166   O490    1.281   .     A
C167   O520    1.279   .     A
C167   O491    1.280   .     A
C168   O492    1.282   .     A
C168   O516    1.280   .     A
C169   O493    1.285   .     A
C169   O518    1.278   .     A
C170   O505    1.281   .     A
C170   O494    1.275   .     A
C171   O496    1.276   .     A
C171   O507    1.280   .     A
C172   O497    1.278   .     A
C172   O503    1.279   .     A
C173   C215    1.410   .     A
C173   N469    1.428   .     S
C173   C662    1.406   .     S
C174   O504    1.273   .     A
C174   O498    1.288   .     A
C175   O510    1.285   .     A
C175   O499    1.278   .     A
C176   O500    1.280   .     A
C176   O511    1.283   .     A
C177   O501    1.280   .     A
C177   O508    1.280   .     A
C178   O509    1.280   .     A
C178   O502    1.279   .     A
C179   O521    1.387   .     S
C179   C196    1.398   .     A
C180   O522    1.388   .     S
C180   C194    1.400   .     A
C181   O523    1.385   .     S
C181   C193    1.402   .     A
C182   C192    1.399   .     A
C182   O524    1.385   .     S
C183   O525    1.384   .     S
C183   C191    1.406   .     A
C184   N470    1.427   .     S
C184   C216    1.411   .     A
C185   C190    1.396   .     A
C185   O526    1.387   .     S
C186   C189    1.406   .     A
C186   O527    1.391   .     S
C187   C188    1.399   .     A
C187   O529    1.386   .     S
C188   O530    1.384   .     S
C189   O531    1.387   .     S
C190   O532    1.387   .     S
C191   O533    1.390   .     S
C192   O534    1.384   .     S
C193   O535    1.396   .     S
C194   O536    1.389   .     S
C195   N471    1.427   .     S
C195   C1257   1.404   1_545 S
C196   O537    1.386   .     S
C197   O538    1.388   .     S
C197   C213    1.399   .     A
C198   O540    1.387   .     S
C198   C212    1.398   .     A
C199   O541    1.385   .     S
C199   C211    1.399   .     A
C200   O542    1.387   .     S
C200   C210    1.403   .     A
C201   C209    1.400   .     A
C201   O543    1.388   .     S
C202   O544    1.387   .     S
C202   C208    1.400   .     A
C203   O545    1.388   .     S
C203   C207    1.400   .     A
C204   O546    1.385   .     S
C204   C205    1.398   .     A
C205   O547    1.386   .     S
C206   N472    1.428   .     S
C207   O548    1.383   .     S
C208   O549    1.386   .     S
C209   O551    1.389   .     S
C210   O552    1.395   .     S
C211   O553    1.384   .     S
C212   O554    1.386   .     S
C213   O555    1.389   .     S
C215   C608    1.417   .     S
H303   N457    1.030   .     S
H308   N465    1.030   .     S
H312   N466    1.030   .     S
H316   N467    1.031   .     S
H321   N468    1.031   .     S
H325   N469    1.031   .     S
H331   N470    1.030   .     S
H335   N471    1.031   .     S
H339   N472    1.031   .     S
H344   N458    1.031   .     S
H348   N459    1.031   .     S
H353   N460    1.030   .     S
H357   N461    1.031   .     S
H361   N462    1.031   .     S
H366   N463    1.030   .     S
H370   N464    1.030   .     S
H379   C621    1.109   .     S
H386   C623    1.110   1_455 S
H404   C630    1.109   1_455 S
H407   C632    1.110   .     S
H415   C1206   1.109   .     S
H418   C1208   1.109   1_545 S
H436   C1215   1.110   1_545 S
O473   Zn568   1.946   .     S
O473   Zn557   1.950   .     S
O473   Zn1708  1.949   1_545 S
O473   Zn560   1.942   .     S
O474   Zn559   1.952   .     S
O475   Zn562   1.952   .     S
O476   Zn561   1.952   .     S
O477   Zn571   1.949   .     S
O477   C729    1.275   1_455 S
O478   Zn570   1.949   .     S
O478   C730    1.276   1_455 S
O479   Zn565   1.950   .     S
O480   Zn557   1.950   .     S
O481   Zn567   1.952   .     S
O481   C729    1.276   1_455 S
O482   Zn566   1.952   .     S
O482   C730    1.277   1_455 S
O483   Zn569   1.952   .     S
O484   Zn1703  1.942   1_545 S
O484   Zn565   1.950   .     S
O484   Zn569   1.946   .     S
O484   Zn563   1.949   .     S
O485   Zn568   1.952   .     S
O486   Zn560   1.934   .     S
O487   Zn559   1.934   .     S
O488   Zn562   1.934   .     S
O489   Zn561   1.934   .     S
O490   Zn564   1.931   .     S
O491   Zn563   1.931   .     S
O492   Zn558   1.935   .     S
O493   Zn572   1.935   .     S
O494   Zn559   1.936   .     S
O495   Zn558   1.950   .     S
O495   Zn566   1.942   .     S
O495   Zn570   1.949   .     S
O495   Zn1134  1.946   1_455 S
O496   Zn560   1.936   .     S
O497   Zn572   1.930   .     S
O498   Zn558   1.930   .     S
O499   Zn563   1.935   .     S
O500   Zn564   1.935   .     S
O501   Zn561   1.933   .     S
O502   Zn562   1.933   .     S
O503   Zn1139  1.934   .     S
O504   Zn566   1.934   .     S
O505   Zn1713  1.934   .     S
O506   Zn561   1.946   .     S
O506   Zn567   1.942   .     S
O506   Zn571   1.949   .     S
O506   Zn1144  1.950   1_455 S
O507   Zn568   1.934   .     S
O508   Zn571   1.931   .     S
O509   Zn1142  1.931   .     S
O510   Zn565   1.935   .     S
O511   Zn1701  1.935   .     S
O512   Zn1138  1.936   .     S
O513   Zn567   1.936   .     S
O514   Zn557   1.930   .     S
O515   Zn1709  1.930   .     S
O516   Zn570   1.935   .     S
O517   Zn564   1.949   .     S
O517   C1297   1.275   .     S
O518   Zn1143  1.935   .     S
O519   Zn1712  1.933   .     S
O520   Zn569   1.933   .     S
O528   Zn563   1.949   .     S
O528   C1298   1.276   1_545 S
O539   Zn558   1.950   .     S
O539   C727    1.277   1_455 S
O550   Zn572   1.950   .     S
O550   C728    1.278   .     S
O556   Zn560   1.952   .     S
Zn557  O1655   1.935   1_545 S
Zn559  O1628   1.942   .     S
Zn562  O1067   1.946   .     S
Zn564  O1617   1.949   .     S
Zn565  O1659   1.930   1_545 S
Zn566  O1084   1.936   1_455 S
Zn567  O1075   1.934   1_455 S
Zn568  O1663   1.933   1_545 S
Zn569  O1649   1.934   1_545 S
Zn570  O1081   1.931   1_455 S
Zn571  O1090   1.935   1_455 S
Zn572  O1078   1.950   .     S
C573   N1029   1.427   .     S
C573   C576    1.410   .     A
C573   C79     1.406   1_655 S
C574   C586    1.408   .     A
C574   N1030   1.428   .     S
C574   C1848   1.407   .     S
C575   C767    1.408   .     A
C575   C710    1.403   .     A
C575   C1754   1.417   1_545 S
C576   C711    1.404   .     A
C576   C34     1.417   1_655 S
C577   C608    1.417   .     A
C577   C684    1.409   .     A
C577   C713    1.404   .     A
C578   C714    1.404   .     A
C578   C712    1.409   .     A
C578   C1753   1.416   1_545 S
C579   C715    1.404   .     A
C579   C723    1.410   .     A
C579   C610    1.417   .     A
C580   C607    1.407   .     A
C580   C716    1.404   .     A
C580   C1755   1.415   .     S
C581   C618    1.408   .     A
C581   C717    1.404   .     A
C581   C612    1.416   .     A
C582   C718    1.403   .     A
C582   C629    1.408   .     A
C582   C613    1.417   .     S
C583   C640    1.411   .     A
C583   C719    1.405   .     A
C583   C42     1.416   1_655 S
C584   C778    1.409   .     A
C584   C611    1.416   .     A
C584   C720    1.404   .     A
C585   C705    1.405   .     A
C585   N1031   1.428   .     S
C585   C587    1.410   .     A
C586   C721    1.403   .     A
C586   C1756   1.417   .     S
C587   C41     1.417   1_655 A
C587   C722    1.404   .     A
C588   C724    1.404   .     A
C588   C596    1.409   .     A
C588   C614    1.416   .     A
C589   C740    1.455   .     S
C589   C768    1.409   .     A
C589   C770    1.411   .     A
C590   C741    1.456   .     S
C590   C769    1.412   .     A
C590   C766    1.412   .     A
C591   C772    1.421   .     A
C591   C765    1.404   .     A
C591   C733    1.456   .     S
C592   C764    1.407   .     A
C592   C735    1.452   .     S
C592   C771    1.407   .     A
C593   C763    1.409   .     A
C593   C736    1.455   .     S
C593   C774    1.412   .     A
C594   C762    1.410   .     A
C594   C773    1.412   .     A
C594   C737    1.454   .     S
C595   C776    1.407   .     A
C595   C738    1.452   .     S
C595   C761    1.406   .     A
C596   N1032   1.426   .     S
C597   C775    1.409   .     A
C597   C739    1.451   .     S
C597   C760    1.407   .     A
C598   C749    1.451   .     S
C598   C779    1.407   .     A
C598   C759    1.407   .     A
C599   C777    1.407   .     A
C599   C750    1.451   .     S
C599   C758    1.414   .     A
C600   C781    1.412   .     A
C600   C742    1.455   .     S
C600   C757    1.411   .     A
C601   C780    1.406   .     A
C601   C743    1.455   .     S
C601   C755    1.405   .     A
C602   C754    1.408   .     A
C602   C783    1.407   .     A
C602   C744    1.450   .     S
C603   C753    1.420   .     A
C603   C782    1.405   .     A
C603   C746    1.457   .     S
C604   C752    1.412   .     A
C604   C747    1.456   .     S
C604   C785    1.411   .     A
C605   C751    1.411   .     A
C605   C784    1.409   .     A
C605   C748    1.454   .     S
C606   C608    1.416   .     A
C606   C786    1.417   .     A
C607   N1033   1.427   .     S
C607   C1840   1.407   .     S
C609   C610    1.416   .     A
C609   C788    1.417   .     A
C609   C1722   1.416   .     S
C610   C1719   1.417   .     S
C611   C1724   1.415   1_545 S
C611   C612    1.415   1_556 S
C612   C1730   1.417   1_545 S
C612   C611    1.415   1_554 S
C613   C614    1.416   1_556 S
C614   C613    1.416   1_554 S
C615   H867    1.112   .     S
C615   C616    1.522   .     S
C615   H878    1.110   .     S
C615   O1093   1.416   .     S
C616   H912    1.110   .     S
C616   H901    1.110   .     S
C616   H889    1.111   .     S
C617   O1094   1.418   .     S
C617   H934    1.112   .     S
C617   C619    1.522   .     S
C617   H923    1.110   .     S
C618   N1034   1.428   .     S
C618   C704    1.408   .     A
C619   H948    1.110   .     S
C619   H947    1.110   .     S
C619   H945    1.110   .     S
C620   H950    1.104   .     S
C620   O1095   1.421   .     S
C620   C621    1.518   .     S
C620   H949    1.104   .     S
C621   H954    1.110   .     S
C621   H953    1.110   .     S
C622   H956    1.116   .     S
C622   H955    1.110   .     S
C622   C623    1.521   .     S
C622   O1096   1.414   .     S
C623   H959    1.110   .     S
C623   H957    1.110   .     S
C623   H386    1.110   1_655 S
C624   O1097   1.412   .     S
C624   H961    1.115   .     S
C624   H960    1.114   .     S
C624   C625    1.521   .     S
C625   H962    1.111   .     S
C625   H964    1.111   .     S
C625   H965    1.110   .     S
C626   H967    1.113   .     S
C626   O1098   1.417   .     S
C626   C627    1.522   .     S
C626   H966    1.110   .     S
C627   H969    1.111   .     S
C627   H968    1.110   .     S
C627   H970    1.110   .     S
C628   H972    1.110   .     S
C628   O1099   1.417   .     S
C628   C630    1.522   .     S
C628   H971    1.117   .     S
C629   N1035   1.427   .     S
C630   H975    1.108   .     S
C630   H973    1.109   .     S
C630   H404    1.109   1_655 S
C631   H978    1.116   .     S
C631   C632    1.520   .     S
C631   O1101   1.415   .     S
C631   H977    1.110   .     S
C632   H981    1.110   .     S
C632   H980    1.109   .     S
C633   H982    1.110   .     S
C633   H983    1.118   .     S
C633   C634    1.519   .     S
C633   O1102   1.417   .     S
C634   H986    1.111   .     S
C634   H984    1.110   .     S
C634   H2131   1.109   1_545 S
C635   H988    1.110   .     S
C635   C636    1.523   .     S
C635   O1103   1.418   .     S
C635   H989    1.110   .     S
C636   H991    1.108   .     S
C636   H992    1.110   .     S
C636   H2134   1.109   .     S
C637   H993    1.108   .     S
C637   O1104   1.415   .     S
C637   H994    1.117   .     S
C637   C638    1.519   .     S
C638   H997    1.108   .     S
C638   H995    1.111   .     S
C638   H998    1.110   .     S
C639   H999    1.110   .     S
C639   H1000   1.115   .     S
C639   O1105   1.414   .     S
C639   C641    1.521   .     S
C640   N1036   1.427   .     S
C640   C706    1.407   .     A
C641   H1002   1.111   .     S
C641   H1001   1.110   .     S
C641   H1003   1.107   .     S
C642   C643    1.519   .     S
C642   O1106   1.415   .     S
C642   H1004   1.110   .     S
C642   H1005   1.118   .     S
C643   H1006   1.111   .     S
C643   H1009   1.111   .     S
C643   H2152   1.110   .     S
C644   H1011   1.109   .     S
C644   O1107   1.413   .     S
C644   H1010   1.115   .     S
C644   C1789   1.520   1_545 S
C645   H1012   1.111   .     S
C645   H1014   1.105   .     S
C645   H1013   1.111   .     S
C645   C1788   1.520   .     S
C646   H1016   1.115   .     S
C646   H1015   1.109   .     S
C646   C647    1.520   .     S
C646   O1108   1.414   .     S
C647   H1020   1.110   .     S
C647   H1019   1.108   .     S
C647   H1017   1.111   .     S
C648   H1021   1.118   .     S
C648   O1109   1.416   .     S
C648   H1022   1.110   .     S
C648   C649    1.520   .     S
C649   H1025   1.111   .     S
C649   H1024   1.110   .     S
C649   H1023   1.109   .     S
C650   H1027   1.110   .     S
C650   C652    1.522   .     S
C650   O1110   1.418   .     S
C650   H1026   1.112   .     S
C651   C734    1.406   .     A
C652   H1028   1.110   .     S
C652   H791    1.110   .     S
C652   H792    1.110   .     S
C653   H793    1.110   .     S
C653   H794    1.112   .     S
C653   O1112   1.416   .     S
C653   C654    1.521   .     S
C654   H796    1.111   .     S
C654   H795    1.110   .     S
C654   H797    1.110   .     S
C655   O1113   1.416   .     S
C655   C656    1.522   .     S
C655   H798    1.116   .     S
C655   H799    1.109   .     S
C656   H802    1.111   .     S
C656   H803    1.110   .     S
C656   H800    1.109   .     S
C657   H805    1.103   .     S
C657   O1114   1.422   .     S
C657   C658    1.521   .     S
C657   H804    1.105   .     S
C658   H808    1.111   .     S
C658   H806    1.110   .     S
C658   H807    1.109   .     S
C659   H810    1.110   .     S
C659   O1115   1.418   .     S
C659   C660    1.522   .     S
C659   H809    1.112   .     S
C660   H813    1.110   .     S
C660   H811    1.110   .     S
C660   H814    1.110   .     S
C661   H815    1.110   .     S
C661   C663    1.521   .     S
C661   H816    1.113   .     S
C661   O1116   1.416   .     S
C662   C728    1.457   .     S
C662   C684    1.406   .     A
C663   H818    1.110   .     S
C663   H819    1.111   .     S
C663   H817    1.110   .     S
C664   H820    1.117   .     S
C664   O1117   1.416   .     S
C664   C665    1.521   .     S
C664   H821    1.110   .     S
C665   H822    1.110   .     S
C665   H825    1.110   .     S
C665   H824    1.110   .     S
C666   H826    1.110   .     S
C666   H827    1.116   .     S
C666   C667    1.520   .     S
C666   O1118   1.415   .     S
C667   H828    1.110   .     S
C667   H830    1.110   .     S
C667   H829    1.110   .     S
C668   H831    1.110   .     S
C668   H832    1.117   .     S
C668   O1119   1.417   .     S
C668   C669    1.522   .     S
C669   H835    1.111   .     S
C669   H833    1.111   .     S
C669   H836    1.109   .     S
C670   H837    1.112   .     S
C670   C671    1.518   .     S
C670   O1120   1.413   .     S
C670   H838    1.112   .     S
C671   H840    1.110   .     S
C671   H841    1.108   .     S
C671   H839    1.111   .     S
C672   H843    1.115   .     S
C672   O1121   1.413   .     S
C672   H842    1.110   .     S
C672   C674    1.520   .     S
C673   C756    1.407   .     A
C673   C1856   1.405   .     S
C673   C1869   1.460   .     S
C674   H846    1.109   .     S
C674   H844    1.111   .     S
C674   H847    1.110   .     S
C675   H848    1.115   .     S
C675   O1123   1.414   .     S
C675   C676    1.520   .     S
C675   H849    1.109   .     S
C676   H852    1.111   .     S
C676   H851    1.108   .     S
C676   H850    1.110   .     S
C677   C678    1.521   .     S
C677   H853    1.109   .     S
C677   O1124   1.413   .     S
C677   H854    1.115   .     S
C678   H858    1.111   .     S
C678   H857    1.111   .     S
C678   H855    1.106   .     S
C679   C680    1.519   .     S
C679   H859    1.117   .     S
C679   O1125   1.416   .     S
C679   H860    1.109   .     S
C680   H863    1.111   .     S
C680   H861    1.110   .     S
C680   H862    1.110   .     S
C681   O1126   1.416   .     S
C681   H865    1.118   .     S
C681   H864    1.110   .     S
C681   C682    1.519   .     S
C682   H869    1.109   .     S
C682   H866    1.111   .     S
C682   H868    1.110   .     S
C683   O1127   1.414   .     S
C683   H870    1.115   .     S
C683   C686    1.520   .     S
C683   H871    1.109   .     S
C684   N1037   1.427   .     S
C685   C723    1.406   .     A
C685   C726    1.455   .     S
C685   C1911   1.404   .     S
C686   H874    1.111   .     S
C686   H872    1.110   .     S
C686   H873    1.108   .     S
C687   H876    1.110   .     S
C687   H879    1.110   .     S
C687   H877    1.110   .     S
C687   N1029   1.448   .     S
C688   H881    1.110   .     S
C688   H883    1.110   .     S
C688   H882    1.110   .     S
C688   N1037   1.448   .     S
C689   N1038   1.447   .     S
C689   H887    1.109   .     S
C689   H885    1.110   .     S
C689   H886    1.109   .     S
C690   H891    1.110   .     S
C690   H890    1.110   .     S
C690   H892    1.110   .     S
C690   N1039   1.448   .     S
C691   H894    1.110   .     S
C691   H896    1.110   .     S
C691   N1040   1.449   .     S
C691   H895    1.111   .     S
C692   H902    1.110   .     S
C692   H899    1.110   .     S
C692   H898    1.110   .     S
C692   N1041   1.448   .     S
C693   H905    1.110   .     S
C693   H904    1.110   .     S
C693   H906    1.110   .     S
C693   N1042   1.448   .     S
C694   H910    1.109   .     S
C694   H908    1.110   .     S
C694   N1043   1.448   .     S
C694   H909    1.110   .     S
C695   H913    1.110   .     S
C695   N1044   1.448   .     S
C695   H914    1.110   .     S
C695   H915    1.110   .     S
C696   C731    1.459   .     S
C696   C778    1.408   .     A
C696   C1751   1.407   1_545 S
C697   H917    1.109   .     S
C697   H918    1.110   .     S
C697   N1030   1.449   .     S
C697   H919    1.110   .     S
C698   H921    1.110   .     S
C698   H924    1.110   .     S
C698   H922    1.110   .     S
C698   N1031   1.448   .     S
C699   H926    1.110   .     S
C699   H928    1.109   .     S
C699   N1032   1.447   .     S
C699   H927    1.109   .     S
C700   H930    1.111   .     S
C700   H932    1.110   .     S
C700   N1033   1.444   .     S
C700   H931    1.108   .     S
C701   H936    1.110   .     S
C701   H935    1.110   .     S
C701   H937    1.110   .     S
C701   N1034   1.449   .     S
C702   N1035   1.448   .     S
C702   H940    1.109   .     S
C702   H941    1.110   .     S
C702   H939    1.110   .     S
C703   H944    1.110   .     S
C703   N1036   1.448   .     S
C703   H943    1.110   .     S
C703   H946    1.110   .     S
C704   C1718   1.407   1_545 S
C704   C732    1.458   .     S
C705   C729    1.455   .     S
C705   C57     1.404   1_655 S
C706   C730    1.460   .     S
C706   C24     1.406   1_655 S
C707   H789    1.081   .     S
C707   C786    1.404   .     A
C707   C713    1.385   .     A
C708   C787    1.404   .     A
C708   C711    1.386   .     A
C708   H900    1.081   .     S
C709   H952    1.081   .     S
C709   C788    1.404   .     A
C709   C715    1.387   .     A
C710   C714    1.384   .     A
C710   H963    1.081   .     S
C711   H974    1.080   .     S
C712   N1038   1.426   .     S
C712   C1817   1.405   1_545 S
C713   H985    1.080   .     S
C714   H996    1.080   .     S
C715   H1007   1.081   .     S
C716   H1018   1.081   .     S
C716   C721    1.384   1_556 S
C717   H790    1.080   .     S
C717   C720    1.385   1_554 S
C718   H801    1.081   .     S
C718   C724    1.384   1_556 S
C719   H812    1.080   .     S
C719   C722    1.386   1_554 S
C720   H823    1.081   .     S
C720   C717    1.385   1_556 S
C721   H834    1.080   .     S
C721   C716    1.384   1_554 S
C722   H845    1.081   .     S
C722   C719    1.386   1_556 S
C723   N1039   1.428   .     S
C724   H856    1.080   .     S
C724   C718    1.384   1_554 S
C725   O1128   1.278   .     A
C725   C1817   1.460   1_545 S
C725   O2233   1.275   1_545 S
C726   O1046   1.275   .     A
C726   O2244   1.276   .     S
C727   O1047   1.278   .     A
C727   C79     1.458   1_655 S
C727   O539    1.277   1_655 S
C728   O1048   1.277   .     A
C729   O477    1.275   1_655 S
C729   O481    1.276   1_655 S
C730   O478    1.276   1_655 S
C730   O482    1.277   1_655 S
C731   O1051   1.278   .     S
C731   O1055   1.278   .     S
C732   O1052   1.277   .     S
C732   O1057   1.278   .     S
C733   O1058   1.271   .     A
C733   O1086   1.289   .     A
C734   C786    1.409   .     A
C734   N1040   1.428   .     S
C735   O1059   1.278   .     A
C735   O1087   1.280   .     A
C736   O1060   1.279   .     A
C736   O1084   1.277   .     A
C737   O1061   1.280   .     A
C737   O1085   1.275   .     A
C738   O1091   1.279   .     A
C738   O1062   1.281   .     A
C739   O1092   1.279   .     A
C739   O1063   1.280   .     A
C740   O1064   1.282   .     A
C740   O1088   1.280   .     A
C741   O1065   1.285   .     A
C741   O1090   1.278   .     A
C742   O1077   1.281   .     A
C742   O1066   1.275   .     A
C743   O1068   1.276   .     A
C743   O1079   1.280   .     A
C744   O1069   1.278   .     A
C744   O1075   1.279   .     A
C745   C787    1.410   .     A
C745   N1041   1.428   .     S
C745   C90     1.406   1_655 S
C746   O1076   1.273   .     A
C746   O1070   1.288   .     A
C747   O1082   1.285   .     A
C747   O1071   1.278   .     A
C748   O1072   1.280   .     A
C748   O1083   1.283   .     A
C749   O1073   1.280   .     A
C749   O1080   1.280   .     A
C750   O1081   1.280   .     A
C750   O1074   1.279   .     A
C751   O1093   1.387   .     S
C751   C768    1.398   .     A
C752   O1094   1.388   .     S
C752   C766    1.400   .     A
C753   O1095   1.385   .     S
C753   C765    1.402   .     A
C754   C764    1.399   .     A
C754   O1096   1.385   .     S
C755   O1097   1.384   .     S
C755   C763    1.406   .     A
C756   N1042   1.427   .     S
C756   C788    1.411   .     A
C757   C762    1.396   .     A
C757   O1098   1.387   .     S
C758   C761    1.406   .     A
C758   O1099   1.391   .     S
C759   C760    1.399   .     A
C759   O1101   1.386   .     S
C760   O1102   1.384   .     S
C761   O1103   1.387   .     S
C762   O1104   1.387   .     S
C763   O1105   1.390   .     S
C764   O1106   1.384   .     S
C765   O1107   1.396   .     S
C766   O1108   1.389   .     S
C767   N1043   1.427   .     S
C767   C1829   1.404   1_545 S
C768   O1109   1.386   .     S
C769   O1110   1.388   .     S
C769   C785    1.399   .     A
C770   O1112   1.387   .     S
C770   C784    1.398   .     A
C771   O1113   1.385   .     S
C771   C783    1.399   .     A
C772   O1114   1.387   .     S
C772   C782    1.403   .     A
C773   C781    1.400   .     A
C773   O1115   1.388   .     S
C774   O1116   1.387   .     S
C774   C780    1.400   .     A
C775   O1117   1.388   .     S
C775   C779    1.400   .     A
C776   O1118   1.385   .     S
C776   C777    1.398   .     A
C777   O1119   1.386   .     S
C778   N1044   1.428   .     S
C779   O1120   1.383   .     S
C780   O1121   1.386   .     S
C781   O1123   1.389   .     S
C782   O1124   1.395   .     S
C783   O1125   1.384   .     S
C784   O1126   1.386   .     S
C785   O1127   1.389   .     S
C787   C36     1.417   1_655 S
H875   N1029   1.030   .     S
H880   N1037   1.030   .     S
H884   N1038   1.030   .     S
H888   N1039   1.031   .     S
H893   N1040   1.031   .     S
H897   N1041   1.031   .     S
H903   N1042   1.030   .     S
H907   N1043   1.031   .     S
H911   N1044   1.031   .     S
H916   N1030   1.031   .     S
H920   N1031   1.031   .     S
H925   N1032   1.030   .     S
H929   N1033   1.031   .     S
H933   N1034   1.031   .     S
H938   N1035   1.030   .     S
H942   N1036   1.030   .     S
H951   C49     1.109   1_655 S
H979   C60     1.110   1_655 S
H987   C1778   1.109   .     S
H990   C1780   1.109   1_545 S
H1008  C1787   1.110   1_545 S
O1045  Zn1140  1.946   .     S
O1045  Zn1129  1.950   .     S
O1045  Zn2280  1.949   1_545 S
O1045  Zn1132  1.942   .     S
O1046  Zn1131  1.952   .     S
O1047  Zn1134  1.952   .     S
O1048  Zn1133  1.952   .     S
O1049  Zn1143  1.949   .     S
O1050  Zn1142  1.949   .     S
O1051  Zn1137  1.950   .     S
O1052  Zn1129  1.950   .     S
O1053  Zn1139  1.952   .     S
O1054  Zn1138  1.952   .     S
O1055  Zn1141  1.952   .     S
O1056  Zn2275  1.942   1_545 S
O1056  Zn1137  1.950   .     S
O1056  Zn1141  1.946   .     S
O1056  Zn1135  1.949   .     S
O1057  Zn1140  1.952   .     S
O1058  Zn1132  1.934   .     S
O1059  Zn1131  1.934   .     S
O1060  Zn1134  1.934   .     S
O1061  Zn1133  1.934   .     S
O1062  Zn1136  1.931   .     S
O1063  Zn1135  1.931   .     S
O1064  Zn1130  1.935   .     S
O1065  Zn1144  1.935   .     S
O1066  Zn1131  1.936   .     S
O1067  Zn1130  1.950   .     S
O1067  Zn1138  1.942   .     S
O1067  Zn1142  1.949   .     S
O1068  Zn1132  1.936   .     S
O1069  Zn1144  1.930   .     S
O1070  Zn1130  1.930   .     S
O1071  Zn1135  1.935   .     S
O1072  Zn1136  1.935   .     S
O1073  Zn1133  1.933   .     S
O1074  Zn1134  1.933   .     S
O1075  Zn567   1.934   1_655 S
O1076  Zn1138  1.934   .     S
O1077  Zn2285  1.934   .     S
O1078  Zn1133  1.946   .     S
O1078  Zn1139  1.942   .     S
O1078  Zn1143  1.949   .     S
O1079  Zn1140  1.934   .     S
O1080  Zn1143  1.931   .     S
O1081  Zn570   1.931   1_655 S
O1082  Zn1137  1.935   .     S
O1083  Zn2273  1.935   .     S
O1084  Zn566   1.936   1_655 S
O1085  Zn1139  1.936   .     S
O1086  Zn1129  1.930   .     S
O1087  Zn2281  1.930   .     S
O1088  Zn1142  1.935   .     S
O1089  Zn1136  1.949   .     S
O1089  C1869   1.275   .     S
O1090  Zn571   1.935   1_655 S
O1091  Zn2284  1.933   .     S
O1092  Zn1141  1.933   .     S
O1100  Zn1135  1.949   .     S
O1100  C1870   1.276   1_545 S
O1111  Zn1130  1.950   .     S
O1122  Zn1144  1.950   .     S
O1122  C156    1.278   1_655 S
O1128  Zn1132  1.952   .     S
Zn1129 O2227   1.935   1_545 S
Zn1131 O2200   1.942   .     S
Zn1134 O495    1.946   1_655 S
Zn1136 O2189   1.949   .     S
Zn1137 O2231   1.930   1_545 S
Zn1140 O2235   1.933   1_545 S
Zn1141 O2221   1.934   1_545 S
Zn1144 O506    1.950   1_655 S
C1145  N1601   1.427   .     S
C1145  C1148   1.410   .     A
C1145  C1795   1.406   .     S
C1146  C1158   1.408   .     A
C1146  N1602   1.428   .     S
C1146  C132    1.407   1_565 S
C1147  C1339   1.408   .     A
C1147  C1282   1.403   .     A
C1148  C1283   1.404   .     A
C1148  C1750   1.417   .     S
C1149  C1180   1.417   .     A
C1149  C1256   1.409   .     A
C1149  C1285   1.404   .     A
C1150  C1286   1.404   .     A
C1150  C1284   1.409   .     A
C1151  C1287   1.404   .     A
C1151  C1295   1.410   .     A
C1151  C1182   1.417   .     A
C1152  C1179   1.407   .     A
C1152  C1288   1.404   .     A
C1152  C39     1.415   1_565 S
C1153  C1190   1.408   .     A
C1153  C1289   1.404   .     A
C1153  C1184   1.416   .     A
C1154  C1290   1.403   .     A
C1154  C1201   1.408   .     A
C1154  C1185   1.417   .     S
C1155  C1212   1.411   .     A
C1155  C1291   1.405   .     A
C1155  C1758   1.416   .     S
C1156  C1350   1.409   .     A
C1156  C1183   1.416   .     A
C1156  C1292   1.404   .     A
C1157  C1277   1.405   .     A
C1157  N1603   1.428   .     S
C1157  C1159   1.410   .     A
C1158  C1293   1.403   .     A
C1158  C40     1.417   1_565 S
C1159  C1757   1.417   .     A
C1159  C1294   1.404   .     A
C1160  C1296   1.404   .     A
C1160  C1168   1.409   .     A
C1160  C1186   1.416   .     A
C1161  C1312   1.455   .     S
C1161  C1340   1.409   .     A
C1161  C1342   1.411   .     A
C1162  C1313   1.456   .     S
C1162  C1341   1.412   .     A
C1162  C1338   1.412   .     A
C1163  C1344   1.421   .     A
C1163  C1337   1.404   .     A
C1163  C1305   1.456   .     S
C1164  C1336   1.407   .     A
C1164  C1307   1.452   .     S
C1164  C1343   1.407   .     A
C1165  C1335   1.409   .     A
C1165  C1308   1.455   .     S
C1165  C1346   1.412   .     A
C1166  C1334   1.410   .     A
C1166  C1345   1.412   .     A
C1166  C1309   1.454   .     S
C1167  C1348   1.407   .     A
C1167  C1310   1.452   .     S
C1167  C1333   1.406   .     A
C1168  N1604   1.426   .     S
C1168  C1850   1.406   1_455 S
C1169  C1347   1.409   .     A
C1169  C1311   1.451   .     S
C1169  C1332   1.407   .     A
C1170  C1321   1.451   .     S
C1170  C1351   1.407   .     A
C1170  C1331   1.407   .     A
C1171  C1349   1.407   .     A
C1171  C1322   1.451   .     S
C1171  C1330   1.414   .     A
C1172  C1353   1.412   .     A
C1172  C1314   1.455   .     S
C1172  C1329   1.411   .     A
C1173  C1352   1.406   .     A
C1173  C1315   1.455   .     S
C1173  C1327   1.405   .     A
C1174  C1326   1.408   .     A
C1174  C1355   1.407   .     A
C1174  C1316   1.450   .     S
C1175  C1325   1.420   .     A
C1175  C1354   1.405   .     A
C1175  C1318   1.457   .     S
C1176  C1324   1.412   .     A
C1176  C1319   1.456   .     S
C1176  C1357   1.411   .     A
C1177  C1323   1.411   .     A
C1177  C1356   1.409   .     A
C1177  C1320   1.454   .     S
C1178  C1180   1.416   .     A
C1178  C1358   1.417   .     A
C1178  C1720   1.417   1_455 S
C1179  N1605   1.427   .     S
C1179  C124    1.407   1_565 S
C1180  C1931   1.417   1_455 S
C1181  C1182   1.416   .     A
C1181  C1360   1.417   .     A
C1181  C6      1.416   1_565 S
C1182  C3      1.417   1_565 S
C1183  C1184   1.415   1_556 S
C1184  C1183   1.415   1_554 S
C1185  C1731   1.417   1_455 A
C1185  C1186   1.416   1_556 S
C1186  C1727   1.416   1_455 S
C1186  C1185   1.416   1_554 S
C1187  H1439   1.112   .     S
C1187  C1188   1.522   .     S
C1187  H1450   1.110   .     S
C1187  O1665   1.416   .     S
C1188  H1484   1.110   .     S
C1188  H1473   1.110   .     S
C1188  H1461   1.111   .     S
C1189  O1666   1.418   .     S
C1189  H1506   1.112   .     S
C1189  C1191   1.522   .     S
C1189  H1495   1.110   .     S
C1190  N1606   1.428   .     S
C1190  C1276   1.408   .     A
C1191  H1520   1.110   .     S
C1191  H1519   1.110   .     S
C1191  H1517   1.110   .     S
C1192  H1522   1.104   .     S
C1192  O1667   1.421   .     S
C1192  C1193   1.518   .     S
C1192  H1521   1.104   .     S
C1193  H1526   1.110   .     S
C1193  H1525   1.110   .     S
C1193  H2095   1.109   1_455 S
C1194  H1528   1.116   .     S
C1194  H1527   1.110   .     S
C1194  C1195   1.521   .     S
C1194  O1668   1.414   .     S
C1195  H1531   1.110   .     S
C1195  H1529   1.110   .     S
C1195  H2102   1.110   .     S
C1196  O1669   1.412   .     S
C1196  H1533   1.115   .     S
C1196  H1532   1.114   .     S
C1196  C1197   1.521   .     S
C1197  H1534   1.111   .     S
C1197  H1536   1.111   .     S
C1197  H1537   1.110   .     S
C1198  H1539   1.113   .     S
C1198  O1670   1.417   .     S
C1198  C1199   1.522   .     S
C1198  H1538   1.110   .     S
C1199  H1541   1.111   .     S
C1199  H1540   1.110   .     S
C1199  H1542   1.110   .     S
C1200  H1544   1.110   .     S
C1200  O1671   1.417   .     S
C1200  C1202   1.522   .     S
C1200  H1543   1.117   .     S
C1201  N1607   1.427   .     S
C1201  C1849   1.404   1_455 S
C1202  H1547   1.108   .     S
C1202  H1545   1.109   .     S
C1202  H2120   1.109   .     S
C1203  H1550   1.116   .     S
C1203  C1204   1.520   .     S
C1203  O1673   1.415   .     S
C1203  H1549   1.110   .     S
C1204  H1553   1.110   .     S
C1204  H1552   1.109   .     S
C1204  H2123   1.110   1_455 S
C1205  H1554   1.110   .     S
C1205  H1555   1.118   .     S
C1205  C1206   1.519   .     S
C1205  O1674   1.417   .     S
C1206  H1558   1.111   .     S
C1206  H1556   1.110   .     S
C1207  H1560   1.110   .     S
C1207  C1208   1.523   .     S
C1207  O1675   1.418   .     S
C1207  H1561   1.110   .     S
C1208  H1563   1.108   .     S
C1208  H1564   1.110   .     S
C1208  H418    1.109   1_565 S
C1209  H1565   1.108   .     S
C1209  O1676   1.415   .     S
C1209  H1566   1.117   .     S
C1209  C1210   1.519   .     S
C1210  H1569   1.108   .     S
C1210  H1567   1.111   .     S
C1210  H1570   1.110   .     S
C1211  H1571   1.110   .     S
C1211  H1572   1.115   .     S
C1211  O1677   1.414   .     S
C1211  C1213   1.521   .     S
C1212  N1608   1.427   .     S
C1212  C1278   1.407   .     A
C1213  H1574   1.111   .     S
C1213  H1573   1.110   .     S
C1213  H1575   1.107   .     S
C1214  C1215   1.519   .     S
C1214  O1678   1.415   .     S
C1214  H1576   1.110   .     S
C1214  H1577   1.118   .     S
C1215  H1578   1.111   .     S
C1215  H1581   1.111   .     S
C1215  H436    1.110   1_565 S
C1216  H1583   1.109   .     S
C1216  O1679   1.413   .     S
C1216  H1582   1.115   .     S
C1217  H1584   1.111   .     S
C1217  H1586   1.105   .     S
C1217  H1585   1.111   .     S
C1217  C72     1.520   1_565 S
C1218  H1588   1.115   .     S
C1218  H1587   1.109   .     S
C1218  C1219   1.520   .     S
C1218  O1680   1.414   .     S
C1219  H1592   1.110   .     S
C1219  H1591   1.108   .     S
C1219  H1589   1.111   .     S
C1220  H1593   1.118   .     S
C1220  O1681   1.416   .     S
C1220  H1594   1.110   .     S
C1220  C1221   1.520   .     S
C1221  H1597   1.111   .     S
C1221  H1596   1.110   .     S
C1221  H1595   1.109   .     S
C1222  H1599   1.110   .     S
C1222  C1224   1.522   .     S
C1222  O1682   1.418   .     S
C1222  H1598   1.112   .     S
C1223  C1306   1.406   .     A
C1223  C1717   1.406   1_455 S
C1223  C1871   1.458   1_455 S
C1224  H1600   1.110   .     S
C1224  H1363   1.110   .     S
C1224  H1364   1.110   .     S
C1225  H1365   1.110   .     S
C1225  H1366   1.112   .     S
C1225  O1684   1.416   .     S
C1225  C1226   1.521   .     S
C1226  H1368   1.111   .     S
C1226  H1367   1.110   .     S
C1226  H1369   1.110   .     S
C1227  O1685   1.416   .     S
C1227  C1228   1.522   .     S
C1227  H1370   1.116   .     S
C1227  H1371   1.109   .     S
C1228  H1374   1.111   .     S
C1228  H1375   1.110   .     S
C1228  H1372   1.109   .     S
C1229  H1377   1.103   .     S
C1229  O1686   1.422   .     S
C1229  C1230   1.521   .     S
C1229  H1376   1.105   .     S
C1230  H1380   1.111   .     S
C1230  H1378   1.110   .     S
C1230  H1379   1.109   .     S
C1231  H1382   1.110   .     S
C1231  O1687   1.418   .     S
C1231  C1232   1.522   .     S
C1231  H1381   1.112   .     S
C1232  H1385   1.110   .     S
C1232  H1383   1.110   .     S
C1232  H1386   1.110   .     S
C1233  H1387   1.110   .     S
C1233  C1235   1.521   .     S
C1233  H1388   1.113   .     S
C1233  O1688   1.416   .     S
C1234  C1300   1.457   .     S
C1234  C1256   1.406   .     A
C1234  C1889   1.406   1_455 S
C1235  H1390   1.110   .     S
C1235  H1391   1.111   .     S
C1235  H1389   1.110   .     S
C1236  H1392   1.117   .     S
C1236  O1689   1.416   .     S
C1236  C1237   1.521   .     S
C1236  H1393   1.110   .     S
C1237  H1394   1.110   .     S
C1237  H1397   1.110   .     S
C1237  H1396   1.110   .     S
C1238  H1398   1.110   .     S
C1238  H1399   1.116   .     S
C1238  C1239   1.520   .     S
C1238  O1690   1.415   .     S
C1239  H1400   1.110   .     S
C1239  H1402   1.110   .     S
C1239  H1401   1.110   .     S
C1240  H1403   1.110   .     S
C1240  H1404   1.117   .     S
C1240  O1691   1.417   .     S
C1240  C1241   1.522   .     S
C1241  H1407   1.111   .     S
C1241  H1405   1.111   .     S
C1241  H1408   1.109   .     S
C1242  H1409   1.112   .     S
C1242  C1243   1.518   .     S
C1242  O1692   1.413   .     S
C1242  H1410   1.112   .     S
C1243  H1412   1.110   .     S
C1243  H1413   1.108   .     S
C1243  H1411   1.111   .     S
C1244  H1415   1.115   .     S
C1244  O1693   1.413   .     S
C1244  H1414   1.110   .     S
C1244  C1246   1.520   .     S
C1245  C1328   1.407   .     A
C1245  C140    1.405   1_565 S
C1245  C153    1.460   1_565 S
C1246  H1418   1.109   .     S
C1246  H1416   1.111   .     S
C1246  H1419   1.110   .     S
C1247  H1420   1.115   .     S
C1247  O1695   1.414   .     S
C1247  C1248   1.520   .     S
C1247  H1421   1.109   .     S
C1248  H1424   1.111   .     S
C1248  H1423   1.108   .     S
C1248  H1422   1.110   .     S
C1249  C1250   1.521   .     S
C1249  H1425   1.109   .     S
C1249  O1696   1.413   .     S
C1249  H1426   1.115   .     S
C1250  H1430   1.111   .     S
C1250  H1429   1.111   .     S
C1250  H1427   1.106   .     S
C1251  C1252   1.519   .     S
C1251  H1431   1.117   .     S
C1251  O1697   1.416   .     S
C1251  H1432   1.109   .     S
C1252  H1435   1.111   .     S
C1252  H1433   1.110   .     S
C1252  H1434   1.110   .     S
C1253  O1698   1.416   .     S
C1253  H1437   1.118   .     S
C1253  H1436   1.110   .     S
C1253  C1254   1.519   .     S
C1254  H1441   1.109   .     S
C1254  H1438   1.111   .     S
C1254  H1440   1.110   .     S
C1255  O1699   1.414   .     S
C1255  H1442   1.115   .     S
C1255  C1258   1.520   .     S
C1255  H1443   1.109   .     S
C1256  N1609   1.427   .     S
C1257  C1295   1.406   .     A
C1257  C1298   1.455   .     S
C1257  C195    1.404   1_565 S
C1258  H1446   1.111   .     S
C1258  H1444   1.110   .     S
C1258  H1445   1.108   .     S
C1259  H1448   1.110   .     S
C1259  H1451   1.110   .     S
C1259  H1449   1.110   .     S
C1259  N1601   1.448   .     S
C1260  H1453   1.110   .     S
C1260  H1455   1.110   .     S
C1260  H1454   1.110   .     S
C1260  N1609   1.448   .     S
C1261  N1610   1.447   .     S
C1261  H1459   1.109   .     S
C1261  H1457   1.110   .     S
C1261  H1458   1.109   .     S
C1262  H1463   1.110   .     S
C1262  H1462   1.110   .     S
C1262  H1464   1.110   .     S
C1262  N1611   1.448   .     S
C1263  H1466   1.110   .     S
C1263  H1468   1.110   .     S
C1263  N1612   1.449   .     S
C1263  H1467   1.111   .     S
C1264  H1474   1.110   .     S
C1264  H1471   1.110   .     S
C1264  H1470   1.110   .     S
C1264  N1613   1.448   .     S
C1265  H1477   1.110   .     S
C1265  H1476   1.110   .     S
C1265  H1478   1.110   .     S
C1265  N1614   1.448   .     S
C1266  H1482   1.109   .     S
C1266  H1480   1.110   .     S
C1266  N1615   1.448   .     S
C1266  H1481   1.110   .     S
C1267  H1485   1.110   .     S
C1267  N1616   1.448   .     S
C1267  H1486   1.110   .     S
C1267  H1487   1.110   .     S
C1268  C1303   1.459   .     S
C1268  C1350   1.408   .     A
C1269  H1489   1.109   .     S
C1269  H1490   1.110   .     S
C1269  N1602   1.449   .     S
C1269  H1491   1.110   .     S
C1270  H1493   1.110   .     S
C1270  H1496   1.110   .     S
C1270  H1494   1.110   .     S
C1270  N1603   1.448   .     S
C1271  H1498   1.110   .     S
C1271  H1500   1.109   .     S
C1271  N1604   1.447   .     S
C1271  H1499   1.109   .     S
C1272  H1502   1.111   .     S
C1272  H1504   1.110   .     S
C1272  N1605   1.444   .     S
C1272  H1503   1.108   .     S
C1273  H1508   1.110   .     S
C1273  H1507   1.110   .     S
C1273  H1509   1.110   .     S
C1273  N1606   1.449   .     S
C1274  N1607   1.448   .     S
C1274  H1512   1.109   .     S
C1274  H1513   1.110   .     S
C1274  H1511   1.110   .     S
C1275  H1516   1.110   .     S
C1275  N1608   1.448   .     S
C1275  H1515   1.110   .     S
C1275  H1518   1.110   .     S
C1276  C1304   1.458   .     S
C1277  C1301   1.455   .     S
C1277  C1773   1.404   .     S
C1278  C1302   1.460   .     S
C1278  C1740   1.406   .     S
C1279  H1361   1.081   .     S
C1279  C1358   1.404   .     A
C1279  C1285   1.385   .     A
C1280  C1359   1.404   .     A
C1280  C1283   1.386   .     A
C1280  H1472   1.081   .     S
C1281  H1524   1.081   .     S
C1281  C1360   1.404   .     A
C1281  C1287   1.387   .     A
C1282  C1286   1.384   .     A
C1282  H1535   1.081   .     S
C1283  H1546   1.080   .     S
C1284  N1610   1.426   .     S
C1285  H1557   1.080   .     S
C1286  H1568   1.080   .     S
C1287  H1579   1.081   .     S
C1288  H1590   1.081   .     S
C1288  C1293   1.384   1_556 S
C1289  H1362   1.080   .     S
C1289  C1292   1.385   1_554 S
C1290  H1373   1.081   .     S
C1290  C1296   1.384   1_556 S
C1291  H1384   1.080   .     S
C1291  C1294   1.386   1_554 S
C1292  H1395   1.081   .     S
C1292  C1289   1.385   1_556 S
C1293  H1406   1.080   .     S
C1293  C1288   1.384   1_554 S
C1294  H1417   1.081   .     S
C1294  C1291   1.386   1_556 S
C1295  N1611   1.428   .     S
C1296  H1428   1.080   .     S
C1296  C1290   1.384   1_554 S
C1297  O1700   1.278   .     A
C1298  O1618   1.275   .     A
C1298  O528    1.276   1_565 S
C1299  O1619   1.278   .     A
C1299  C1795   1.458   .     S
C1299  O2255   1.277   .     S
C1300  O1620   1.277   .     A
C1300  O2266   1.278   1_455 S
C1301  O2193   1.275   .     S
C1301  O2197   1.276   .     S
C1302  O2194   1.276   .     S
C1302  O2198   1.277   .     S
C1303  O1623   1.278   .     S
C1303  O1627   1.278   .     S
C1304  O1624   1.277   .     S
C1304  O1629   1.278   .     S
C1305  O1630   1.271   .     A
C1305  O1658   1.289   .     A
C1306  C1358   1.409   .     A
C1306  N1612   1.428   .     S
C1307  O1631   1.278   .     A
C1307  O1659   1.280   .     A
C1308  O1632   1.279   .     A
C1308  O1656   1.277   .     A
C1309  O1633   1.280   .     A
C1309  O1657   1.275   .     A
C1310  O1663   1.279   .     A
C1310  O1634   1.281   .     A
C1311  O1664   1.279   .     A
C1311  O1635   1.280   .     A
C1312  O1636   1.282   .     A
C1312  O1660   1.280   .     A
C1313  O1637   1.285   .     A
C1313  O1662   1.278   .     A
C1314  O1649   1.281   .     A
C1314  O1638   1.275   .     A
C1315  O1640   1.276   .     A
C1315  O1651   1.280   .     A
C1316  O1641   1.278   .     A
C1316  O1647   1.279   .     A
C1317  C1359   1.410   .     A
C1317  N1613   1.428   .     S
C1317  C1806   1.406   .     S
C1318  O1648   1.273   .     A
C1318  O1642   1.288   .     A
C1319  O1654   1.285   .     A
C1319  O1643   1.278   .     A
C1320  O1644   1.280   .     A
C1320  O1655   1.283   .     A
C1321  O1645   1.280   .     A
C1321  O1652   1.280   .     A
C1322  O1653   1.280   .     A
C1322  O1646   1.279   .     A
C1323  O1665   1.387   .     S
C1323  C1340   1.398   .     A
C1324  O1666   1.388   .     S
C1324  C1338   1.400   .     A
C1325  O1667   1.385   .     S
C1325  C1337   1.402   .     A
C1326  C1336   1.399   .     A
C1326  O1668   1.385   .     S
C1327  O1669   1.384   .     S
C1327  C1335   1.406   .     A
C1328  N1614   1.427   .     S
C1328  C1360   1.411   .     A
C1329  C1334   1.396   .     A
C1329  O1670   1.387   .     S
C1330  C1333   1.406   .     A
C1330  O1671   1.391   .     S
C1331  C1332   1.399   .     A
C1331  O1673   1.386   .     S
C1332  O1674   1.384   .     S
C1333  O1675   1.387   .     S
C1334  O1676   1.387   .     S
C1335  O1677   1.390   .     S
C1336  O1678   1.384   .     S
C1337  O1679   1.396   .     S
C1338  O1680   1.389   .     S
C1339  N1615   1.427   .     S
C1340  O1681   1.386   .     S
C1341  O1682   1.388   .     S
C1341  C1357   1.399   .     A
C1342  O1684   1.387   .     S
C1342  C1356   1.398   .     A
C1343  O1685   1.385   .     S
C1343  C1355   1.399   .     A
C1344  O1686   1.387   .     S
C1344  C1354   1.403   .     A
C1345  C1353   1.400   .     A
C1345  O1687   1.388   .     S
C1346  O1688   1.387   .     S
C1346  C1352   1.400   .     A
C1347  O1689   1.388   .     S
C1347  C1351   1.400   .     A
C1348  O1690   1.385   .     S
C1348  C1349   1.398   .     A
C1349  O1691   1.386   .     S
C1350  N1616   1.428   .     S
C1351  O1692   1.383   .     S
C1352  O1693   1.386   .     S
C1353  O1695   1.389   .     S
C1354  O1696   1.395   .     S
C1355  O1697   1.384   .     S
C1356  O1698   1.386   .     S
C1357  O1699   1.389   .     S
C1359  C1752   1.417   .     S
H1447  N1601   1.030   .     S
H1452  N1609   1.030   .     S
H1456  N1610   1.030   .     S
H1460  N1611   1.031   .     S
H1465  N1612   1.031   .     S
H1469  N1613   1.031   .     S
H1475  N1614   1.030   .     S
H1479  N1615   1.031   .     S
H1483  N1616   1.031   .     S
H1488  N1602   1.031   .     S
H1492  N1603   1.031   .     S
H1497  N1604   1.030   .     S
H1501  N1605   1.031   .     S
H1505  N1606   1.031   .     S
H1510  N1607   1.030   .     S
H1514  N1608   1.030   .     S
H1523  C1765   1.109   .     S
H1530  C1767   1.110   1_455 S
H1548  C1774   1.109   1_455 S
H1551  C1776   1.110   .     S
H1559  C62     1.109   1_565 S
O1617  Zn1712  1.946   .     S
O1617  Zn1701  1.950   .     S
O1617  Zn1704  1.942   .     S
O1618  Zn1703  1.952   .     S
O1619  Zn1706  1.952   .     S
O1620  Zn1705  1.952   .     S
O1621  Zn1715  1.949   .     S
O1621  C1873   1.275   1_455 S
O1622  Zn1714  1.949   .     S
O1622  C1874   1.276   1_455 S
O1623  Zn1709  1.950   .     S
O1624  Zn1701  1.950   .     S
O1625  Zn1711  1.952   .     S
O1625  C1873   1.276   1_455 S
O1626  Zn1710  1.952   .     S
O1626  C1874   1.277   1_455 S
O1627  Zn1713  1.952   .     S
O1628  Zn1709  1.950   .     S
O1628  Zn1713  1.946   .     S
O1628  Zn1707  1.949   .     S
O1629  Zn1712  1.952   .     S
O1630  Zn1704  1.934   .     S
O1631  Zn1703  1.934   .     S
O1632  Zn1706  1.934   .     S
O1633  Zn1705  1.934   .     S
O1634  Zn1708  1.931   .     S
O1635  Zn1707  1.931   .     S
O1636  Zn1702  1.935   .     S
O1637  Zn1716  1.935   .     S
O1638  Zn1703  1.936   .     S
O1639  Zn1702  1.950   .     S
O1639  Zn1710  1.942   .     S
O1639  Zn1714  1.949   .     S
O1639  Zn2278  1.946   1_455 S
O1640  Zn1704  1.936   .     S
O1641  Zn1716  1.930   .     S
O1642  Zn1702  1.930   .     S
O1643  Zn1707  1.935   .     S
O1644  Zn1708  1.935   .     S
O1645  Zn1705  1.933   .     S
O1646  Zn1706  1.933   .     S
O1647  Zn2283  1.934   .     S
O1648  Zn1710  1.934   .     S
O1649  Zn569   1.934   1_565 S
O1650  Zn1705  1.946   .     S
O1650  Zn1711  1.942   .     S
O1650  Zn1715  1.949   .     S
O1650  Zn2288  1.950   1_455 S
O1651  Zn1712  1.934   .     S
O1652  Zn1715  1.931   .     S
O1653  Zn2286  1.931   .     S
O1654  Zn1709  1.935   .     S
O1655  Zn557   1.935   1_565 S
O1656  Zn2282  1.936   .     S
O1657  Zn1711  1.936   .     S
O1658  Zn1701  1.930   .     S
O1659  Zn565   1.930   1_565 S
O1660  Zn1714  1.935   .     S
O1661  Zn1708  1.949   .     S
O1661  C153    1.275   1_565 S
O1662  Zn2287  1.935   .     S
O1663  Zn568   1.933   1_565 S
O1664  Zn1713  1.933   .     S
O1672  Zn1707  1.949   .     S
O1683  Zn1702  1.950   .     S
O1683  C1871   1.277   1_455 S
O1694  Zn1716  1.950   .     S
O1694  C1872   1.278   .     S
O1700  Zn1704  1.952   .     S
Zn1703 O484    1.942   1_565 S
Zn1706 O2211   1.946   .     S
Zn1708 O473    1.949   1_565 S
Zn1710 O2228   1.936   1_455 S
Zn1711 O2219   1.934   1_455 S
Zn1714 O2225   1.931   1_455 S
Zn1715 O2234   1.935   1_455 S
Zn1716 O2222   1.950   .     S
C1717  N2173   1.427   .     S
C1717  C1720   1.410   .     A
C1717  C1223   1.406   1_655 S
C1718  C1730   1.408   .     A
C1718  N2174   1.428   .     S
C1718  C704    1.407   1_565 S
C1719  C1911   1.408   .     A
C1719  C1854   1.403   .     A
C1720  C1855   1.404   .     A
C1720  C1178   1.417   1_655 S
C1721  C1752   1.417   .     A
C1721  C1828   1.409   .     A
C1721  C1857   1.404   .     A
C1722  C1858   1.404   .     A
C1722  C1856   1.409   .     A
C1723  C1859   1.404   .     A
C1723  C1867   1.410   .     A
C1723  C1754   1.417   .     A
C1724  C1751   1.407   .     A
C1724  C1860   1.404   .     A
C1724  C611    1.415   1_565 S
C1725  C1762   1.408   .     A
C1725  C1861   1.404   .     A
C1725  C1756   1.416   .     A
C1726  C1862   1.403   .     A
C1726  C1773   1.408   .     A
C1726  C1757   1.417   .     S
C1727  C1784   1.411   .     A
C1727  C1863   1.405   .     A
C1727  C1186   1.416   1_655 S
C1728  C1922   1.409   .     A
C1728  C1755   1.416   .     A
C1728  C1864   1.404   .     A
C1729  C1849   1.405   .     A
C1729  N2175   1.428   .     S
C1729  C1731   1.410   .     A
C1730  C1865   1.403   .     A
C1730  C612    1.417   1_565 S
C1731  C1185   1.417   1_655 A
C1731  C1866   1.404   .     A
C1732  C1868   1.404   .     A
C1732  C1740   1.409   .     A
C1732  C1758   1.416   .     A
C1733  C1884   1.455   .     S
C1733  C1912   1.409   .     A
C1733  C1914   1.411   .     A
C1734  C1885   1.456   .     S
C1734  C1913   1.412   .     A
C1734  C1910   1.412   .     A
C1735  C1916   1.421   .     A
C1735  C1909   1.404   .     A
C1735  C1877   1.456   .     S
C1736  C1908   1.407   .     A
C1736  C1879   1.452   .     S
C1736  C1915   1.407   .     A
C1737  C1907   1.409   .     A
C1737  C1880   1.455   .     S
C1737  C1918   1.412   .     A
C1738  C1906   1.410   .     A
C1738  C1917   1.412   .     A
C1738  C1881   1.454   .     S
C1739  C1920   1.407   .     A
C1739  C1882   1.452   .     S
C1739  C1905   1.406   .     A
C1740  N2176   1.426   .     S
C1741  C1919   1.409   .     A
C1741  C1883   1.451   .     S
C1741  C1904   1.407   .     A
C1742  C1893   1.451   .     S
C1742  C1923   1.407   .     A
C1742  C1903   1.407   .     A
C1743  C1921   1.407   .     A
C1743  C1894   1.451   .     S
C1743  C1902   1.414   .     A
C1744  C1925   1.412   .     A
C1744  C1886   1.455   .     S
C1744  C1901   1.411   .     A
C1745  C1924   1.406   .     A
C1745  C1887   1.455   .     S
C1745  C1899   1.405   .     A
C1746  C1898   1.408   .     A
C1746  C1927   1.407   .     A
C1746  C1888   1.450   .     S
C1747  C1897   1.420   .     A
C1747  C1926   1.405   .     A
C1747  C1890   1.457   .     S
C1748  C1896   1.412   .     A
C1748  C1891   1.456   .     S
C1748  C1929   1.411   .     A
C1749  C1895   1.411   .     A
C1749  C1928   1.409   .     A
C1749  C1892   1.454   .     S
C1750  C1752   1.416   .     A
C1750  C1930   1.417   .     A
C1751  N2177   1.427   .     S
C1751  C696    1.407   1_565 S
C1753  C1754   1.416   .     A
C1753  C1932   1.417   .     A
C1753  C578    1.416   1_565 S
C1754  C575    1.417   1_565 S
C1755  C1756   1.415   1_556 S
C1756  C1755   1.415   1_554 S
C1757  C1758   1.416   1_556 S
C1758  C1757   1.416   1_554 S
C1759  H2011   1.112   .     S
C1759  C1760   1.522   .     S
C1759  H2022   1.110   .     S
C1759  O2237   1.416   .     S
C1760  H2056   1.110   .     S
C1760  H2045   1.110   .     S
C1760  H2033   1.111   .     S
C1761  O2238   1.418   .     S
C1761  H2078   1.112   .     S
C1761  C1763   1.522   .     S
C1761  H2067   1.110   .     S
C1762  N2178   1.428   .     S
C1762  C1848   1.408   .     A
C1763  H2092   1.110   .     S
C1763  H2091   1.110   .     S
C1763  H2089   1.110   .     S
C1764  H2094   1.104   .     S
C1764  O2239   1.421   .     S
C1764  C1765   1.518   .     S
C1764  H2093   1.104   .     S
C1765  H2098   1.110   .     S
C1765  H2097   1.110   .     S
C1766  H2100   1.116   .     S
C1766  H2099   1.110   .     S
C1766  C1767   1.521   .     S
C1766  O2240   1.414   .     S
C1767  H2103   1.110   .     S
C1767  H2101   1.110   .     S
C1767  H1530   1.110   1_655 S
C1768  O2241   1.412   .     S
C1768  H2105   1.115   .     S
C1768  H2104   1.114   .     S
C1768  C1769   1.521   .     S
C1769  H2106   1.111   .     S
C1769  H2108   1.111   .     S
C1769  H2109   1.110   .     S
C1770  H2111   1.113   .     S
C1770  O2242   1.417   .     S
C1770  C1771   1.522   .     S
C1770  H2110   1.110   .     S
C1771  H2113   1.111   .     S
C1771  H2112   1.110   .     S
C1771  H2114   1.110   .     S
C1772  H2116   1.110   .     S
C1772  O2243   1.417   .     S
C1772  C1774   1.522   .     S
C1772  H2115   1.117   .     S
C1773  N2179   1.427   .     S
C1774  H2119   1.108   .     S
C1774  H2117   1.109   .     S
C1774  H1548   1.109   1_655 S
C1775  H2122   1.116   .     S
C1775  C1776   1.520   .     S
C1775  O2245   1.415   .     S
C1775  H2121   1.110   .     S
C1776  H2125   1.110   .     S
C1776  H2124   1.109   .     S
C1777  H2126   1.110   .     S
C1777  H2127   1.118   .     S
C1777  C1778   1.519   .     S
C1777  O2246   1.417   .     S
C1778  H2130   1.111   .     S
C1778  H2128   1.110   .     S
C1779  H2132   1.110   .     S
C1779  C1780   1.523   .     S
C1779  O2247   1.418   .     S
C1779  H2133   1.110   .     S
C1780  H2135   1.108   .     S
C1780  H2136   1.110   .     S
C1780  H990    1.109   1_565 S
C1781  H2137   1.108   .     S
C1781  O2248   1.415   .     S
C1781  H2138   1.117   .     S
C1781  C1782   1.519   .     S
C1782  H2141   1.108   .     S
C1782  H2139   1.111   .     S
C1782  H2142   1.110   .     S
C1783  H2143   1.110   .     S
C1783  H2144   1.115   .     S
C1783  O2249   1.414   .     S
C1783  C1785   1.521   .     S
C1784  N2180   1.427   .     S
C1784  C1850   1.407   .     A
C1785  H2146   1.111   .     S
C1785  H2145   1.110   .     S
C1785  H2147   1.107   .     S
C1786  C1787   1.519   .     S
C1786  O2250   1.415   .     S
C1786  H2148   1.110   .     S
C1786  H2149   1.118   .     S
C1787  H2150   1.111   .     S
C1787  H2153   1.111   .     S
C1787  H1008   1.110   1_565 S
C1788  H2155   1.109   .     S
C1788  O2251   1.413   .     S
C1788  H2154   1.115   .     S
C1789  H2156   1.111   .     S
C1789  H2158   1.105   .     S
C1789  H2157   1.111   .     S
C1789  C644    1.520   1_565 S
C1790  H2160   1.115   .     S
C1790  H2159   1.109   .     S
C1790  C1791   1.520   .     S
C1790  O2252   1.414   .     S
C1791  H2164   1.110   .     S
C1791  H2163   1.108   .     S
C1791  H2161   1.111   .     S
C1792  H2165   1.118   .     S
C1792  O2253   1.416   .     S
C1792  H2166   1.110   .     S
C1792  C1793   1.520   .     S
C1793  H2169   1.111   .     S
C1793  H2168   1.110   .     S
C1793  H2167   1.109   .     S
C1794  H2171   1.110   .     S
C1794  C1796   1.522   .     S
C1794  O2254   1.418   .     S
C1794  H2170   1.112   .     S
C1795  C1878   1.406   .     A
C1796  H2172   1.110   .     S
C1796  H1935   1.110   .     S
C1796  H1936   1.110   .     S
C1797  H1937   1.110   .     S
C1797  H1938   1.112   .     S
C1797  O2256   1.416   .     S
C1797  C1798   1.521   .     S
C1798  H1940   1.111   .     S
C1798  H1939   1.110   .     S
C1798  H1941   1.110   .     S
C1799  O2257   1.416   .     S
C1799  C1800   1.522   .     S
C1799  H1942   1.116   .     S
C1799  H1943   1.109   .     S
C1800  H1946   1.111   .     S
C1800  H1947   1.110   .     S
C1800  H1944   1.109   .     S
C1801  H1949   1.103   .     S
C1801  O2258   1.422   .     S
C1801  C1802   1.521   .     S
C1801  H1948   1.105   .     S
C1802  H1952   1.111   .     S
C1802  H1950   1.110   .     S
C1802  H1951   1.109   .     S
C1803  H1954   1.110   .     S
C1803  O2259   1.418   .     S
C1803  C1804   1.522   .     S
C1803  H1953   1.112   .     S
C1804  H1957   1.110   .     S
C1804  H1955   1.110   .     S
C1804  H1958   1.110   .     S
C1805  H1959   1.110   .     S
C1805  C1807   1.521   .     S
C1805  H1960   1.113   .     S
C1805  O2260   1.416   .     S
C1806  C1872   1.457   .     S
C1806  C1828   1.406   .     A
C1807  H1962   1.110   .     S
C1807  H1963   1.111   .     S
C1807  H1961   1.110   .     S
C1808  H1964   1.117   .     S
C1808  O2261   1.416   .     S
C1808  C1809   1.521   .     S
C1808  H1965   1.110   .     S
C1809  H1966   1.110   .     S
C1809  H1969   1.110   .     S
C1809  H1968   1.110   .     S
C1810  H1970   1.110   .     S
C1810  H1971   1.116   .     S
C1810  C1811   1.520   .     S
C1810  O2262   1.415   .     S
C1811  H1972   1.110   .     S
C1811  H1974   1.110   .     S
C1811  H1973   1.110   .     S
C1812  H1975   1.110   .     S
C1812  H1976   1.117   .     S
C1812  O2263   1.417   .     S
C1812  C1813   1.522   .     S
C1813  H1979   1.111   .     S
C1813  H1977   1.111   .     S
C1813  H1980   1.109   .     S
C1814  H1981   1.112   .     S
C1814  C1815   1.518   .     S
C1814  O2264   1.413   .     S
C1814  H1982   1.112   .     S
C1815  H1984   1.110   .     S
C1815  H1985   1.108   .     S
C1815  H1983   1.111   .     S
C1816  H1987   1.115   .     S
C1816  O2265   1.413   .     S
C1816  H1986   1.110   .     S
C1816  C1818   1.520   .     S
C1817  C1900   1.407   .     A
C1817  C712    1.405   1_565 S
C1817  C725    1.460   1_565 S
C1818  H1990   1.109   .     S
C1818  H1988   1.111   .     S
C1818  H1991   1.110   .     S
C1819  H1992   1.115   .     S
C1819  O2267   1.414   .     S
C1819  C1820   1.520   .     S
C1819  H1993   1.109   .     S
C1820  H1996   1.111   .     S
C1820  H1995   1.108   .     S
C1820  H1994   1.110   .     S
C1821  C1822   1.521   .     S
C1821  H1997   1.109   .     S
C1821  O2268   1.413   .     S
C1821  H1998   1.115   .     S
C1822  H2002   1.111   .     S
C1822  H2001   1.111   .     S
C1822  H1999   1.106   .     S
C1823  C1824   1.519   .     S
C1823  H2003   1.117   .     S
C1823  O2269   1.416   .     S
C1823  H2004   1.109   .     S
C1824  H2007   1.111   .     S
C1824  H2005   1.110   .     S
C1824  H2006   1.110   .     S
C1825  O2270   1.416   .     S
C1825  H2009   1.118   .     S
C1825  H2008   1.110   .     S
C1825  C1826   1.519   .     S
C1826  H2013   1.109   .     S
C1826  H2010   1.111   .     S
C1826  H2012   1.110   .     S
C1827  O2271   1.414   .     S
C1827  H2014   1.115   .     S
C1827  C1830   1.520   .     S
C1827  H2015   1.109   .     S
C1828  N2181   1.427   .     S
C1829  C1867   1.406   .     A
C1829  C1870   1.455   .     S
C1829  C767    1.404   1_565 S
C1830  H2018   1.111   .     S
C1830  H2016   1.110   .     S
C1830  H2017   1.108   .     S
C1831  H2020   1.110   .     S
C1831  H2023   1.110   .     S
C1831  H2021   1.110   .     S
C1831  N2173   1.448   .     S
C1832  H2025   1.110   .     S
C1832  H2027   1.110   .     S
C1832  H2026   1.110   .     S
C1832  N2181   1.448   .     S
C1833  N2182   1.447   .     S
C1833  H2031   1.109   .     S
C1833  H2029   1.110   .     S
C1833  H2030   1.109   .     S
C1834  H2035   1.110   .     S
C1834  H2034   1.110   .     S
C1834  H2036   1.110   .     S
C1834  N2183   1.448   .     S
C1835  H2038   1.110   .     S
C1835  H2040   1.110   .     S
C1835  N2184   1.449   .     S
C1835  H2039   1.111   .     S
C1836  H2046   1.110   .     S
C1836  H2043   1.110   .     S
C1836  H2042   1.110   .     S
C1836  N2185   1.448   .     S
C1837  H2049   1.110   .     S
C1837  H2048   1.110   .     S
C1837  H2050   1.110   .     S
C1837  N2186   1.448   .     S
C1838  H2054   1.109   .     S
C1838  H2052   1.110   .     S
C1838  N2187   1.448   .     S
C1838  H2053   1.110   .     S
C1839  H2057   1.110   .     S
C1839  N2188   1.448   .     S
C1839  H2058   1.110   .     S
C1839  H2059   1.110   .     S
C1840  C1875   1.459   .     S
C1840  C1922   1.408   .     A
C1841  H2061   1.109   .     S
C1841  H2062   1.110   .     S
C1841  N2174   1.449   .     S
C1841  H2063   1.110   .     S
C1842  H2065   1.110   .     S
C1842  H2068   1.110   .     S
C1842  H2066   1.110   .     S
C1842  N2175   1.448   .     S
C1843  H2070   1.110   .     S
C1843  H2072   1.109   .     S
C1843  N2176   1.447   .     S
C1843  H2071   1.109   .     S
C1844  H2074   1.111   .     S
C1844  H2076   1.110   .     S
C1844  N2177   1.444   .     S
C1844  H2075   1.108   .     S
C1845  H2080   1.110   .     S
C1845  H2079   1.110   .     S
C1845  H2081   1.110   .     S
C1845  N2178   1.449   .     S
C1846  N2179   1.448   .     S
C1846  H2084   1.109   .     S
C1846  H2085   1.110   .     S
C1846  H2083   1.110   .     S
C1847  H2088   1.110   .     S
C1847  N2180   1.448   .     S
C1847  H2087   1.110   .     S
C1847  H2090   1.110   .     S
C1848  C1876   1.458   .     S
C1849  C1873   1.455   .     S
C1849  C1201   1.404   1_655 S
C1850  C1874   1.460   .     S
C1850  C1168   1.406   1_655 S
C1851  H1933   1.081   .     S
C1851  C1930   1.404   .     A
C1851  C1857   1.385   .     A
C1852  C1931   1.404   .     A
C1852  C1855   1.386   .     A
C1852  H2044   1.081   .     S
C1853  H2096   1.081   .     S
C1853  C1932   1.404   .     A
C1853  C1859   1.387   .     A
C1854  C1858   1.384   .     A
C1854  H2107   1.081   .     S
C1855  H2118   1.080   .     S
C1856  N2182   1.426   .     S
C1857  H2129   1.080   .     S
C1858  H2140   1.080   .     S
C1859  H2151   1.081   .     S
C1860  H2162   1.081   .     S
C1860  C1865   1.384   1_556 S
C1861  H1934   1.080   .     S
C1861  C1864   1.385   1_554 S
C1862  H1945   1.081   .     S
C1862  C1868   1.384   1_556 S
C1863  H1956   1.080   .     S
C1863  C1866   1.386   1_554 S
C1864  H1967   1.081   .     S
C1864  C1861   1.385   1_556 S
C1865  H1978   1.080   .     S
C1865  C1860   1.384   1_554 S
C1866  H1989   1.081   .     S
C1866  C1863   1.386   1_556 S
C1867  N2183   1.428   .     S
C1868  H2000   1.080   .     S
C1868  C1862   1.384   1_554 S
C1869  O2272   1.278   .     A
C1870  O2190   1.275   .     A
C1870  O1100   1.276   1_565 S
C1871  O2191   1.278   .     A
C1871  C1223   1.458   1_655 S
C1871  O1683   1.277   1_655 S
C1872  O2192   1.277   .     A
C1873  O1621   1.275   1_655 S
C1873  O1625   1.276   1_655 S
C1874  O1622   1.276   1_655 S
C1874  O1626   1.277   1_655 S
C1875  O2195   1.278   .     S
C1875  O2199   1.278   .     S
C1876  O2196   1.277   .     S
C1876  O2201   1.278   .     S
C1877  O2202   1.271   .     A
C1877  O2230   1.289   .     A
C1878  C1930   1.409   .     A
C1878  N2184   1.428   .     S
C1879  O2203   1.278   .     A
C1879  O2231   1.280   .     A
C1880  O2204   1.279   .     A
C1880  O2228   1.277   .     A
C1881  O2205   1.280   .     A
C1881  O2229   1.275   .     A
C1882  O2235   1.279   .     A
C1882  O2206   1.281   .     A
C1883  O2236   1.279   .     A
C1883  O2207   1.280   .     A
C1884  O2208   1.282   .     A
C1884  O2232   1.280   .     A
C1885  O2209   1.285   .     A
C1885  O2234   1.278   .     A
C1886  O2221   1.281   .     A
C1886  O2210   1.275   .     A
C1887  O2212   1.276   .     A
C1887  O2223   1.280   .     A
C1888  O2213   1.278   .     A
C1888  O2219   1.279   .     A
C1889  C1931   1.410   .     A
C1889  N2185   1.428   .     S
C1889  C1234   1.406   1_655 S
C1890  O2220   1.273   .     A
C1890  O2214   1.288   .     A
C1891  O2226   1.285   .     A
C1891  O2215   1.278   .     A
C1892  O2216   1.280   .     A
C1892  O2227   1.283   .     A
C1893  O2217   1.280   .     A
C1893  O2224   1.280   .     A
C1894  O2225   1.280   .     A
C1894  O2218   1.279   .     A
C1895  O2237   1.387   .     S
C1895  C1912   1.398   .     A
C1896  O2238   1.388   .     S
C1896  C1910   1.400   .     A
C1897  O2239   1.385   .     S
C1897  C1909   1.402   .     A
C1898  C1908   1.399   .     A
C1898  O2240   1.385   .     S
C1899  O2241   1.384   .     S
C1899  C1907   1.406   .     A
C1900  N2186   1.427   .     S
C1900  C1932   1.411   .     A
C1901  C1906   1.396   .     A
C1901  O2242   1.387   .     S
C1902  C1905   1.406   .     A
C1902  O2243   1.391   .     S
C1903  C1904   1.399   .     A
C1903  O2245   1.386   .     S
C1904  O2246   1.384   .     S
C1905  O2247   1.387   .     S
C1906  O2248   1.387   .     S
C1907  O2249   1.390   .     S
C1908  O2250   1.384   .     S
C1909  O2251   1.396   .     S
C1910  O2252   1.389   .     S
C1911  N2187   1.427   .     S
C1912  O2253   1.386   .     S
C1913  O2254   1.388   .     S
C1913  C1929   1.399   .     A
C1914  O2256   1.387   .     S
C1914  C1928   1.398   .     A
C1915  O2257   1.385   .     S
C1915  C1927   1.399   .     A
C1916  O2258   1.387   .     S
C1916  C1926   1.403   .     A
C1917  C1925   1.400   .     A
C1917  O2259   1.388   .     S
C1918  O2260   1.387   .     S
C1918  C1924   1.400   .     A
C1919  O2261   1.388   .     S
C1919  C1923   1.400   .     A
C1920  O2262   1.385   .     S
C1920  C1921   1.398   .     A
C1921  O2263   1.386   .     S
C1922  N2188   1.428   .     S
C1923  O2264   1.383   .     S
C1924  O2265   1.386   .     S
C1925  O2267   1.389   .     S
C1926  O2268   1.395   .     S
C1927  O2269   1.384   .     S
C1928  O2270   1.386   .     S
C1929  O2271   1.389   .     S
C1931  C1180   1.417   1_655 S
H2019  N2173   1.030   .     S
H2024  N2181   1.030   .     S
H2028  N2182   1.030   .     S
H2032  N2183   1.031   .     S
H2037  N2184   1.031   .     S
H2041  N2185   1.031   .     S
H2047  N2186   1.030   .     S
H2051  N2187   1.031   .     S
H2055  N2188   1.031   .     S
H2060  N2174   1.031   .     S
H2064  N2175   1.031   .     S
H2069  N2176   1.030   .     S
H2073  N2177   1.031   .     S
H2077  N2178   1.031   .     S
H2082  N2179   1.030   .     S
H2086  N2180   1.030   .     S
H2095  C1193   1.109   1_655 S
H2123  C1204   1.110   1_655 S
H2131  C634    1.109   1_565 S
O2189  Zn2284  1.946   .     S
O2189  Zn2273  1.950   .     S
O2189  Zn2276  1.942   .     S
O2190  Zn2275  1.952   .     S
O2191  Zn2278  1.952   .     S
O2192  Zn2277  1.952   .     S
O2193  Zn2287  1.949   .     S
O2194  Zn2286  1.949   .     S
O2195  Zn2281  1.950   .     S
O2196  Zn2273  1.950   .     S
O2197  Zn2283  1.952   .     S
O2198  Zn2282  1.952   .     S
O2199  Zn2285  1.952   .     S
O2200  Zn2281  1.950   .     S
O2200  Zn2285  1.946   .     S
O2200  Zn2279  1.949   .     S
O2201  Zn2284  1.952   .     S
O2202  Zn2276  1.934   .     S
O2203  Zn2275  1.934   .     S
O2204  Zn2278  1.934   .     S
O2205  Zn2277  1.934   .     S
O2206  Zn2280  1.931   .     S
O2207  Zn2279  1.931   .     S
O2208  Zn2274  1.935   .     S
O2209  Zn2288  1.935   .     S
O2210  Zn2275  1.936   .     S
O2211  Zn2274  1.950   .     S
O2211  Zn2282  1.942   .     S
O2211  Zn2286  1.949   .     S
O2212  Zn2276  1.936   .     S
O2213  Zn2288  1.930   .     S
O2214  Zn2274  1.930   .     S
O2215  Zn2279  1.935   .     S
O2216  Zn2280  1.935   .     S
O2217  Zn2277  1.933   .     S
O2218  Zn2278  1.933   .     S
O2219  Zn1711  1.934   1_655 S
O2220  Zn2282  1.934   .     S
O2221  Zn1141  1.934   1_565 S
O2222  Zn2277  1.946   .     S
O2222  Zn2283  1.942   .     S
O2222  Zn2287  1.949   .     S
O2223  Zn2284  1.934   .     S
O2224  Zn2287  1.931   .     S
O2225  Zn1714  1.931   1_655 S
O2226  Zn2281  1.935   .     S
O2227  Zn1129  1.935   1_565 S
O2228  Zn1710  1.936   1_655 S
O2229  Zn2283  1.936   .     S
O2230  Zn2273  1.930   .     S
O2231  Zn1137  1.930   1_565 S
O2232  Zn2286  1.935   .     S
O2233  Zn2280  1.949   .     S
O2233  C725    1.275   1_565 S
O2234  Zn1715  1.935   1_655 S
O2235  Zn1140  1.933   1_565 S
O2236  Zn2285  1.933   .     S
O2244  Zn2279  1.949   .     S
O2255  Zn2274  1.950   .     S
O2266  Zn2288  1.950   .     S
O2266  C1300   1.278   1_655 S
O2272  Zn2276  1.952   .     S
Zn2275 O1056   1.942   1_565 S
Zn2278 O1639   1.946   1_655 S
Zn2280 O1045   1.949   1_565 S
Zn2288 O1650   1.950   1_655 S
