data_str_m2_o1_o17_pcu_sym.140
_audit_creation_date              2020-01-03
_audit_creation_method            'Materials Studio'
_symmetry_space_group_name_H-M    'P1'
_symmetry_Int_Tables_number       1
_symmetry_cell_setting            triclinic
loop_
_symmetry_equiv_pos_as_xyz
  x,y,z
_cell_length_a                    32.4394
_cell_length_b                    28.5352
_cell_length_c                    30.1578
_cell_angle_alpha                 90.0513
_cell_angle_beta                  90.4875
_cell_angle_gamma                 90.0699
loop_
_atom_site_label
_atom_site_type_symbol
_atom_site_fract_x
_atom_site_fract_y
_atom_site_fract_z
_atom_site_U_iso_or_equiv
_atom_site_adp_type
_atom_site_occupancy
C1     C     0.08749   0.16664   0.24969   0.00000  Uiso   1.00
C2     C     0.24582   0.16671   0.25035   0.00000  Uiso   1.00
C3     C     0.17023   0.25200   0.02323   0.00000  Uiso   1.00
C4     C     0.16458   0.08127   0.47678   0.00000  Uiso   1.00
C5     C     0.02196   0.14026   0.28211   0.00000  Uiso   1.00
C6     C     0.31130   0.19322   0.21812   0.00000  Uiso   1.00
C7     C     0.31212   0.14061   0.28286   0.00000  Uiso   1.00
C8     C     0.02115   0.19318   0.21766   0.00000  Uiso   1.00
C9     C     0.29049   0.16691   0.25059   0.00000  Uiso   1.00
C10    C     0.04279   0.16651   0.24961   0.00000  Uiso   1.00
C11    C     0.14173   0.02475   0.22153   0.00000  Uiso   1.00
C12    C     0.19161   0.30858   0.27847   0.00000  Uiso   1.00
C13    C     0.19159   0.02488   0.27848   0.00000  Uiso   1.00
C14    C     0.14175   0.30845   0.22151   0.00000  Uiso   1.00
C15    C     0.16696   0.16665   0.16427   0.00000  Uiso   1.00
C16    C     0.16665   0.16668   0.33573   0.00000  Uiso   1.00
C17    C     0.16563   0.12406   0.40730   0.00000  Uiso   1.00
C18    C     0.16896   0.20922   0.09271   0.00000  Uiso   1.00
C19    C     0.16682   0.16668   0.38417   0.00000  Uiso   1.00
C20    C     0.16738   0.16662   0.11584   0.00000  Uiso   1.00
C21    C     0.16829   0.20928   0.40741   0.00000  Uiso   1.00
C22    C     0.16606   0.12401   0.09260   0.00000  Uiso   1.00
C23    C     0.16855   0.20956   0.45360   0.00000  Uiso   1.00
C24    C     0.16610   0.12372   0.04641   0.00000  Uiso   1.00
C25    C     0.16730   0.16664   0.47676   0.00000  Uiso   1.00
C26    C     0.16746   0.16663   0.02325   0.00000  Uiso   1.00
C27    C     0.16584   0.12374   0.45349   0.00000  Uiso   1.00
C28    C     0.16893   0.20953   0.04652   0.00000  Uiso   1.00
C29    C     0.17003   0.25201   0.47700   0.00000  Uiso   1.00
C30    C     0.16470   0.08126   0.02301   0.00000  Uiso   1.00
Cu31   Cu    0.16667   0.21355   0.25000   0.00000  Uiso   1.00
Cu32   Cu    0.16667   0.11978   0.25000   0.00000  Uiso   1.00
H33    H     0.16448   0.09108   0.38943   0.00000  Uiso   1.00
H34    H     0.17006   0.24220   0.11058   0.00000  Uiso   1.00
H35    H     0.16929   0.24227   0.38962   0.00000  Uiso   1.00
H36    H     0.16486   0.09104   0.11039   0.00000  Uiso   1.00
H37    H     0.17102   0.28518   0.45956   0.00000  Uiso   1.00
H38    H     0.16365   0.04810   0.04045   0.00000  Uiso   1.00
H39    H     0.17135   0.28515   0.04077   0.00000  Uiso   1.00
H40    H     0.16346   0.04812   0.45925   0.00000  Uiso   1.00
H41    H     0.12175   0.04342   0.19874   0.00000  Uiso   1.00
H42    H     0.21159   0.28991   0.30126   0.00000  Uiso   1.00
H43    H     0.21152   0.04366   0.30130   0.00000  Uiso   1.00
H44    H     0.12184   0.28968   0.19867   0.00000  Uiso   1.00
N45    N     0.16667   0.28402   0.25000   0.00000  Uiso   1.00
N46    N     0.16667   0.04931   0.25000   0.00000  Uiso   1.00
O47    O     0.10655   0.20625   0.24999   0.00000  Uiso   1.00
O48    O     0.22679   0.12709   0.25000   0.00000  Uiso   1.00
O49    O     0.22679   0.20625   0.25000   0.00000  Uiso   1.00
O50    O     0.10655   0.12709   0.24999   0.00000  Uiso   1.00
O51    O     0.16666   0.20627   0.18513   0.00000  Uiso   1.00
O52    O     0.16668   0.12707   0.31487   0.00000  Uiso   1.00
O53    O     0.16668   0.20627   0.31487   0.00000  Uiso   1.00
O54    O     0.16666   0.12707   0.18513   0.00000  Uiso   1.00
C55    C     0.04557   0.11557   0.31735   0.00000  Uiso   1.00
O56    O     0.06138   0.13799   0.34760   0.00000  Uiso   1.00
O57    O     0.05055   0.06700   0.31511   0.00000  Uiso   1.00
H58    H     0.06776   0.05432   0.34061   0.00000  Uiso   1.00
C59    C     0.28773   0.21773   0.18265   0.00000  Uiso   1.00
O60    O     0.26906   0.19493   0.15460   0.00000  Uiso   1.00
O61    O     0.28611   0.26666   0.18217   0.00000  Uiso   1.00
H62    H     0.26862   0.27918   0.15681   0.00000  Uiso   1.00
C63    C     0.28977   0.11578   0.31886   0.00000  Uiso   1.00
O64    O     0.26433   0.13679   0.34098   0.00000  Uiso   1.00
O65    O     0.29779   0.06851   0.32732   0.00000  Uiso   1.00
H66    H     0.28063   0.05566   0.35250   0.00000  Uiso   1.00
C67    C     0.04361   0.21814   0.18192   0.00000  Uiso   1.00
O68    O     0.03821   0.26007   0.17605   0.00000  Uiso   1.00
O69    O     0.07108   0.19347   0.15519   0.00000  Uiso   1.00
H70    H     0.08421   0.21413   0.13190   0.00000  Uiso   1.00
C71    C     0.42082   0.16664   0.24969   0.00000  Uiso   1.00
C72    C     0.57916   0.16671   0.25035   0.00000  Uiso   1.00
C73    C     0.50357   0.25200   0.02323   0.00000  Uiso   1.00
C74    C     0.49791   0.08127   0.47678   0.00000  Uiso   1.00
C75    C     0.35529   0.14026   0.28211   0.00000  Uiso   1.00
C76    C     0.64464   0.19322   0.21812   0.00000  Uiso   1.00
C77    C     0.64546   0.14061   0.28286   0.00000  Uiso   1.00
C78    C     0.35448   0.19318   0.21766   0.00000  Uiso   1.00
C79    C     0.62382   0.16691   0.25059   0.00000  Uiso   1.00
C80    C     0.37612   0.16651   0.24961   0.00000  Uiso   1.00
C81    C     0.47506   0.02475   0.22153   0.00000  Uiso   1.00
C82    C     0.52494   0.30858   0.27847   0.00000  Uiso   1.00
C83    C     0.52493   0.02488   0.27848   0.00000  Uiso   1.00
C84    C     0.47508   0.30845   0.22151   0.00000  Uiso   1.00
C85    C     0.50029   0.16665   0.16427   0.00000  Uiso   1.00
C86    C     0.49999   0.16668   0.33573   0.00000  Uiso   1.00
C87    C     0.49896   0.12406   0.40730   0.00000  Uiso   1.00
C88    C     0.50229   0.20922   0.09271   0.00000  Uiso   1.00
C89    C     0.50015   0.16668   0.38417   0.00000  Uiso   1.00
C90    C     0.50071   0.16662   0.11584   0.00000  Uiso   1.00
C91    C     0.50162   0.20928   0.40741   0.00000  Uiso   1.00
C92    C     0.49939   0.12401   0.09260   0.00000  Uiso   1.00
C93    C     0.50189   0.20956   0.45360   0.00000  Uiso   1.00
C94    C     0.49943   0.12372   0.04641   0.00000  Uiso   1.00
C95    C     0.50063   0.16664   0.47676   0.00000  Uiso   1.00
C96    C     0.50080   0.16663   0.02325   0.00000  Uiso   1.00
C97    C     0.49917   0.12374   0.45349   0.00000  Uiso   1.00
C98    C     0.50226   0.20953   0.04652   0.00000  Uiso   1.00
C99    C     0.50337   0.25201   0.47700   0.00000  Uiso   1.00
C100   C     0.49803   0.08126   0.02301   0.00000  Uiso   1.00
Cu101  Cu    0.50000   0.21355   0.25000   0.00000  Uiso   1.00
Cu102  Cu    0.50000   0.11978   0.25000   0.00000  Uiso   1.00
H103   H     0.49782   0.09108   0.38943   0.00000  Uiso   1.00
H104   H     0.50339   0.24220   0.11058   0.00000  Uiso   1.00
H105   H     0.50262   0.24227   0.38962   0.00000  Uiso   1.00
H106   H     0.49819   0.09104   0.11039   0.00000  Uiso   1.00
H107   H     0.50435   0.28518   0.45956   0.00000  Uiso   1.00
H108   H     0.49699   0.04810   0.04045   0.00000  Uiso   1.00
H109   H     0.50469   0.28515   0.04077   0.00000  Uiso   1.00
H110   H     0.49680   0.04812   0.45925   0.00000  Uiso   1.00
H111   H     0.45509   0.04342   0.19874   0.00000  Uiso   1.00
H112   H     0.54492   0.28991   0.30126   0.00000  Uiso   1.00
H113   H     0.54486   0.04366   0.30130   0.00000  Uiso   1.00
H114   H     0.45517   0.28968   0.19867   0.00000  Uiso   1.00
N115   N     0.50000   0.28402   0.25000   0.00000  Uiso   1.00
N116   N     0.50000   0.04931   0.25000   0.00000  Uiso   1.00
O117   O     0.43988   0.20625   0.24999   0.00000  Uiso   1.00
O118   O     0.56012   0.12709   0.25000   0.00000  Uiso   1.00
O119   O     0.56012   0.20625   0.25000   0.00000  Uiso   1.00
O120   O     0.43988   0.12709   0.24999   0.00000  Uiso   1.00
O121   O     0.49999   0.20627   0.18513   0.00000  Uiso   1.00
O122   O     0.50001   0.12707   0.31487   0.00000  Uiso   1.00
O123   O     0.50001   0.20627   0.31487   0.00000  Uiso   1.00
O124   O     0.49999   0.12707   0.18513   0.00000  Uiso   1.00
C125   C     0.37890   0.11557   0.31735   0.00000  Uiso   1.00
O126   O     0.39471   0.13799   0.34760   0.00000  Uiso   1.00
O127   O     0.38389   0.06700   0.31511   0.00000  Uiso   1.00
H128   H     0.40110   0.05432   0.34061   0.00000  Uiso   1.00
C129   C     0.62107   0.21773   0.18265   0.00000  Uiso   1.00
O130   O     0.60239   0.19493   0.15460   0.00000  Uiso   1.00
O131   O     0.61944   0.26666   0.18217   0.00000  Uiso   1.00
H132   H     0.60195   0.27918   0.15681   0.00000  Uiso   1.00
C133   C     0.62311   0.11578   0.31886   0.00000  Uiso   1.00
O134   O     0.59766   0.13679   0.34098   0.00000  Uiso   1.00
O135   O     0.63112   0.06851   0.32732   0.00000  Uiso   1.00
H136   H     0.61396   0.05566   0.35250   0.00000  Uiso   1.00
C137   C     0.37695   0.21814   0.18192   0.00000  Uiso   1.00
O138   O     0.37154   0.26007   0.17605   0.00000  Uiso   1.00
O139   O     0.40441   0.19347   0.15519   0.00000  Uiso   1.00
H140   H     0.41754   0.21413   0.13190   0.00000  Uiso   1.00
C141   C     0.75416   0.16664   0.24969   0.00000  Uiso   1.00
C142   C     0.91249   0.16671   0.25035   0.00000  Uiso   1.00
C143   C     0.83690   0.25200   0.02323   0.00000  Uiso   1.00
C144   C     0.83125   0.08127   0.47678   0.00000  Uiso   1.00
C145   C     0.68863   0.14026   0.28211   0.00000  Uiso   1.00
C146   C     0.97797   0.19322   0.21812   0.00000  Uiso   1.00
C147   C     0.97879   0.14061   0.28286   0.00000  Uiso   1.00
C148   C     0.68781   0.19318   0.21766   0.00000  Uiso   1.00
C149   C     0.95715   0.16691   0.25059   0.00000  Uiso   1.00
C150   C     0.70946   0.16651   0.24961   0.00000  Uiso   1.00
C151   C     0.80840   0.02475   0.22153   0.00000  Uiso   1.00
C152   C     0.85827   0.30858   0.27847   0.00000  Uiso   1.00
C153   C     0.85826   0.02488   0.27848   0.00000  Uiso   1.00
C154   C     0.80842   0.30845   0.22151   0.00000  Uiso   1.00
C155   C     0.83363   0.16665   0.16427   0.00000  Uiso   1.00
C156   C     0.83332   0.16668   0.33573   0.00000  Uiso   1.00
C157   C     0.83229   0.12406   0.40730   0.00000  Uiso   1.00
C158   C     0.83563   0.20922   0.09271   0.00000  Uiso   1.00
C159   C     0.83349   0.16668   0.38417   0.00000  Uiso   1.00
C160   C     0.83405   0.16662   0.11584   0.00000  Uiso   1.00
C161   C     0.83495   0.20928   0.40741   0.00000  Uiso   1.00
C162   C     0.83272   0.12401   0.09260   0.00000  Uiso   1.00
C163   C     0.83522   0.20956   0.45360   0.00000  Uiso   1.00
C164   C     0.83277   0.12372   0.04641   0.00000  Uiso   1.00
C165   C     0.83397   0.16664   0.47676   0.00000  Uiso   1.00
C166   C     0.83413   0.16663   0.02325   0.00000  Uiso   1.00
C167   C     0.83250   0.12374   0.45349   0.00000  Uiso   1.00
C168   C     0.83559   0.20953   0.04652   0.00000  Uiso   1.00
C169   C     0.83670   0.25201   0.47700   0.00000  Uiso   1.00
C170   C     0.83136   0.08126   0.02301   0.00000  Uiso   1.00
Cu171  Cu    0.83333   0.21355   0.25000   0.00000  Uiso   1.00
Cu172  Cu    0.83333   0.11978   0.25000   0.00000  Uiso   1.00
H173   H     0.83115   0.09108   0.38943   0.00000  Uiso   1.00
H174   H     0.83673   0.24220   0.11058   0.00000  Uiso   1.00
H175   H     0.83595   0.24227   0.38962   0.00000  Uiso   1.00
H176   H     0.83152   0.09104   0.11039   0.00000  Uiso   1.00
H177   H     0.83768   0.28518   0.45956   0.00000  Uiso   1.00
H178   H     0.83032   0.04810   0.04045   0.00000  Uiso   1.00
H179   H     0.83802   0.28515   0.04077   0.00000  Uiso   1.00
H180   H     0.83013   0.04812   0.45925   0.00000  Uiso   1.00
H181   H     0.78842   0.04342   0.19874   0.00000  Uiso   1.00
H182   H     0.87825   0.28991   0.30126   0.00000  Uiso   1.00
H183   H     0.87819   0.04366   0.30130   0.00000  Uiso   1.00
H184   H     0.78850   0.28968   0.19867   0.00000  Uiso   1.00
N185   N     0.83333   0.28402   0.25000   0.00000  Uiso   1.00
N186   N     0.83333   0.04931   0.25000   0.00000  Uiso   1.00
O187   O     0.77321   0.20625   0.24999   0.00000  Uiso   1.00
O188   O     0.89345   0.12709   0.25000   0.00000  Uiso   1.00
O189   O     0.89345   0.20625   0.25000   0.00000  Uiso   1.00
O190   O     0.77321   0.12709   0.24999   0.00000  Uiso   1.00
O191   O     0.83332   0.20627   0.18513   0.00000  Uiso   1.00
O192   O     0.83334   0.12707   0.31487   0.00000  Uiso   1.00
O193   O     0.83334   0.20627   0.31487   0.00000  Uiso   1.00
O194   O     0.83332   0.12707   0.18513   0.00000  Uiso   1.00
C195   C     0.71224   0.11557   0.31735   0.00000  Uiso   1.00
O196   O     0.72805   0.13799   0.34760   0.00000  Uiso   1.00
O197   O     0.71722   0.06700   0.31511   0.00000  Uiso   1.00
H198   H     0.73443   0.05432   0.34061   0.00000  Uiso   1.00
C199   C     0.95440   0.21773   0.18265   0.00000  Uiso   1.00
O200   O     0.93573   0.19493   0.15460   0.00000  Uiso   1.00
O201   O     0.95278   0.26666   0.18217   0.00000  Uiso   1.00
H202   H     0.93529   0.27918   0.15681   0.00000  Uiso   1.00
C203   C     0.95644   0.11578   0.31886   0.00000  Uiso   1.00
O204   O     0.93099   0.13679   0.34098   0.00000  Uiso   1.00
O205   O     0.96445   0.06851   0.32732   0.00000  Uiso   1.00
H206   H     0.94730   0.05566   0.35250   0.00000  Uiso   1.00
C207   C     0.71028   0.21814   0.18192   0.00000  Uiso   1.00
O208   O     0.70487   0.26007   0.17605   0.00000  Uiso   1.00
O209   O     0.73774   0.19347   0.15519   0.00000  Uiso   1.00
H210   H     0.75088   0.21413   0.13190   0.00000  Uiso   1.00
C211   C     0.08749   0.49997   0.24969   0.00000  Uiso   1.00
C212   C     0.24582   0.50004   0.25035   0.00000  Uiso   1.00
C213   C     0.17023   0.58533   0.02323   0.00000  Uiso   1.00
C214   C     0.16458   0.41461   0.47678   0.00000  Uiso   1.00
C215   C     0.02196   0.47360   0.28211   0.00000  Uiso   1.00
C216   C     0.31130   0.52655   0.21812   0.00000  Uiso   1.00
C217   C     0.31212   0.47394   0.28286   0.00000  Uiso   1.00
C218   C     0.02115   0.52651   0.21766   0.00000  Uiso   1.00
C219   C     0.29049   0.50025   0.25059   0.00000  Uiso   1.00
C220   C     0.04279   0.49984   0.24961   0.00000  Uiso   1.00
C221   C     0.14173   0.35808   0.22153   0.00000  Uiso   1.00
C222   C     0.19161   0.64192   0.27847   0.00000  Uiso   1.00
C223   C     0.19159   0.35821   0.27848   0.00000  Uiso   1.00
C224   C     0.14175   0.64179   0.22151   0.00000  Uiso   1.00
C225   C     0.16696   0.49998   0.16427   0.00000  Uiso   1.00
C226   C     0.16665   0.50001   0.33573   0.00000  Uiso   1.00
C227   C     0.16563   0.45739   0.40730   0.00000  Uiso   1.00
C228   C     0.16896   0.54255   0.09271   0.00000  Uiso   1.00
C229   C     0.16682   0.50001   0.38417   0.00000  Uiso   1.00
C230   C     0.16738   0.49995   0.11584   0.00000  Uiso   1.00
C231   C     0.16829   0.54261   0.40741   0.00000  Uiso   1.00
C232   C     0.16606   0.45735   0.09260   0.00000  Uiso   1.00
C233   C     0.16855   0.54290   0.45360   0.00000  Uiso   1.00
C234   C     0.16610   0.45705   0.04641   0.00000  Uiso   1.00
C235   C     0.16730   0.49998   0.47676   0.00000  Uiso   1.00
C236   C     0.16746   0.49996   0.02325   0.00000  Uiso   1.00
C237   C     0.16584   0.45707   0.45349   0.00000  Uiso   1.00
C238   C     0.16893   0.54287   0.04652   0.00000  Uiso   1.00
C239   C     0.17003   0.58535   0.47700   0.00000  Uiso   1.00
C240   C     0.16470   0.41459   0.02301   0.00000  Uiso   1.00
Cu241  Cu    0.16667   0.54689   0.25000   0.00000  Uiso   1.00
Cu242  Cu    0.16667   0.45311   0.25000   0.00000  Uiso   1.00
H243   H     0.16448   0.42442   0.38943   0.00000  Uiso   1.00
H244   H     0.17006   0.57553   0.11058   0.00000  Uiso   1.00
H245   H     0.16929   0.57560   0.38962   0.00000  Uiso   1.00
H246   H     0.16486   0.42437   0.11039   0.00000  Uiso   1.00
H247   H     0.17102   0.61851   0.45956   0.00000  Uiso   1.00
H248   H     0.16365   0.38143   0.04045   0.00000  Uiso   1.00
H249   H     0.17135   0.61848   0.04077   0.00000  Uiso   1.00
H250   H     0.16346   0.38145   0.45925   0.00000  Uiso   1.00
H251   H     0.12175   0.37676   0.19874   0.00000  Uiso   1.00
H252   H     0.21159   0.62325   0.30126   0.00000  Uiso   1.00
H253   H     0.21152   0.37699   0.30130   0.00000  Uiso   1.00
H254   H     0.12184   0.62301   0.19867   0.00000  Uiso   1.00
N255   N     0.16667   0.61736   0.25000   0.00000  Uiso   1.00
N256   N     0.16667   0.38264   0.25000   0.00000  Uiso   1.00
O257   O     0.10655   0.53958   0.24999   0.00000  Uiso   1.00
O258   O     0.22679   0.46042   0.25000   0.00000  Uiso   1.00
O259   O     0.22679   0.53958   0.25000   0.00000  Uiso   1.00
O260   O     0.10655   0.46042   0.24999   0.00000  Uiso   1.00
O261   O     0.16666   0.53960   0.18513   0.00000  Uiso   1.00
O262   O     0.16668   0.46040   0.31487   0.00000  Uiso   1.00
O263   O     0.16668   0.53960   0.31487   0.00000  Uiso   1.00
O264   O     0.16666   0.46040   0.18513   0.00000  Uiso   1.00
C265   C     0.04557   0.44890   0.31735   0.00000  Uiso   1.00
O266   O     0.06138   0.47133   0.34760   0.00000  Uiso   1.00
O267   O     0.05055   0.40033   0.31511   0.00000  Uiso   1.00
H268   H     0.06776   0.38766   0.34061   0.00000  Uiso   1.00
C269   C     0.28773   0.55107   0.18265   0.00000  Uiso   1.00
O270   O     0.26906   0.52827   0.15460   0.00000  Uiso   1.00
O271   O     0.28611   0.59999   0.18217   0.00000  Uiso   1.00
H272   H     0.26862   0.61251   0.15681   0.00000  Uiso   1.00
C273   C     0.28977   0.44912   0.31886   0.00000  Uiso   1.00
O274   O     0.26433   0.47012   0.34098   0.00000  Uiso   1.00
O275   O     0.29779   0.40184   0.32732   0.00000  Uiso   1.00
H276   H     0.28063   0.38900   0.35250   0.00000  Uiso   1.00
C277   C     0.04361   0.55147   0.18192   0.00000  Uiso   1.00
O278   O     0.03821   0.59340   0.17605   0.00000  Uiso   1.00
O279   O     0.07108   0.52680   0.15519   0.00000  Uiso   1.00
H280   H     0.08421   0.54746   0.13190   0.00000  Uiso   1.00
C281   C     0.42082   0.49997   0.24969   0.00000  Uiso   1.00
C282   C     0.57916   0.50004   0.25035   0.00000  Uiso   1.00
C283   C     0.50357   0.58533   0.02323   0.00000  Uiso   1.00
C284   C     0.49791   0.41461   0.47678   0.00000  Uiso   1.00
C285   C     0.35529   0.47360   0.28211   0.00000  Uiso   1.00
C286   C     0.64464   0.52655   0.21812   0.00000  Uiso   1.00
C287   C     0.64546   0.47394   0.28286   0.00000  Uiso   1.00
C288   C     0.35448   0.52651   0.21766   0.00000  Uiso   1.00
C289   C     0.62382   0.50025   0.25059   0.00000  Uiso   1.00
C290   C     0.37612   0.49984   0.24961   0.00000  Uiso   1.00
C291   C     0.47506   0.35808   0.22153   0.00000  Uiso   1.00
C292   C     0.52494   0.64192   0.27847   0.00000  Uiso   1.00
C293   C     0.52493   0.35821   0.27848   0.00000  Uiso   1.00
C294   C     0.47508   0.64179   0.22151   0.00000  Uiso   1.00
C295   C     0.50029   0.49998   0.16427   0.00000  Uiso   1.00
C296   C     0.49999   0.50001   0.33573   0.00000  Uiso   1.00
C297   C     0.49896   0.45739   0.40730   0.00000  Uiso   1.00
C298   C     0.50229   0.54255   0.09271   0.00000  Uiso   1.00
C299   C     0.50015   0.50001   0.38417   0.00000  Uiso   1.00
C300   C     0.50071   0.49995   0.11584   0.00000  Uiso   1.00
C301   C     0.50162   0.54261   0.40741   0.00000  Uiso   1.00
C302   C     0.49939   0.45735   0.09260   0.00000  Uiso   1.00
C303   C     0.50189   0.54290   0.45360   0.00000  Uiso   1.00
C304   C     0.49943   0.45705   0.04641   0.00000  Uiso   1.00
C305   C     0.50063   0.49998   0.47676   0.00000  Uiso   1.00
C306   C     0.50080   0.49996   0.02325   0.00000  Uiso   1.00
C307   C     0.49917   0.45707   0.45349   0.00000  Uiso   1.00
C308   C     0.50226   0.54287   0.04652   0.00000  Uiso   1.00
C309   C     0.50337   0.58535   0.47700   0.00000  Uiso   1.00
C310   C     0.49803   0.41459   0.02301   0.00000  Uiso   1.00
Cu311  Cu    0.50000   0.54689   0.25000   0.00000  Uiso   1.00
Cu312  Cu    0.50000   0.45311   0.25000   0.00000  Uiso   1.00
H313   H     0.49782   0.42442   0.38943   0.00000  Uiso   1.00
H314   H     0.50339   0.57553   0.11058   0.00000  Uiso   1.00
H315   H     0.50262   0.57560   0.38962   0.00000  Uiso   1.00
H316   H     0.49819   0.42437   0.11039   0.00000  Uiso   1.00
H317   H     0.50435   0.61851   0.45956   0.00000  Uiso   1.00
H318   H     0.49699   0.38143   0.04045   0.00000  Uiso   1.00
H319   H     0.50469   0.61848   0.04077   0.00000  Uiso   1.00
H320   H     0.49680   0.38145   0.45925   0.00000  Uiso   1.00
H321   H     0.45509   0.37676   0.19874   0.00000  Uiso   1.00
H322   H     0.54492   0.62325   0.30126   0.00000  Uiso   1.00
H323   H     0.54486   0.37699   0.30130   0.00000  Uiso   1.00
H324   H     0.45517   0.62301   0.19867   0.00000  Uiso   1.00
N325   N     0.50000   0.61736   0.25000   0.00000  Uiso   1.00
N326   N     0.50000   0.38264   0.25000   0.00000  Uiso   1.00
O327   O     0.43988   0.53958   0.24999   0.00000  Uiso   1.00
O328   O     0.56012   0.46042   0.25000   0.00000  Uiso   1.00
O329   O     0.56012   0.53958   0.25000   0.00000  Uiso   1.00
O330   O     0.43988   0.46042   0.24999   0.00000  Uiso   1.00
O331   O     0.49999   0.53960   0.18513   0.00000  Uiso   1.00
O332   O     0.50001   0.46040   0.31487   0.00000  Uiso   1.00
O333   O     0.50001   0.53960   0.31487   0.00000  Uiso   1.00
O334   O     0.49999   0.46040   0.18513   0.00000  Uiso   1.00
C335   C     0.37890   0.44890   0.31735   0.00000  Uiso   1.00
O336   O     0.39471   0.47133   0.34760   0.00000  Uiso   1.00
O337   O     0.38389   0.40033   0.31511   0.00000  Uiso   1.00
H338   H     0.40110   0.38766   0.34061   0.00000  Uiso   1.00
C339   C     0.62107   0.55107   0.18265   0.00000  Uiso   1.00
O340   O     0.60239   0.52827   0.15460   0.00000  Uiso   1.00
O341   O     0.61944   0.59999   0.18217   0.00000  Uiso   1.00
H342   H     0.60195   0.61251   0.15681   0.00000  Uiso   1.00
C343   C     0.62311   0.44912   0.31886   0.00000  Uiso   1.00
O344   O     0.59766   0.47012   0.34098   0.00000  Uiso   1.00
O345   O     0.63112   0.40184   0.32732   0.00000  Uiso   1.00
H346   H     0.61396   0.38900   0.35250   0.00000  Uiso   1.00
C347   C     0.37695   0.55147   0.18192   0.00000  Uiso   1.00
O348   O     0.37154   0.59340   0.17605   0.00000  Uiso   1.00
O349   O     0.40441   0.52680   0.15519   0.00000  Uiso   1.00
H350   H     0.41754   0.54746   0.13190   0.00000  Uiso   1.00
C351   C     0.75416   0.49997   0.24969   0.00000  Uiso   1.00
C352   C     0.91249   0.50004   0.25035   0.00000  Uiso   1.00
C353   C     0.83690   0.58533   0.02323   0.00000  Uiso   1.00
C354   C     0.83125   0.41461   0.47678   0.00000  Uiso   1.00
C355   C     0.68863   0.47360   0.28211   0.00000  Uiso   1.00
C356   C     0.97797   0.52655   0.21812   0.00000  Uiso   1.00
C357   C     0.97879   0.47394   0.28286   0.00000  Uiso   1.00
C358   C     0.68781   0.52651   0.21766   0.00000  Uiso   1.00
C359   C     0.95715   0.50025   0.25059   0.00000  Uiso   1.00
C360   C     0.70946   0.49984   0.24961   0.00000  Uiso   1.00
C361   C     0.80840   0.35808   0.22153   0.00000  Uiso   1.00
C362   C     0.85827   0.64192   0.27847   0.00000  Uiso   1.00
C363   C     0.85826   0.35821   0.27848   0.00000  Uiso   1.00
C364   C     0.80842   0.64179   0.22151   0.00000  Uiso   1.00
C365   C     0.83363   0.49998   0.16427   0.00000  Uiso   1.00
C366   C     0.83332   0.50001   0.33573   0.00000  Uiso   1.00
C367   C     0.83229   0.45739   0.40730   0.00000  Uiso   1.00
C368   C     0.83563   0.54255   0.09271   0.00000  Uiso   1.00
C369   C     0.83349   0.50001   0.38417   0.00000  Uiso   1.00
C370   C     0.83405   0.49995   0.11584   0.00000  Uiso   1.00
C371   C     0.83495   0.54261   0.40741   0.00000  Uiso   1.00
C372   C     0.83272   0.45735   0.09260   0.00000  Uiso   1.00
C373   C     0.83522   0.54290   0.45360   0.00000  Uiso   1.00
C374   C     0.83277   0.45705   0.04641   0.00000  Uiso   1.00
C375   C     0.83397   0.49998   0.47676   0.00000  Uiso   1.00
C376   C     0.83413   0.49996   0.02325   0.00000  Uiso   1.00
C377   C     0.83250   0.45707   0.45349   0.00000  Uiso   1.00
C378   C     0.83559   0.54287   0.04652   0.00000  Uiso   1.00
C379   C     0.83670   0.58535   0.47700   0.00000  Uiso   1.00
C380   C     0.83136   0.41459   0.02301   0.00000  Uiso   1.00
Cu381  Cu    0.83333   0.54689   0.25000   0.00000  Uiso   1.00
Cu382  Cu    0.83333   0.45311   0.25000   0.00000  Uiso   1.00
H383   H     0.83115   0.42442   0.38943   0.00000  Uiso   1.00
H384   H     0.83673   0.57553   0.11058   0.00000  Uiso   1.00
H385   H     0.83595   0.57560   0.38962   0.00000  Uiso   1.00
H386   H     0.83152   0.42437   0.11039   0.00000  Uiso   1.00
H387   H     0.83768   0.61851   0.45956   0.00000  Uiso   1.00
H388   H     0.83032   0.38143   0.04045   0.00000  Uiso   1.00
H389   H     0.83802   0.61848   0.04077   0.00000  Uiso   1.00
H390   H     0.83013   0.38145   0.45925   0.00000  Uiso   1.00
H391   H     0.78842   0.37676   0.19874   0.00000  Uiso   1.00
H392   H     0.87825   0.62325   0.30126   0.00000  Uiso   1.00
H393   H     0.87819   0.37699   0.30130   0.00000  Uiso   1.00
H394   H     0.78850   0.62301   0.19867   0.00000  Uiso   1.00
N395   N     0.83333   0.61736   0.25000   0.00000  Uiso   1.00
N396   N     0.83333   0.38264   0.25000   0.00000  Uiso   1.00
O397   O     0.77321   0.53958   0.24999   0.00000  Uiso   1.00
O398   O     0.89345   0.46042   0.25000   0.00000  Uiso   1.00
O399   O     0.89345   0.53958   0.25000   0.00000  Uiso   1.00
O400   O     0.77321   0.46042   0.24999   0.00000  Uiso   1.00
O401   O     0.83332   0.53960   0.18513   0.00000  Uiso   1.00
O402   O     0.83334   0.46040   0.31487   0.00000  Uiso   1.00
O403   O     0.83334   0.53960   0.31487   0.00000  Uiso   1.00
O404   O     0.83332   0.46040   0.18513   0.00000  Uiso   1.00
C405   C     0.71224   0.44890   0.31735   0.00000  Uiso   1.00
O406   O     0.72805   0.47133   0.34760   0.00000  Uiso   1.00
O407   O     0.71722   0.40033   0.31511   0.00000  Uiso   1.00
H408   H     0.73443   0.38766   0.34061   0.00000  Uiso   1.00
C409   C     0.95440   0.55107   0.18265   0.00000  Uiso   1.00
O410   O     0.93573   0.52827   0.15460   0.00000  Uiso   1.00
O411   O     0.95278   0.59999   0.18217   0.00000  Uiso   1.00
H412   H     0.93529   0.61251   0.15681   0.00000  Uiso   1.00
C413   C     0.95644   0.44912   0.31886   0.00000  Uiso   1.00
O414   O     0.93099   0.47012   0.34098   0.00000  Uiso   1.00
O415   O     0.96445   0.40184   0.32732   0.00000  Uiso   1.00
H416   H     0.94730   0.38900   0.35250   0.00000  Uiso   1.00
C417   C     0.71028   0.55147   0.18192   0.00000  Uiso   1.00
O418   O     0.70487   0.59340   0.17605   0.00000  Uiso   1.00
O419   O     0.73774   0.52680   0.15519   0.00000  Uiso   1.00
H420   H     0.75088   0.54746   0.13190   0.00000  Uiso   1.00
C421   C     0.08749   0.83330   0.24969   0.00000  Uiso   1.00
C422   C     0.24582   0.83337   0.25035   0.00000  Uiso   1.00
C423   C     0.17023   0.91866   0.02323   0.00000  Uiso   1.00
C424   C     0.16458   0.74794   0.47678   0.00000  Uiso   1.00
C425   C     0.02196   0.80693   0.28211   0.00000  Uiso   1.00
C426   C     0.31130   0.85989   0.21812   0.00000  Uiso   1.00
C427   C     0.31212   0.80727   0.28286   0.00000  Uiso   1.00
C428   C     0.02115   0.85985   0.21766   0.00000  Uiso   1.00
C429   C     0.29049   0.83358   0.25059   0.00000  Uiso   1.00
C430   C     0.04279   0.83318   0.24961   0.00000  Uiso   1.00
C431   C     0.14173   0.69142   0.22153   0.00000  Uiso   1.00
C432   C     0.19161   0.97525   0.27847   0.00000  Uiso   1.00
C433   C     0.19159   0.69155   0.27848   0.00000  Uiso   1.00
C434   C     0.14175   0.97512   0.22151   0.00000  Uiso   1.00
C435   C     0.16696   0.83331   0.16427   0.00000  Uiso   1.00
C436   C     0.16665   0.83335   0.33573   0.00000  Uiso   1.00
C437   C     0.16563   0.79073   0.40730   0.00000  Uiso   1.00
C438   C     0.16896   0.87589   0.09271   0.00000  Uiso   1.00
C439   C     0.16682   0.83335   0.38417   0.00000  Uiso   1.00
C440   C     0.16738   0.83328   0.11584   0.00000  Uiso   1.00
C441   C     0.16829   0.87595   0.40741   0.00000  Uiso   1.00
C442   C     0.16606   0.79068   0.09260   0.00000  Uiso   1.00
C443   C     0.16855   0.87623   0.45360   0.00000  Uiso   1.00
C444   C     0.16610   0.79038   0.04641   0.00000  Uiso   1.00
C445   C     0.16730   0.83331   0.47676   0.00000  Uiso   1.00
C446   C     0.16746   0.83330   0.02325   0.00000  Uiso   1.00
C447   C     0.16584   0.79041   0.45349   0.00000  Uiso   1.00
C448   C     0.16893   0.87620   0.04652   0.00000  Uiso   1.00
C449   C     0.17003   0.91868   0.47700   0.00000  Uiso   1.00
C450   C     0.16470   0.74793   0.02301   0.00000  Uiso   1.00
Cu451  Cu    0.16667   0.88022   0.25000   0.00000  Uiso   1.00
Cu452  Cu    0.16667   0.78645   0.25000   0.00000  Uiso   1.00
H453   H     0.16448   0.75775   0.38943   0.00000  Uiso   1.00
H454   H     0.17006   0.90886   0.11058   0.00000  Uiso   1.00
H455   H     0.16929   0.90893   0.38962   0.00000  Uiso   1.00
H456   H     0.16486   0.75770   0.11039   0.00000  Uiso   1.00
H457   H     0.17102   0.95185   0.45956   0.00000  Uiso   1.00
H458   H     0.16365   0.71476   0.04045   0.00000  Uiso   1.00
H459   H     0.17135   0.95182   0.04077   0.00000  Uiso   1.00
H460   H     0.16346   0.71479   0.45925   0.00000  Uiso   1.00
H461   H     0.12175   0.71009   0.19874   0.00000  Uiso   1.00
H462   H     0.21159   0.95658   0.30126   0.00000  Uiso   1.00
H463   H     0.21152   0.71032   0.30130   0.00000  Uiso   1.00
H464   H     0.12184   0.95635   0.19867   0.00000  Uiso   1.00
N465   N     0.16667   0.95069   0.25000   0.00000  Uiso   1.00
N466   N     0.16667   0.71598   0.25000   0.00000  Uiso   1.00
O467   O     0.10655   0.87291   0.24999   0.00000  Uiso   1.00
O468   O     0.22679   0.79375   0.25000   0.00000  Uiso   1.00
O469   O     0.22679   0.87291   0.25000   0.00000  Uiso   1.00
O470   O     0.10655   0.79375   0.24999   0.00000  Uiso   1.00
O471   O     0.16666   0.87293   0.18513   0.00000  Uiso   1.00
O472   O     0.16668   0.79373   0.31487   0.00000  Uiso   1.00
O473   O     0.16668   0.87293   0.31487   0.00000  Uiso   1.00
O474   O     0.16666   0.79373   0.18513   0.00000  Uiso   1.00
C475   C     0.04557   0.78223   0.31735   0.00000  Uiso   1.00
O476   O     0.06138   0.80466   0.34760   0.00000  Uiso   1.00
O477   O     0.05055   0.73366   0.31511   0.00000  Uiso   1.00
H478   H     0.06776   0.72099   0.34061   0.00000  Uiso   1.00
C479   C     0.28773   0.88440   0.18265   0.00000  Uiso   1.00
O480   O     0.26906   0.86160   0.15460   0.00000  Uiso   1.00
O481   O     0.28611   0.93333   0.18217   0.00000  Uiso   1.00
H482   H     0.26862   0.94584   0.15681   0.00000  Uiso   1.00
C483   C     0.28977   0.78245   0.31886   0.00000  Uiso   1.00
O484   O     0.26433   0.80346   0.34098   0.00000  Uiso   1.00
O485   O     0.29779   0.73517   0.32732   0.00000  Uiso   1.00
H486   H     0.28063   0.72233   0.35250   0.00000  Uiso   1.00
C487   C     0.04361   0.88480   0.18192   0.00000  Uiso   1.00
O488   O     0.03821   0.92674   0.17605   0.00000  Uiso   1.00
O489   O     0.07108   0.86014   0.15519   0.00000  Uiso   1.00
H490   H     0.08421   0.88079   0.13190   0.00000  Uiso   1.00
C491   C     0.42082   0.83330   0.24969   0.00000  Uiso   1.00
C492   C     0.57916   0.83337   0.25035   0.00000  Uiso   1.00
C493   C     0.50357   0.91866   0.02323   0.00000  Uiso   1.00
C494   C     0.49791   0.74794   0.47678   0.00000  Uiso   1.00
C495   C     0.35529   0.80693   0.28211   0.00000  Uiso   1.00
C496   C     0.64464   0.85989   0.21812   0.00000  Uiso   1.00
C497   C     0.64546   0.80727   0.28286   0.00000  Uiso   1.00
C498   C     0.35448   0.85985   0.21766   0.00000  Uiso   1.00
C499   C     0.62382   0.83358   0.25059   0.00000  Uiso   1.00
C500   C     0.37612   0.83318   0.24961   0.00000  Uiso   1.00
C501   C     0.47506   0.69142   0.22153   0.00000  Uiso   1.00
C502   C     0.52494   0.97525   0.27847   0.00000  Uiso   1.00
C503   C     0.52493   0.69155   0.27848   0.00000  Uiso   1.00
C504   C     0.47508   0.97512   0.22151   0.00000  Uiso   1.00
C505   C     0.50029   0.83331   0.16427   0.00000  Uiso   1.00
C506   C     0.49999   0.83335   0.33573   0.00000  Uiso   1.00
C507   C     0.49896   0.79073   0.40730   0.00000  Uiso   1.00
C508   C     0.50229   0.87589   0.09271   0.00000  Uiso   1.00
C509   C     0.50015   0.83335   0.38417   0.00000  Uiso   1.00
C510   C     0.50071   0.83328   0.11584   0.00000  Uiso   1.00
C511   C     0.50162   0.87595   0.40741   0.00000  Uiso   1.00
C512   C     0.49939   0.79068   0.09260   0.00000  Uiso   1.00
C513   C     0.50189   0.87623   0.45360   0.00000  Uiso   1.00
C514   C     0.49943   0.79038   0.04641   0.00000  Uiso   1.00
C515   C     0.50063   0.83331   0.47676   0.00000  Uiso   1.00
C516   C     0.50080   0.83330   0.02325   0.00000  Uiso   1.00
C517   C     0.49917   0.79041   0.45349   0.00000  Uiso   1.00
C518   C     0.50226   0.87620   0.04652   0.00000  Uiso   1.00
C519   C     0.50337   0.91868   0.47700   0.00000  Uiso   1.00
C520   C     0.49803   0.74793   0.02301   0.00000  Uiso   1.00
Cu521  Cu    0.50000   0.88022   0.25000   0.00000  Uiso   1.00
Cu522  Cu    0.50000   0.78645   0.25000   0.00000  Uiso   1.00
H523   H     0.49782   0.75775   0.38943   0.00000  Uiso   1.00
H524   H     0.50339   0.90886   0.11058   0.00000  Uiso   1.00
H525   H     0.50262   0.90893   0.38962   0.00000  Uiso   1.00
H526   H     0.49819   0.75770   0.11039   0.00000  Uiso   1.00
H527   H     0.50435   0.95185   0.45956   0.00000  Uiso   1.00
H528   H     0.49699   0.71476   0.04045   0.00000  Uiso   1.00
H529   H     0.50469   0.95182   0.04077   0.00000  Uiso   1.00
H530   H     0.49680   0.71479   0.45925   0.00000  Uiso   1.00
H531   H     0.45509   0.71009   0.19874   0.00000  Uiso   1.00
H532   H     0.54492   0.95658   0.30126   0.00000  Uiso   1.00
H533   H     0.54486   0.71032   0.30130   0.00000  Uiso   1.00
H534   H     0.45517   0.95635   0.19867   0.00000  Uiso   1.00
N535   N     0.50000   0.95069   0.25000   0.00000  Uiso   1.00
N536   N     0.50000   0.71598   0.25000   0.00000  Uiso   1.00
O537   O     0.43988   0.87291   0.24999   0.00000  Uiso   1.00
O538   O     0.56012   0.79375   0.25000   0.00000  Uiso   1.00
O539   O     0.56012   0.87291   0.25000   0.00000  Uiso   1.00
O540   O     0.43988   0.79375   0.24999   0.00000  Uiso   1.00
O541   O     0.49999   0.87293   0.18513   0.00000  Uiso   1.00
O542   O     0.50001   0.79373   0.31487   0.00000  Uiso   1.00
O543   O     0.50001   0.87293   0.31487   0.00000  Uiso   1.00
O544   O     0.49999   0.79373   0.18513   0.00000  Uiso   1.00
C545   C     0.37890   0.78223   0.31735   0.00000  Uiso   1.00
O546   O     0.39471   0.80466   0.34760   0.00000  Uiso   1.00
O547   O     0.38389   0.73366   0.31511   0.00000  Uiso   1.00
H548   H     0.40110   0.72099   0.34061   0.00000  Uiso   1.00
C549   C     0.62107   0.88440   0.18265   0.00000  Uiso   1.00
O550   O     0.60239   0.86160   0.15460   0.00000  Uiso   1.00
O551   O     0.61944   0.93333   0.18217   0.00000  Uiso   1.00
H552   H     0.60195   0.94584   0.15681   0.00000  Uiso   1.00
C553   C     0.62311   0.78245   0.31886   0.00000  Uiso   1.00
O554   O     0.59766   0.80346   0.34098   0.00000  Uiso   1.00
O555   O     0.63112   0.73517   0.32732   0.00000  Uiso   1.00
H556   H     0.61396   0.72233   0.35250   0.00000  Uiso   1.00
C557   C     0.37695   0.88480   0.18192   0.00000  Uiso   1.00
O558   O     0.37154   0.92674   0.17605   0.00000  Uiso   1.00
O559   O     0.40441   0.86014   0.15519   0.00000  Uiso   1.00
H560   H     0.41754   0.88079   0.13190   0.00000  Uiso   1.00
C561   C     0.75416   0.83330   0.24969   0.00000  Uiso   1.00
C562   C     0.91249   0.83337   0.25035   0.00000  Uiso   1.00
C563   C     0.83690   0.91866   0.02323   0.00000  Uiso   1.00
C564   C     0.83125   0.74794   0.47678   0.00000  Uiso   1.00
C565   C     0.68863   0.80693   0.28211   0.00000  Uiso   1.00
C566   C     0.97797   0.85989   0.21812   0.00000  Uiso   1.00
C567   C     0.97879   0.80727   0.28286   0.00000  Uiso   1.00
C568   C     0.68781   0.85985   0.21766   0.00000  Uiso   1.00
C569   C     0.95715   0.83358   0.25059   0.00000  Uiso   1.00
C570   C     0.70946   0.83318   0.24961   0.00000  Uiso   1.00
C571   C     0.80840   0.69142   0.22153   0.00000  Uiso   1.00
C572   C     0.85827   0.97525   0.27847   0.00000  Uiso   1.00
C573   C     0.85826   0.69155   0.27848   0.00000  Uiso   1.00
C574   C     0.80842   0.97512   0.22151   0.00000  Uiso   1.00
C575   C     0.83363   0.83331   0.16427   0.00000  Uiso   1.00
C576   C     0.83332   0.83335   0.33573   0.00000  Uiso   1.00
C577   C     0.83229   0.79073   0.40730   0.00000  Uiso   1.00
C578   C     0.83563   0.87589   0.09271   0.00000  Uiso   1.00
C579   C     0.83349   0.83335   0.38417   0.00000  Uiso   1.00
C580   C     0.83405   0.83328   0.11584   0.00000  Uiso   1.00
C581   C     0.83495   0.87595   0.40741   0.00000  Uiso   1.00
C582   C     0.83272   0.79068   0.09260   0.00000  Uiso   1.00
C583   C     0.83522   0.87623   0.45360   0.00000  Uiso   1.00
C584   C     0.83277   0.79038   0.04641   0.00000  Uiso   1.00
C585   C     0.83397   0.83331   0.47676   0.00000  Uiso   1.00
C586   C     0.83413   0.83330   0.02325   0.00000  Uiso   1.00
C587   C     0.83250   0.79041   0.45349   0.00000  Uiso   1.00
C588   C     0.83559   0.87620   0.04652   0.00000  Uiso   1.00
C589   C     0.83670   0.91868   0.47700   0.00000  Uiso   1.00
C590   C     0.83136   0.74793   0.02301   0.00000  Uiso   1.00
Cu591  Cu    0.83333   0.88022   0.25000   0.00000  Uiso   1.00
Cu592  Cu    0.83333   0.78645   0.25000   0.00000  Uiso   1.00
H593   H     0.83115   0.75775   0.38943   0.00000  Uiso   1.00
H594   H     0.83673   0.90886   0.11058   0.00000  Uiso   1.00
H595   H     0.83595   0.90893   0.38962   0.00000  Uiso   1.00
H596   H     0.83152   0.75770   0.11039   0.00000  Uiso   1.00
H597   H     0.83768   0.95185   0.45956   0.00000  Uiso   1.00
H598   H     0.83032   0.71476   0.04045   0.00000  Uiso   1.00
H599   H     0.83802   0.95182   0.04077   0.00000  Uiso   1.00
H600   H     0.83013   0.71479   0.45925   0.00000  Uiso   1.00
H601   H     0.78842   0.71009   0.19874   0.00000  Uiso   1.00
H602   H     0.87825   0.95658   0.30126   0.00000  Uiso   1.00
H603   H     0.87819   0.71032   0.30130   0.00000  Uiso   1.00
H604   H     0.78850   0.95635   0.19867   0.00000  Uiso   1.00
N605   N     0.83333   0.95069   0.25000   0.00000  Uiso   1.00
N606   N     0.83333   0.71598   0.25000   0.00000  Uiso   1.00
O607   O     0.77321   0.87291   0.24999   0.00000  Uiso   1.00
O608   O     0.89345   0.79375   0.25000   0.00000  Uiso   1.00
O609   O     0.89345   0.87291   0.25000   0.00000  Uiso   1.00
O610   O     0.77321   0.79375   0.24999   0.00000  Uiso   1.00
O611   O     0.83332   0.87293   0.18513   0.00000  Uiso   1.00
O612   O     0.83334   0.79373   0.31487   0.00000  Uiso   1.00
O613   O     0.83334   0.87293   0.31487   0.00000  Uiso   1.00
O614   O     0.83332   0.79373   0.18513   0.00000  Uiso   1.00
C615   C     0.71224   0.78223   0.31735   0.00000  Uiso   1.00
O616   O     0.72805   0.80466   0.34760   0.00000  Uiso   1.00
O617   O     0.71722   0.73366   0.31511   0.00000  Uiso   1.00
H618   H     0.73443   0.72099   0.34061   0.00000  Uiso   1.00
C619   C     0.95440   0.88440   0.18265   0.00000  Uiso   1.00
O620   O     0.93573   0.86160   0.15460   0.00000  Uiso   1.00
O621   O     0.95278   0.93333   0.18217   0.00000  Uiso   1.00
H622   H     0.93529   0.94584   0.15681   0.00000  Uiso   1.00
C623   C     0.95644   0.78245   0.31886   0.00000  Uiso   1.00
O624   O     0.93099   0.80346   0.34098   0.00000  Uiso   1.00
O625   O     0.96445   0.73517   0.32732   0.00000  Uiso   1.00
H626   H     0.94730   0.72233   0.35250   0.00000  Uiso   1.00
C627   C     0.71028   0.88480   0.18192   0.00000  Uiso   1.00
O628   O     0.70487   0.92674   0.17605   0.00000  Uiso   1.00
O629   O     0.73774   0.86014   0.15519   0.00000  Uiso   1.00
H630   H     0.75088   0.88079   0.13190   0.00000  Uiso   1.00
C631   C     0.08749   0.16664   0.74969   0.00000  Uiso   1.00
C632   C     0.24582   0.16671   0.75035   0.00000  Uiso   1.00
C633   C     0.17023   0.25200   0.52323   0.00000  Uiso   1.00
C634   C     0.16458   0.08127   0.97678   0.00000  Uiso   1.00
C635   C     0.02196   0.14026   0.78211   0.00000  Uiso   1.00
C636   C     0.31130   0.19322   0.71812   0.00000  Uiso   1.00
C637   C     0.31212   0.14061   0.78286   0.00000  Uiso   1.00
C638   C     0.02115   0.19318   0.71766   0.00000  Uiso   1.00
C639   C     0.29049   0.16691   0.75059   0.00000  Uiso   1.00
C640   C     0.04279   0.16651   0.74961   0.00000  Uiso   1.00
C641   C     0.14173   0.02475   0.72153   0.00000  Uiso   1.00
C642   C     0.19161   0.30858   0.77847   0.00000  Uiso   1.00
C643   C     0.19159   0.02488   0.77848   0.00000  Uiso   1.00
C644   C     0.14175   0.30845   0.72151   0.00000  Uiso   1.00
C645   C     0.16696   0.16665   0.66427   0.00000  Uiso   1.00
C646   C     0.16665   0.16668   0.83573   0.00000  Uiso   1.00
C647   C     0.16563   0.12406   0.90730   0.00000  Uiso   1.00
C648   C     0.16896   0.20922   0.59271   0.00000  Uiso   1.00
C649   C     0.16682   0.16668   0.88417   0.00000  Uiso   1.00
C650   C     0.16738   0.16662   0.61584   0.00000  Uiso   1.00
C651   C     0.16829   0.20928   0.90741   0.00000  Uiso   1.00
C652   C     0.16606   0.12401   0.59260   0.00000  Uiso   1.00
C653   C     0.16855   0.20956   0.95360   0.00000  Uiso   1.00
C654   C     0.16610   0.12372   0.54641   0.00000  Uiso   1.00
C655   C     0.16730   0.16664   0.97676   0.00000  Uiso   1.00
C656   C     0.16746   0.16663   0.52325   0.00000  Uiso   1.00
C657   C     0.16584   0.12374   0.95349   0.00000  Uiso   1.00
C658   C     0.16893   0.20953   0.54652   0.00000  Uiso   1.00
C659   C     0.17003   0.25201   0.97700   0.00000  Uiso   1.00
C660   C     0.16470   0.08126   0.52301   0.00000  Uiso   1.00
Cu661  Cu    0.16667   0.21355   0.75000   0.00000  Uiso   1.00
Cu662  Cu    0.16667   0.11978   0.75000   0.00000  Uiso   1.00
H663   H     0.16448   0.09108   0.88943   0.00000  Uiso   1.00
H664   H     0.17006   0.24220   0.61058   0.00000  Uiso   1.00
H665   H     0.16929   0.24227   0.88962   0.00000  Uiso   1.00
H666   H     0.16486   0.09104   0.61039   0.00000  Uiso   1.00
H667   H     0.17102   0.28518   0.95956   0.00000  Uiso   1.00
H668   H     0.16365   0.04810   0.54045   0.00000  Uiso   1.00
H669   H     0.17135   0.28515   0.54077   0.00000  Uiso   1.00
H670   H     0.16346   0.04812   0.95925   0.00000  Uiso   1.00
H671   H     0.12175   0.04342   0.69874   0.00000  Uiso   1.00
H672   H     0.21159   0.28991   0.80126   0.00000  Uiso   1.00
H673   H     0.21152   0.04366   0.80130   0.00000  Uiso   1.00
H674   H     0.12184   0.28968   0.69867   0.00000  Uiso   1.00
N675   N     0.16667   0.28402   0.75000   0.00000  Uiso   1.00
N676   N     0.16667   0.04931   0.75000   0.00000  Uiso   1.00
O677   O     0.10655   0.20625   0.74999   0.00000  Uiso   1.00
O678   O     0.22679   0.12709   0.75000   0.00000  Uiso   1.00
O679   O     0.22679   0.20625   0.75000   0.00000  Uiso   1.00
O680   O     0.10655   0.12709   0.74999   0.00000  Uiso   1.00
O681   O     0.16666   0.20627   0.68513   0.00000  Uiso   1.00
O682   O     0.16668   0.12707   0.81487   0.00000  Uiso   1.00
O683   O     0.16668   0.20627   0.81487   0.00000  Uiso   1.00
O684   O     0.16666   0.12707   0.68513   0.00000  Uiso   1.00
C685   C     0.04557   0.11557   0.81735   0.00000  Uiso   1.00
O686   O     0.06138   0.13799   0.84760   0.00000  Uiso   1.00
O687   O     0.05055   0.06700   0.81511   0.00000  Uiso   1.00
H688   H     0.06776   0.05432   0.84061   0.00000  Uiso   1.00
C689   C     0.28773   0.21773   0.68265   0.00000  Uiso   1.00
O690   O     0.26906   0.19493   0.65460   0.00000  Uiso   1.00
O691   O     0.28611   0.26666   0.68217   0.00000  Uiso   1.00
H692   H     0.26862   0.27918   0.65681   0.00000  Uiso   1.00
C693   C     0.28977   0.11578   0.81886   0.00000  Uiso   1.00
O694   O     0.26433   0.13679   0.84098   0.00000  Uiso   1.00
O695   O     0.29779   0.06851   0.82732   0.00000  Uiso   1.00
H696   H     0.28063   0.05566   0.85250   0.00000  Uiso   1.00
C697   C     0.04361   0.21814   0.68192   0.00000  Uiso   1.00
O698   O     0.03821   0.26007   0.67605   0.00000  Uiso   1.00
O699   O     0.07108   0.19347   0.65519   0.00000  Uiso   1.00
H700   H     0.08421   0.21413   0.63190   0.00000  Uiso   1.00
C701   C     0.42082   0.16664   0.74969   0.00000  Uiso   1.00
C702   C     0.57916   0.16671   0.75035   0.00000  Uiso   1.00
C703   C     0.50357   0.25200   0.52323   0.00000  Uiso   1.00
C704   C     0.49791   0.08127   0.97678   0.00000  Uiso   1.00
C705   C     0.35529   0.14026   0.78211   0.00000  Uiso   1.00
C706   C     0.64464   0.19322   0.71812   0.00000  Uiso   1.00
C707   C     0.64546   0.14061   0.78286   0.00000  Uiso   1.00
C708   C     0.35448   0.19318   0.71766   0.00000  Uiso   1.00
C709   C     0.62382   0.16691   0.75059   0.00000  Uiso   1.00
C710   C     0.37612   0.16651   0.74961   0.00000  Uiso   1.00
C711   C     0.47506   0.02475   0.72153   0.00000  Uiso   1.00
C712   C     0.52494   0.30858   0.77847   0.00000  Uiso   1.00
C713   C     0.52493   0.02488   0.77848   0.00000  Uiso   1.00
C714   C     0.47508   0.30845   0.72151   0.00000  Uiso   1.00
C715   C     0.50029   0.16665   0.66427   0.00000  Uiso   1.00
C716   C     0.49999   0.16668   0.83573   0.00000  Uiso   1.00
C717   C     0.49896   0.12406   0.90730   0.00000  Uiso   1.00
C718   C     0.50229   0.20922   0.59271   0.00000  Uiso   1.00
C719   C     0.50015   0.16668   0.88417   0.00000  Uiso   1.00
C720   C     0.50071   0.16662   0.61584   0.00000  Uiso   1.00
C721   C     0.50162   0.20928   0.90741   0.00000  Uiso   1.00
C722   C     0.49939   0.12401   0.59260   0.00000  Uiso   1.00
C723   C     0.50189   0.20956   0.95360   0.00000  Uiso   1.00
C724   C     0.49943   0.12372   0.54641   0.00000  Uiso   1.00
C725   C     0.50063   0.16664   0.97676   0.00000  Uiso   1.00
C726   C     0.50080   0.16663   0.52325   0.00000  Uiso   1.00
C727   C     0.49917   0.12374   0.95349   0.00000  Uiso   1.00
C728   C     0.50226   0.20953   0.54652   0.00000  Uiso   1.00
C729   C     0.50337   0.25201   0.97700   0.00000  Uiso   1.00
C730   C     0.49803   0.08126   0.52301   0.00000  Uiso   1.00
Cu731  Cu    0.50000   0.21355   0.75000   0.00000  Uiso   1.00
Cu732  Cu    0.50000   0.11978   0.75000   0.00000  Uiso   1.00
H733   H     0.49782   0.09108   0.88943   0.00000  Uiso   1.00
H734   H     0.50339   0.24220   0.61058   0.00000  Uiso   1.00
H735   H     0.50262   0.24227   0.88962   0.00000  Uiso   1.00
H736   H     0.49819   0.09104   0.61039   0.00000  Uiso   1.00
H737   H     0.50435   0.28518   0.95956   0.00000  Uiso   1.00
H738   H     0.49699   0.04810   0.54045   0.00000  Uiso   1.00
H739   H     0.50469   0.28515   0.54077   0.00000  Uiso   1.00
H740   H     0.49680   0.04812   0.95925   0.00000  Uiso   1.00
H741   H     0.45509   0.04342   0.69874   0.00000  Uiso   1.00
H742   H     0.54492   0.28991   0.80126   0.00000  Uiso   1.00
H743   H     0.54486   0.04366   0.80130   0.00000  Uiso   1.00
H744   H     0.45517   0.28968   0.69867   0.00000  Uiso   1.00
N745   N     0.50000   0.28402   0.75000   0.00000  Uiso   1.00
N746   N     0.50000   0.04931   0.75000   0.00000  Uiso   1.00
O747   O     0.43988   0.20625   0.74999   0.00000  Uiso   1.00
O748   O     0.56012   0.12709   0.75000   0.00000  Uiso   1.00
O749   O     0.56012   0.20625   0.75000   0.00000  Uiso   1.00
O750   O     0.43988   0.12709   0.74999   0.00000  Uiso   1.00
O751   O     0.49999   0.20627   0.68513   0.00000  Uiso   1.00
O752   O     0.50001   0.12707   0.81487   0.00000  Uiso   1.00
O753   O     0.50001   0.20627   0.81487   0.00000  Uiso   1.00
O754   O     0.49999   0.12707   0.68513   0.00000  Uiso   1.00
C755   C     0.37890   0.11557   0.81735   0.00000  Uiso   1.00
O756   O     0.39471   0.13799   0.84760   0.00000  Uiso   1.00
O757   O     0.38389   0.06700   0.81511   0.00000  Uiso   1.00
H758   H     0.40110   0.05432   0.84061   0.00000  Uiso   1.00
C759   C     0.62107   0.21773   0.68265   0.00000  Uiso   1.00
O760   O     0.60239   0.19493   0.65460   0.00000  Uiso   1.00
O761   O     0.61944   0.26666   0.68217   0.00000  Uiso   1.00
H762   H     0.60195   0.27918   0.65681   0.00000  Uiso   1.00
C763   C     0.62311   0.11578   0.81886   0.00000  Uiso   1.00
O764   O     0.59766   0.13679   0.84098   0.00000  Uiso   1.00
O765   O     0.63112   0.06851   0.82732   0.00000  Uiso   1.00
H766   H     0.61396   0.05566   0.85250   0.00000  Uiso   1.00
C767   C     0.37695   0.21814   0.68192   0.00000  Uiso   1.00
O768   O     0.37154   0.26007   0.67605   0.00000  Uiso   1.00
O769   O     0.40441   0.19347   0.65519   0.00000  Uiso   1.00
H770   H     0.41754   0.21413   0.63190   0.00000  Uiso   1.00
C771   C     0.75416   0.16664   0.74969   0.00000  Uiso   1.00
C772   C     0.91249   0.16671   0.75035   0.00000  Uiso   1.00
C773   C     0.83690   0.25200   0.52323   0.00000  Uiso   1.00
C774   C     0.83125   0.08127   0.97678   0.00000  Uiso   1.00
C775   C     0.68863   0.14026   0.78211   0.00000  Uiso   1.00
C776   C     0.97797   0.19322   0.71812   0.00000  Uiso   1.00
C777   C     0.97879   0.14061   0.78286   0.00000  Uiso   1.00
C778   C     0.68781   0.19318   0.71766   0.00000  Uiso   1.00
C779   C     0.95715   0.16691   0.75059   0.00000  Uiso   1.00
C780   C     0.70946   0.16651   0.74961   0.00000  Uiso   1.00
C781   C     0.80840   0.02475   0.72153   0.00000  Uiso   1.00
C782   C     0.85827   0.30858   0.77847   0.00000  Uiso   1.00
C783   C     0.85826   0.02488   0.77848   0.00000  Uiso   1.00
C784   C     0.80842   0.30845   0.72151   0.00000  Uiso   1.00
C785   C     0.83363   0.16665   0.66427   0.00000  Uiso   1.00
C786   C     0.83332   0.16668   0.83573   0.00000  Uiso   1.00
C787   C     0.83229   0.12406   0.90730   0.00000  Uiso   1.00
C788   C     0.83563   0.20922   0.59271   0.00000  Uiso   1.00
C789   C     0.83349   0.16668   0.88417   0.00000  Uiso   1.00
C790   C     0.83405   0.16662   0.61584   0.00000  Uiso   1.00
C791   C     0.83495   0.20928   0.90741   0.00000  Uiso   1.00
C792   C     0.83272   0.12401   0.59260   0.00000  Uiso   1.00
C793   C     0.83522   0.20956   0.95360   0.00000  Uiso   1.00
C794   C     0.83277   0.12372   0.54641   0.00000  Uiso   1.00
C795   C     0.83397   0.16664   0.97676   0.00000  Uiso   1.00
C796   C     0.83413   0.16663   0.52325   0.00000  Uiso   1.00
C797   C     0.83250   0.12374   0.95349   0.00000  Uiso   1.00
C798   C     0.83559   0.20953   0.54652   0.00000  Uiso   1.00
C799   C     0.83670   0.25201   0.97700   0.00000  Uiso   1.00
C800   C     0.83136   0.08126   0.52301   0.00000  Uiso   1.00
Cu801  Cu    0.83333   0.21355   0.75000   0.00000  Uiso   1.00
Cu802  Cu    0.83333   0.11978   0.75000   0.00000  Uiso   1.00
H803   H     0.83115   0.09108   0.88943   0.00000  Uiso   1.00
H804   H     0.83673   0.24220   0.61058   0.00000  Uiso   1.00
H805   H     0.83595   0.24227   0.88962   0.00000  Uiso   1.00
H806   H     0.83152   0.09104   0.61039   0.00000  Uiso   1.00
H807   H     0.83768   0.28518   0.95956   0.00000  Uiso   1.00
H808   H     0.83032   0.04810   0.54045   0.00000  Uiso   1.00
H809   H     0.83802   0.28515   0.54077   0.00000  Uiso   1.00
H810   H     0.83013   0.04812   0.95925   0.00000  Uiso   1.00
H811   H     0.78842   0.04342   0.69874   0.00000  Uiso   1.00
H812   H     0.87825   0.28991   0.80126   0.00000  Uiso   1.00
H813   H     0.87819   0.04366   0.80130   0.00000  Uiso   1.00
H814   H     0.78850   0.28968   0.69867   0.00000  Uiso   1.00
N815   N     0.83333   0.28402   0.75000   0.00000  Uiso   1.00
N816   N     0.83333   0.04931   0.75000   0.00000  Uiso   1.00
O817   O     0.77321   0.20625   0.74999   0.00000  Uiso   1.00
O818   O     0.89345   0.12709   0.75000   0.00000  Uiso   1.00
O819   O     0.89345   0.20625   0.75000   0.00000  Uiso   1.00
O820   O     0.77321   0.12709   0.74999   0.00000  Uiso   1.00
O821   O     0.83332   0.20627   0.68513   0.00000  Uiso   1.00
O822   O     0.83334   0.12707   0.81487   0.00000  Uiso   1.00
O823   O     0.83334   0.20627   0.81487   0.00000  Uiso   1.00
O824   O     0.83332   0.12707   0.68513   0.00000  Uiso   1.00
C825   C     0.71224   0.11557   0.81735   0.00000  Uiso   1.00
O826   O     0.72805   0.13799   0.84760   0.00000  Uiso   1.00
O827   O     0.71722   0.06700   0.81511   0.00000  Uiso   1.00
H828   H     0.73443   0.05432   0.84061   0.00000  Uiso   1.00
C829   C     0.95440   0.21773   0.68265   0.00000  Uiso   1.00
O830   O     0.93573   0.19493   0.65460   0.00000  Uiso   1.00
O831   O     0.95278   0.26666   0.68217   0.00000  Uiso   1.00
H832   H     0.93529   0.27918   0.65681   0.00000  Uiso   1.00
C833   C     0.95644   0.11578   0.81886   0.00000  Uiso   1.00
O834   O     0.93099   0.13679   0.84098   0.00000  Uiso   1.00
O835   O     0.96445   0.06851   0.82732   0.00000  Uiso   1.00
H836   H     0.94730   0.05566   0.85250   0.00000  Uiso   1.00
C837   C     0.71028   0.21814   0.68192   0.00000  Uiso   1.00
O838   O     0.70487   0.26007   0.67605   0.00000  Uiso   1.00
O839   O     0.73774   0.19347   0.65519   0.00000  Uiso   1.00
H840   H     0.75088   0.21413   0.63190   0.00000  Uiso   1.00
C841   C     0.08749   0.49997   0.74969   0.00000  Uiso   1.00
C842   C     0.24582   0.50004   0.75035   0.00000  Uiso   1.00
C843   C     0.17023   0.58533   0.52323   0.00000  Uiso   1.00
C844   C     0.16458   0.41461   0.97678   0.00000  Uiso   1.00
C845   C     0.02196   0.47360   0.78211   0.00000  Uiso   1.00
C846   C     0.31130   0.52655   0.71812   0.00000  Uiso   1.00
C847   C     0.31212   0.47394   0.78286   0.00000  Uiso   1.00
C848   C     0.02115   0.52651   0.71766   0.00000  Uiso   1.00
C849   C     0.29049   0.50025   0.75059   0.00000  Uiso   1.00
C850   C     0.04279   0.49984   0.74961   0.00000  Uiso   1.00
C851   C     0.14173   0.35808   0.72153   0.00000  Uiso   1.00
C852   C     0.19161   0.64192   0.77847   0.00000  Uiso   1.00
C853   C     0.19159   0.35821   0.77848   0.00000  Uiso   1.00
C854   C     0.14175   0.64179   0.72151   0.00000  Uiso   1.00
C855   C     0.16696   0.49998   0.66427   0.00000  Uiso   1.00
C856   C     0.16665   0.50001   0.83573   0.00000  Uiso   1.00
C857   C     0.16563   0.45739   0.90730   0.00000  Uiso   1.00
C858   C     0.16896   0.54255   0.59271   0.00000  Uiso   1.00
C859   C     0.16682   0.50001   0.88417   0.00000  Uiso   1.00
C860   C     0.16738   0.49995   0.61584   0.00000  Uiso   1.00
C861   C     0.16829   0.54261   0.90741   0.00000  Uiso   1.00
C862   C     0.16606   0.45735   0.59260   0.00000  Uiso   1.00
C863   C     0.16855   0.54290   0.95360   0.00000  Uiso   1.00
C864   C     0.16610   0.45705   0.54641   0.00000  Uiso   1.00
C865   C     0.16730   0.49998   0.97676   0.00000  Uiso   1.00
C866   C     0.16746   0.49996   0.52325   0.00000  Uiso   1.00
C867   C     0.16584   0.45707   0.95349   0.00000  Uiso   1.00
C868   C     0.16893   0.54287   0.54652   0.00000  Uiso   1.00
C869   C     0.17003   0.58535   0.97700   0.00000  Uiso   1.00
C870   C     0.16470   0.41459   0.52301   0.00000  Uiso   1.00
Cu871  Cu    0.16667   0.54689   0.75000   0.00000  Uiso   1.00
Cu872  Cu    0.16667   0.45311   0.75000   0.00000  Uiso   1.00
H873   H     0.16448   0.42442   0.88943   0.00000  Uiso   1.00
H874   H     0.17006   0.57553   0.61058   0.00000  Uiso   1.00
H875   H     0.16929   0.57560   0.88962   0.00000  Uiso   1.00
H876   H     0.16486   0.42437   0.61039   0.00000  Uiso   1.00
H877   H     0.17102   0.61851   0.95956   0.00000  Uiso   1.00
H878   H     0.16365   0.38143   0.54045   0.00000  Uiso   1.00
H879   H     0.17135   0.61848   0.54077   0.00000  Uiso   1.00
H880   H     0.16346   0.38145   0.95925   0.00000  Uiso   1.00
H881   H     0.12175   0.37676   0.69874   0.00000  Uiso   1.00
H882   H     0.21159   0.62325   0.80126   0.00000  Uiso   1.00
H883   H     0.21152   0.37699   0.80130   0.00000  Uiso   1.00
H884   H     0.12184   0.62301   0.69867   0.00000  Uiso   1.00
N885   N     0.16667   0.61736   0.75000   0.00000  Uiso   1.00
N886   N     0.16667   0.38264   0.75000   0.00000  Uiso   1.00
O887   O     0.10655   0.53958   0.74999   0.00000  Uiso   1.00
O888   O     0.22679   0.46042   0.75000   0.00000  Uiso   1.00
O889   O     0.22679   0.53958   0.75000   0.00000  Uiso   1.00
O890   O     0.10655   0.46042   0.74999   0.00000  Uiso   1.00
O891   O     0.16666   0.53960   0.68513   0.00000  Uiso   1.00
O892   O     0.16668   0.46040   0.81487   0.00000  Uiso   1.00
O893   O     0.16668   0.53960   0.81487   0.00000  Uiso   1.00
O894   O     0.16666   0.46040   0.68513   0.00000  Uiso   1.00
C895   C     0.04557   0.44890   0.81735   0.00000  Uiso   1.00
O896   O     0.06138   0.47133   0.84760   0.00000  Uiso   1.00
O897   O     0.05055   0.40033   0.81511   0.00000  Uiso   1.00
H898   H     0.06776   0.38766   0.84061   0.00000  Uiso   1.00
C899   C     0.28773   0.55107   0.68265   0.00000  Uiso   1.00
O900   O     0.26906   0.52827   0.65460   0.00000  Uiso   1.00
O901   O     0.28611   0.59999   0.68217   0.00000  Uiso   1.00
H902   H     0.26862   0.61251   0.65681   0.00000  Uiso   1.00
C903   C     0.28977   0.44912   0.81886   0.00000  Uiso   1.00
O904   O     0.26433   0.47012   0.84098   0.00000  Uiso   1.00
O905   O     0.29779   0.40184   0.82732   0.00000  Uiso   1.00
H906   H     0.28063   0.38900   0.85250   0.00000  Uiso   1.00
C907   C     0.04361   0.55147   0.68192   0.00000  Uiso   1.00
O908   O     0.03821   0.59340   0.67605   0.00000  Uiso   1.00
O909   O     0.07108   0.52680   0.65519   0.00000  Uiso   1.00
H910   H     0.08421   0.54746   0.63190   0.00000  Uiso   1.00
C911   C     0.42082   0.49997   0.74969   0.00000  Uiso   1.00
C912   C     0.57916   0.50004   0.75035   0.00000  Uiso   1.00
C913   C     0.50357   0.58533   0.52323   0.00000  Uiso   1.00
C914   C     0.49791   0.41461   0.97678   0.00000  Uiso   1.00
C915   C     0.35529   0.47360   0.78211   0.00000  Uiso   1.00
C916   C     0.64464   0.52655   0.71812   0.00000  Uiso   1.00
C917   C     0.64546   0.47394   0.78286   0.00000  Uiso   1.00
C918   C     0.35448   0.52651   0.71766   0.00000  Uiso   1.00
C919   C     0.62382   0.50025   0.75059   0.00000  Uiso   1.00
C920   C     0.37612   0.49984   0.74961   0.00000  Uiso   1.00
C921   C     0.47506   0.35808   0.72153   0.00000  Uiso   1.00
C922   C     0.52494   0.64192   0.77847   0.00000  Uiso   1.00
C923   C     0.52493   0.35821   0.77848   0.00000  Uiso   1.00
C924   C     0.47508   0.64179   0.72151   0.00000  Uiso   1.00
C925   C     0.50029   0.49998   0.66427   0.00000  Uiso   1.00
C926   C     0.49999   0.50001   0.83573   0.00000  Uiso   1.00
C927   C     0.49896   0.45739   0.90730   0.00000  Uiso   1.00
C928   C     0.50229   0.54255   0.59271   0.00000  Uiso   1.00
C929   C     0.50015   0.50001   0.88417   0.00000  Uiso   1.00
C930   C     0.50071   0.49995   0.61584   0.00000  Uiso   1.00
C931   C     0.50162   0.54261   0.90741   0.00000  Uiso   1.00
C932   C     0.49939   0.45735   0.59260   0.00000  Uiso   1.00
C933   C     0.50189   0.54290   0.95360   0.00000  Uiso   1.00
C934   C     0.49943   0.45705   0.54641   0.00000  Uiso   1.00
C935   C     0.50063   0.49998   0.97676   0.00000  Uiso   1.00
C936   C     0.50080   0.49996   0.52325   0.00000  Uiso   1.00
C937   C     0.49917   0.45707   0.95349   0.00000  Uiso   1.00
C938   C     0.50226   0.54287   0.54652   0.00000  Uiso   1.00
C939   C     0.50337   0.58535   0.97700   0.00000  Uiso   1.00
C940   C     0.49803   0.41459   0.52301   0.00000  Uiso   1.00
Cu941  Cu    0.50000   0.54689   0.75000   0.00000  Uiso   1.00
Cu942  Cu    0.50000   0.45311   0.75000   0.00000  Uiso   1.00
H943   H     0.49782   0.42442   0.88943   0.00000  Uiso   1.00
H944   H     0.50339   0.57553   0.61058   0.00000  Uiso   1.00
H945   H     0.50262   0.57560   0.88962   0.00000  Uiso   1.00
H946   H     0.49819   0.42437   0.61039   0.00000  Uiso   1.00
H947   H     0.50435   0.61851   0.95956   0.00000  Uiso   1.00
H948   H     0.49699   0.38143   0.54045   0.00000  Uiso   1.00
H949   H     0.50469   0.61848   0.54077   0.00000  Uiso   1.00
H950   H     0.49680   0.38145   0.95925   0.00000  Uiso   1.00
H951   H     0.45509   0.37676   0.69874   0.00000  Uiso   1.00
H952   H     0.54492   0.62325   0.80126   0.00000  Uiso   1.00
H953   H     0.54486   0.37699   0.80130   0.00000  Uiso   1.00
H954   H     0.45517   0.62301   0.69867   0.00000  Uiso   1.00
N955   N     0.50000   0.61736   0.75000   0.00000  Uiso   1.00
N956   N     0.50000   0.38264   0.75000   0.00000  Uiso   1.00
O957   O     0.43988   0.53958   0.74999   0.00000  Uiso   1.00
O958   O     0.56012   0.46042   0.75000   0.00000  Uiso   1.00
O959   O     0.56012   0.53958   0.75000   0.00000  Uiso   1.00
O960   O     0.43988   0.46042   0.74999   0.00000  Uiso   1.00
O961   O     0.49999   0.53960   0.68513   0.00000  Uiso   1.00
O962   O     0.50001   0.46040   0.81487   0.00000  Uiso   1.00
O963   O     0.50001   0.53960   0.81487   0.00000  Uiso   1.00
O964   O     0.49999   0.46040   0.68513   0.00000  Uiso   1.00
C965   C     0.37890   0.44890   0.81735   0.00000  Uiso   1.00
O966   O     0.39471   0.47133   0.84760   0.00000  Uiso   1.00
O967   O     0.38389   0.40033   0.81511   0.00000  Uiso   1.00
H968   H     0.40110   0.38766   0.84061   0.00000  Uiso   1.00
C969   C     0.62107   0.55107   0.68265   0.00000  Uiso   1.00
O970   O     0.60239   0.52827   0.65460   0.00000  Uiso   1.00
O971   O     0.61944   0.59999   0.68217   0.00000  Uiso   1.00
H972   H     0.60195   0.61251   0.65681   0.00000  Uiso   1.00
C973   C     0.62311   0.44912   0.81886   0.00000  Uiso   1.00
O974   O     0.59766   0.47012   0.84098   0.00000  Uiso   1.00
O975   O     0.63112   0.40184   0.82732   0.00000  Uiso   1.00
H976   H     0.61396   0.38900   0.85250   0.00000  Uiso   1.00
C977   C     0.37695   0.55147   0.68192   0.00000  Uiso   1.00
O978   O     0.37154   0.59340   0.67605   0.00000  Uiso   1.00
O979   O     0.40441   0.52680   0.65519   0.00000  Uiso   1.00
H980   H     0.41754   0.54746   0.63190   0.00000  Uiso   1.00
C981   C     0.75416   0.49997   0.74969   0.00000  Uiso   1.00
C982   C     0.91249   0.50004   0.75035   0.00000  Uiso   1.00
C983   C     0.83690   0.58533   0.52323   0.00000  Uiso   1.00
C984   C     0.83125   0.41461   0.97678   0.00000  Uiso   1.00
C985   C     0.68863   0.47360   0.78211   0.00000  Uiso   1.00
C986   C     0.97797   0.52655   0.71812   0.00000  Uiso   1.00
C987   C     0.97879   0.47394   0.78286   0.00000  Uiso   1.00
C988   C     0.68781   0.52651   0.71766   0.00000  Uiso   1.00
C989   C     0.95715   0.50025   0.75059   0.00000  Uiso   1.00
C990   C     0.70946   0.49984   0.74961   0.00000  Uiso   1.00
C991   C     0.80840   0.35808   0.72153   0.00000  Uiso   1.00
C992   C     0.85827   0.64192   0.77847   0.00000  Uiso   1.00
C993   C     0.85826   0.35821   0.77848   0.00000  Uiso   1.00
C994   C     0.80842   0.64179   0.72151   0.00000  Uiso   1.00
C995   C     0.83363   0.49998   0.66427   0.00000  Uiso   1.00
C996   C     0.83332   0.50001   0.83573   0.00000  Uiso   1.00
C997   C     0.83229   0.45739   0.90730   0.00000  Uiso   1.00
C998   C     0.83563   0.54255   0.59271   0.00000  Uiso   1.00
C999   C     0.83349   0.50001   0.88417   0.00000  Uiso   1.00
C1000  C     0.83405   0.49995   0.61584   0.00000  Uiso   1.00
C1001  C     0.83495   0.54261   0.90741   0.00000  Uiso   1.00
C1002  C     0.83272   0.45735   0.59260   0.00000  Uiso   1.00
C1003  C     0.83522   0.54290   0.95360   0.00000  Uiso   1.00
C1004  C     0.83277   0.45705   0.54641   0.00000  Uiso   1.00
C1005  C     0.83397   0.49998   0.97676   0.00000  Uiso   1.00
C1006  C     0.83413   0.49996   0.52325   0.00000  Uiso   1.00
C1007  C     0.83250   0.45707   0.95349   0.00000  Uiso   1.00
C1008  C     0.83559   0.54287   0.54652   0.00000  Uiso   1.00
C1009  C     0.83670   0.58535   0.97700   0.00000  Uiso   1.00
C1010  C     0.83136   0.41459   0.52301   0.00000  Uiso   1.00
Cu1011 Cu    0.83333   0.54689   0.75000   0.00000  Uiso   1.00
Cu1012 Cu    0.83333   0.45311   0.75000   0.00000  Uiso   1.00
H1013  H     0.83115   0.42442   0.88943   0.00000  Uiso   1.00
H1014  H     0.83673   0.57553   0.61058   0.00000  Uiso   1.00
H1015  H     0.83595   0.57560   0.88962   0.00000  Uiso   1.00
H1016  H     0.83152   0.42437   0.61039   0.00000  Uiso   1.00
H1017  H     0.83768   0.61851   0.95956   0.00000  Uiso   1.00
H1018  H     0.83032   0.38143   0.54045   0.00000  Uiso   1.00
H1019  H     0.83802   0.61848   0.54077   0.00000  Uiso   1.00
H1020  H     0.83013   0.38145   0.95925   0.00000  Uiso   1.00
H1021  H     0.78842   0.37676   0.69874   0.00000  Uiso   1.00
H1022  H     0.87825   0.62325   0.80126   0.00000  Uiso   1.00
H1023  H     0.87819   0.37699   0.80130   0.00000  Uiso   1.00
H1024  H     0.78850   0.62301   0.69867   0.00000  Uiso   1.00
N1025  N     0.83333   0.61736   0.75000   0.00000  Uiso   1.00
N1026  N     0.83333   0.38264   0.75000   0.00000  Uiso   1.00
O1027  O     0.77321   0.53958   0.74999   0.00000  Uiso   1.00
O1028  O     0.89345   0.46042   0.75000   0.00000  Uiso   1.00
O1029  O     0.89345   0.53958   0.75000   0.00000  Uiso   1.00
O1030  O     0.77321   0.46042   0.74999   0.00000  Uiso   1.00
O1031  O     0.83332   0.53960   0.68513   0.00000  Uiso   1.00
O1032  O     0.83334   0.46040   0.81487   0.00000  Uiso   1.00
O1033  O     0.83334   0.53960   0.81487   0.00000  Uiso   1.00
O1034  O     0.83332   0.46040   0.68513   0.00000  Uiso   1.00
C1035  C     0.71224   0.44890   0.81735   0.00000  Uiso   1.00
O1036  O     0.72805   0.47133   0.84760   0.00000  Uiso   1.00
O1037  O     0.71722   0.40033   0.81511   0.00000  Uiso   1.00
H1038  H     0.73443   0.38766   0.84061   0.00000  Uiso   1.00
C1039  C     0.95440   0.55107   0.68265   0.00000  Uiso   1.00
O1040  O     0.93573   0.52827   0.65460   0.00000  Uiso   1.00
O1041  O     0.95278   0.59999   0.68217   0.00000  Uiso   1.00
H1042  H     0.93529   0.61251   0.65681   0.00000  Uiso   1.00
C1043  C     0.95644   0.44912   0.81886   0.00000  Uiso   1.00
O1044  O     0.93099   0.47012   0.84098   0.00000  Uiso   1.00
O1045  O     0.96445   0.40184   0.82732   0.00000  Uiso   1.00
H1046  H     0.94730   0.38900   0.85250   0.00000  Uiso   1.00
C1047  C     0.71028   0.55147   0.68192   0.00000  Uiso   1.00
O1048  O     0.70487   0.59340   0.67605   0.00000  Uiso   1.00
O1049  O     0.73774   0.52680   0.65519   0.00000  Uiso   1.00
H1050  H     0.75088   0.54746   0.63190   0.00000  Uiso   1.00
C1051  C     0.08749   0.83330   0.74969   0.00000  Uiso   1.00
C1052  C     0.24582   0.83337   0.75035   0.00000  Uiso   1.00
C1053  C     0.17023   0.91866   0.52323   0.00000  Uiso   1.00
C1054  C     0.16458   0.74794   0.97678   0.00000  Uiso   1.00
C1055  C     0.02196   0.80693   0.78211   0.00000  Uiso   1.00
C1056  C     0.31130   0.85989   0.71812   0.00000  Uiso   1.00
C1057  C     0.31212   0.80727   0.78286   0.00000  Uiso   1.00
C1058  C     0.02115   0.85985   0.71766   0.00000  Uiso   1.00
C1059  C     0.29049   0.83358   0.75059   0.00000  Uiso   1.00
C1060  C     0.04279   0.83318   0.74961   0.00000  Uiso   1.00
C1061  C     0.14173   0.69142   0.72153   0.00000  Uiso   1.00
C1062  C     0.19161   0.97525   0.77847   0.00000  Uiso   1.00
C1063  C     0.19159   0.69155   0.77848   0.00000  Uiso   1.00
C1064  C     0.14175   0.97512   0.72151   0.00000  Uiso   1.00
C1065  C     0.16696   0.83331   0.66427   0.00000  Uiso   1.00
C1066  C     0.16665   0.83335   0.83573   0.00000  Uiso   1.00
C1067  C     0.16563   0.79073   0.90730   0.00000  Uiso   1.00
C1068  C     0.16896   0.87589   0.59271   0.00000  Uiso   1.00
C1069  C     0.16682   0.83335   0.88417   0.00000  Uiso   1.00
C1070  C     0.16738   0.83328   0.61584   0.00000  Uiso   1.00
C1071  C     0.16829   0.87595   0.90741   0.00000  Uiso   1.00
C1072  C     0.16606   0.79068   0.59260   0.00000  Uiso   1.00
C1073  C     0.16855   0.87623   0.95360   0.00000  Uiso   1.00
C1074  C     0.16610   0.79038   0.54641   0.00000  Uiso   1.00
C1075  C     0.16730   0.83331   0.97676   0.00000  Uiso   1.00
C1076  C     0.16746   0.83330   0.52325   0.00000  Uiso   1.00
C1077  C     0.16584   0.79041   0.95349   0.00000  Uiso   1.00
C1078  C     0.16893   0.87620   0.54652   0.00000  Uiso   1.00
C1079  C     0.17003   0.91868   0.97700   0.00000  Uiso   1.00
C1080  C     0.16470   0.74793   0.52301   0.00000  Uiso   1.00
Cu1081 Cu    0.16667   0.88022   0.75000   0.00000  Uiso   1.00
Cu1082 Cu    0.16667   0.78645   0.75000   0.00000  Uiso   1.00
H1083  H     0.16448   0.75775   0.88943   0.00000  Uiso   1.00
H1084  H     0.17006   0.90886   0.61058   0.00000  Uiso   1.00
H1085  H     0.16929   0.90893   0.88962   0.00000  Uiso   1.00
H1086  H     0.16486   0.75770   0.61039   0.00000  Uiso   1.00
H1087  H     0.17102   0.95185   0.95956   0.00000  Uiso   1.00
H1088  H     0.16365   0.71476   0.54045   0.00000  Uiso   1.00
H1089  H     0.17135   0.95182   0.54077   0.00000  Uiso   1.00
H1090  H     0.16346   0.71479   0.95925   0.00000  Uiso   1.00
H1091  H     0.12175   0.71009   0.69874   0.00000  Uiso   1.00
H1092  H     0.21159   0.95658   0.80126   0.00000  Uiso   1.00
H1093  H     0.21152   0.71032   0.80130   0.00000  Uiso   1.00
H1094  H     0.12184   0.95635   0.69867   0.00000  Uiso   1.00
N1095  N     0.16667   0.95069   0.75000   0.00000  Uiso   1.00
N1096  N     0.16667   0.71598   0.75000   0.00000  Uiso   1.00
O1097  O     0.10655   0.87291   0.74999   0.00000  Uiso   1.00
O1098  O     0.22679   0.79375   0.75000   0.00000  Uiso   1.00
O1099  O     0.22679   0.87291   0.75000   0.00000  Uiso   1.00
O1100  O     0.10655   0.79375   0.74999   0.00000  Uiso   1.00
O1101  O     0.16666   0.87293   0.68513   0.00000  Uiso   1.00
O1102  O     0.16668   0.79373   0.81487   0.00000  Uiso   1.00
O1103  O     0.16668   0.87293   0.81487   0.00000  Uiso   1.00
O1104  O     0.16666   0.79373   0.68513   0.00000  Uiso   1.00
C1105  C     0.04557   0.78223   0.81735   0.00000  Uiso   1.00
O1106  O     0.06138   0.80466   0.84760   0.00000  Uiso   1.00
O1107  O     0.05055   0.73366   0.81511   0.00000  Uiso   1.00
H1108  H     0.06776   0.72099   0.84061   0.00000  Uiso   1.00
C1109  C     0.28773   0.88440   0.68265   0.00000  Uiso   1.00
O1110  O     0.26906   0.86160   0.65460   0.00000  Uiso   1.00
O1111  O     0.28611   0.93333   0.68217   0.00000  Uiso   1.00
H1112  H     0.26862   0.94584   0.65681   0.00000  Uiso   1.00
C1113  C     0.28977   0.78245   0.81886   0.00000  Uiso   1.00
O1114  O     0.26433   0.80346   0.84098   0.00000  Uiso   1.00
O1115  O     0.29779   0.73517   0.82732   0.00000  Uiso   1.00
H1116  H     0.28063   0.72233   0.85250   0.00000  Uiso   1.00
C1117  C     0.04361   0.88480   0.68192   0.00000  Uiso   1.00
O1118  O     0.03821   0.92674   0.67605   0.00000  Uiso   1.00
O1119  O     0.07108   0.86014   0.65519   0.00000  Uiso   1.00
H1120  H     0.08421   0.88079   0.63190   0.00000  Uiso   1.00
C1121  C     0.42082   0.83330   0.74969   0.00000  Uiso   1.00
C1122  C     0.57916   0.83337   0.75035   0.00000  Uiso   1.00
C1123  C     0.50357   0.91866   0.52323   0.00000  Uiso   1.00
C1124  C     0.49791   0.74794   0.97678   0.00000  Uiso   1.00
C1125  C     0.35529   0.80693   0.78211   0.00000  Uiso   1.00
C1126  C     0.64464   0.85989   0.71812   0.00000  Uiso   1.00
C1127  C     0.64546   0.80727   0.78286   0.00000  Uiso   1.00
C1128  C     0.35448   0.85985   0.71766   0.00000  Uiso   1.00
C1129  C     0.62382   0.83358   0.75059   0.00000  Uiso   1.00
C1130  C     0.37612   0.83318   0.74961   0.00000  Uiso   1.00
C1131  C     0.47506   0.69142   0.72153   0.00000  Uiso   1.00
C1132  C     0.52494   0.97525   0.77847   0.00000  Uiso   1.00
C1133  C     0.52493   0.69155   0.77848   0.00000  Uiso   1.00
C1134  C     0.47508   0.97512   0.72151   0.00000  Uiso   1.00
C1135  C     0.50029   0.83331   0.66427   0.00000  Uiso   1.00
C1136  C     0.49999   0.83335   0.83573   0.00000  Uiso   1.00
C1137  C     0.49896   0.79073   0.90730   0.00000  Uiso   1.00
C1138  C     0.50229   0.87589   0.59271   0.00000  Uiso   1.00
C1139  C     0.50015   0.83335   0.88417   0.00000  Uiso   1.00
C1140  C     0.50071   0.83328   0.61584   0.00000  Uiso   1.00
C1141  C     0.50162   0.87595   0.90741   0.00000  Uiso   1.00
C1142  C     0.49939   0.79068   0.59260   0.00000  Uiso   1.00
C1143  C     0.50189   0.87623   0.95360   0.00000  Uiso   1.00
C1144  C     0.49943   0.79038   0.54641   0.00000  Uiso   1.00
C1145  C     0.50063   0.83331   0.97676   0.00000  Uiso   1.00
C1146  C     0.50080   0.83330   0.52325   0.00000  Uiso   1.00
C1147  C     0.49917   0.79041   0.95349   0.00000  Uiso   1.00
C1148  C     0.50226   0.87620   0.54652   0.00000  Uiso   1.00
C1149  C     0.50337   0.91868   0.97700   0.00000  Uiso   1.00
C1150  C     0.49803   0.74793   0.52301   0.00000  Uiso   1.00
Cu1151 Cu    0.50000   0.88022   0.75000   0.00000  Uiso   1.00
Cu1152 Cu    0.50000   0.78645   0.75000   0.00000  Uiso   1.00
H1153  H     0.49782   0.75775   0.88943   0.00000  Uiso   1.00
H1154  H     0.50339   0.90886   0.61058   0.00000  Uiso   1.00
H1155  H     0.50262   0.90893   0.88962   0.00000  Uiso   1.00
H1156  H     0.49819   0.75770   0.61039   0.00000  Uiso   1.00
H1157  H     0.50435   0.95185   0.95956   0.00000  Uiso   1.00
H1158  H     0.49699   0.71476   0.54045   0.00000  Uiso   1.00
H1159  H     0.50469   0.95182   0.54077   0.00000  Uiso   1.00
H1160  H     0.49680   0.71479   0.95925   0.00000  Uiso   1.00
H1161  H     0.45509   0.71009   0.69874   0.00000  Uiso   1.00
H1162  H     0.54492   0.95658   0.80126   0.00000  Uiso   1.00
H1163  H     0.54486   0.71032   0.80130   0.00000  Uiso   1.00
H1164  H     0.45517   0.95635   0.69867   0.00000  Uiso   1.00
N1165  N     0.50000   0.95069   0.75000   0.00000  Uiso   1.00
N1166  N     0.50000   0.71598   0.75000   0.00000  Uiso   1.00
O1167  O     0.43988   0.87291   0.74999   0.00000  Uiso   1.00
O1168  O     0.56012   0.79375   0.75000   0.00000  Uiso   1.00
O1169  O     0.56012   0.87291   0.75000   0.00000  Uiso   1.00
O1170  O     0.43988   0.79375   0.74999   0.00000  Uiso   1.00
O1171  O     0.49999   0.87293   0.68513   0.00000  Uiso   1.00
O1172  O     0.50001   0.79373   0.81487   0.00000  Uiso   1.00
O1173  O     0.50001   0.87293   0.81487   0.00000  Uiso   1.00
O1174  O     0.49999   0.79373   0.68513   0.00000  Uiso   1.00
C1175  C     0.37890   0.78223   0.81735   0.00000  Uiso   1.00
O1176  O     0.39471   0.80466   0.84760   0.00000  Uiso   1.00
O1177  O     0.38389   0.73366   0.81511   0.00000  Uiso   1.00
H1178  H     0.40110   0.72099   0.84061   0.00000  Uiso   1.00
C1179  C     0.62107   0.88440   0.68265   0.00000  Uiso   1.00
O1180  O     0.60239   0.86160   0.65460   0.00000  Uiso   1.00
O1181  O     0.61944   0.93333   0.68217   0.00000  Uiso   1.00
H1182  H     0.60195   0.94584   0.65681   0.00000  Uiso   1.00
C1183  C     0.62311   0.78245   0.81886   0.00000  Uiso   1.00
O1184  O     0.59766   0.80346   0.84098   0.00000  Uiso   1.00
O1185  O     0.63112   0.73517   0.82732   0.00000  Uiso   1.00
H1186  H     0.61396   0.72233   0.85250   0.00000  Uiso   1.00
C1187  C     0.37695   0.88480   0.68192   0.00000  Uiso   1.00
O1188  O     0.37154   0.92674   0.67605   0.00000  Uiso   1.00
O1189  O     0.40441   0.86014   0.65519   0.00000  Uiso   1.00
H1190  H     0.41754   0.88079   0.63190   0.00000  Uiso   1.00
C1191  C     0.75416   0.83330   0.74969   0.00000  Uiso   1.00
C1192  C     0.91249   0.83337   0.75035   0.00000  Uiso   1.00
C1193  C     0.83690   0.91866   0.52323   0.00000  Uiso   1.00
C1194  C     0.83125   0.74794   0.97678   0.00000  Uiso   1.00
C1195  C     0.68863   0.80693   0.78211   0.00000  Uiso   1.00
C1196  C     0.97797   0.85989   0.71812   0.00000  Uiso   1.00
C1197  C     0.97879   0.80727   0.78286   0.00000  Uiso   1.00
C1198  C     0.68781   0.85985   0.71766   0.00000  Uiso   1.00
C1199  C     0.95715   0.83358   0.75059   0.00000  Uiso   1.00
C1200  C     0.70946   0.83318   0.74961   0.00000  Uiso   1.00
C1201  C     0.80840   0.69142   0.72153   0.00000  Uiso   1.00
C1202  C     0.85827   0.97525   0.77847   0.00000  Uiso   1.00
C1203  C     0.85826   0.69155   0.77848   0.00000  Uiso   1.00
C1204  C     0.80842   0.97512   0.72151   0.00000  Uiso   1.00
C1205  C     0.83363   0.83331   0.66427   0.00000  Uiso   1.00
C1206  C     0.83332   0.83335   0.83573   0.00000  Uiso   1.00
C1207  C     0.83229   0.79073   0.90730   0.00000  Uiso   1.00
C1208  C     0.83563   0.87589   0.59271   0.00000  Uiso   1.00
C1209  C     0.83349   0.83335   0.88417   0.00000  Uiso   1.00
C1210  C     0.83405   0.83328   0.61584   0.00000  Uiso   1.00
C1211  C     0.83495   0.87595   0.90741   0.00000  Uiso   1.00
C1212  C     0.83272   0.79068   0.59260   0.00000  Uiso   1.00
C1213  C     0.83522   0.87623   0.95360   0.00000  Uiso   1.00
C1214  C     0.83277   0.79038   0.54641   0.00000  Uiso   1.00
C1215  C     0.83397   0.83331   0.97676   0.00000  Uiso   1.00
C1216  C     0.83413   0.83330   0.52325   0.00000  Uiso   1.00
C1217  C     0.83250   0.79041   0.95349   0.00000  Uiso   1.00
C1218  C     0.83559   0.87620   0.54652   0.00000  Uiso   1.00
C1219  C     0.83670   0.91868   0.97700   0.00000  Uiso   1.00
C1220  C     0.83136   0.74793   0.52301   0.00000  Uiso   1.00
Cu1221 Cu    0.83333   0.88022   0.75000   0.00000  Uiso   1.00
Cu1222 Cu    0.83333   0.78645   0.75000   0.00000  Uiso   1.00
H1223  H     0.83115   0.75775   0.88943   0.00000  Uiso   1.00
H1224  H     0.83673   0.90886   0.61058   0.00000  Uiso   1.00
H1225  H     0.83595   0.90893   0.88962   0.00000  Uiso   1.00
H1226  H     0.83152   0.75770   0.61039   0.00000  Uiso   1.00
H1227  H     0.83768   0.95185   0.95956   0.00000  Uiso   1.00
H1228  H     0.83032   0.71476   0.54045   0.00000  Uiso   1.00
H1229  H     0.83802   0.95182   0.54077   0.00000  Uiso   1.00
H1230  H     0.83013   0.71479   0.95925   0.00000  Uiso   1.00
H1231  H     0.78842   0.71009   0.69874   0.00000  Uiso   1.00
H1232  H     0.87825   0.95658   0.80126   0.00000  Uiso   1.00
H1233  H     0.87819   0.71032   0.80130   0.00000  Uiso   1.00
H1234  H     0.78850   0.95635   0.69867   0.00000  Uiso   1.00
N1235  N     0.83333   0.95069   0.75000   0.00000  Uiso   1.00
N1236  N     0.83333   0.71598   0.75000   0.00000  Uiso   1.00
O1237  O     0.77321   0.87291   0.74999   0.00000  Uiso   1.00
O1238  O     0.89345   0.79375   0.75000   0.00000  Uiso   1.00
O1239  O     0.89345   0.87291   0.75000   0.00000  Uiso   1.00
O1240  O     0.77321   0.79375   0.74999   0.00000  Uiso   1.00
O1241  O     0.83332   0.87293   0.68513   0.00000  Uiso   1.00
O1242  O     0.83334   0.79373   0.81487   0.00000  Uiso   1.00
O1243  O     0.83334   0.87293   0.81487   0.00000  Uiso   1.00
O1244  O     0.83332   0.79373   0.68513   0.00000  Uiso   1.00
C1245  C     0.71224   0.78223   0.81735   0.00000  Uiso   1.00
O1246  O     0.72805   0.80466   0.84760   0.00000  Uiso   1.00
O1247  O     0.71722   0.73366   0.81511   0.00000  Uiso   1.00
H1248  H     0.73443   0.72099   0.84061   0.00000  Uiso   1.00
C1249  C     0.95440   0.88440   0.68265   0.00000  Uiso   1.00
O1250  O     0.93573   0.86160   0.65460   0.00000  Uiso   1.00
O1251  O     0.95278   0.93333   0.68217   0.00000  Uiso   1.00
H1252  H     0.93529   0.94584   0.65681   0.00000  Uiso   1.00
C1253  C     0.95644   0.78245   0.81886   0.00000  Uiso   1.00
O1254  O     0.93099   0.80346   0.84098   0.00000  Uiso   1.00
O1255  O     0.96445   0.73517   0.82732   0.00000  Uiso   1.00
H1256  H     0.94730   0.72233   0.85250   0.00000  Uiso   1.00
C1257  C     0.71028   0.88480   0.68192   0.00000  Uiso   1.00
O1258  O     0.70487   0.92674   0.67605   0.00000  Uiso   1.00
O1259  O     0.73774   0.86014   0.65519   0.00000  Uiso   1.00
H1260  H     0.75088   0.88079   0.63190   0.00000  Uiso   1.00
loop_
_geom_bond_atom_site_label_1
_geom_bond_atom_site_label_2
_geom_bond_distance
_geom_bond_site_symmetry_2
_ccdc_geom_bond_type
C1     O50     1.287   .     A
C1     O47     1.288   .     A
C1     C10     1.450   .     S
C2     O49     1.287   .     A
C2     O48     1.288   .     A
C2     C9      1.449   .     S
C3     H39     1.084   .     S
C3     C28     1.402   .     A
C3     C659    1.394   1_554 S
C4     C27     1.402   .     A
C4     H40     1.084   .     S
C4     C660    1.394   .     S
C5     C10     1.411   .     A
C5     C55     1.484   .     S
C5     C147    1.401   1_455 S
C6     C9      1.411   .     A
C6     C59     1.486   .     S
C6     C78     1.401   .     S
C7     C63     1.490   .     S
C7     C9      1.412   .     A
C7     C75     1.401   .     S
C8     C67     1.488   .     S
C8     C10     1.411   .     A
C8     C146    1.401   1_455 S
C11    H41     1.082   .     S
C11    N46     1.367   .     A
C11    C434    1.416   1_545 S
C12    N45     1.367   .     A
C12    H42     1.082   .     S
C12    C223    1.416   .     S
C13    H43     1.081   .     S
C13    N46     1.367   .     A
C13    C432    1.416   1_545 S
C14    H44     1.082   .     S
C14    N45     1.367   .     A
C14    C221    1.416   .     S
C15    O51     1.293   .     A
C15    O54     1.293   .     A
C15    C20     1.461   .     S
C16    C19     1.461   .     S
C16    O52     1.293   .     A
C16    O53     1.293   .     A
C17    H33     1.084   .     S
C17    C19     1.403   .     A
C17    C27     1.393   .     A
C18    H34     1.084   .     S
C18    C20     1.403   .     A
C18    C28     1.393   .     A
C19    C21     1.403   .     A
C20    C22     1.403   .     A
C21    H35     1.084   .     S
C21    C23     1.393   .     A
C22    H36     1.084   .     S
C22    C24     1.393   .     A
C23    C25     1.411   .     A
C23    C29     1.402   .     A
C24    C26     1.411   .     A
C24    C30     1.402   .     A
C25    C27     1.411   .     A
C25    C656    1.402   .     S
C26    C28     1.411   .     A
C26    C655    1.402   1_554 S
C29    H37     1.084   .     S
C29    C633    1.394   .     S
C30    H38     1.084   .     S
C30    C634    1.394   1_554 S
Cu31   Cu32    2.676   .     S
Cu31   O47     1.961   .     S
Cu31   O53     1.968   .     S
Cu31   O49     1.962   .     S
Cu31   N45     2.011   .     S
Cu31   O51     1.967   .     S
Cu32   O48     1.961   .     S
Cu32   O50     1.962   .     S
Cu32   O54     1.968   .     S
Cu32   N46     2.011   .     S
Cu32   O52     1.967   .     S
C55    O56     1.223   .     D
C55    O57     1.397   .     S
O57    H58     1.014   .     S
C59    O60     1.223   .     D
C59    O61     1.397   .     S
O61    H62     1.014   .     S
C63    O65     1.398   .     S
C63    O64     1.223   .     D
O65    H66     1.014   .     S
C67    O69     1.397   .     S
C67    O68     1.222   .     D
O69    H70     1.014   .     S
C71    O120    1.287   .     A
C71    O117    1.288   .     A
C71    C80     1.450   .     S
C72    O119    1.287   .     A
C72    O118    1.288   .     A
C72    C79     1.449   .     S
C73    H109    1.084   .     S
C73    C98     1.402   .     A
C73    C729    1.394   1_554 S
C74    C97     1.402   .     A
C74    H110    1.084   .     S
C74    C730    1.394   .     S
C75    C80     1.411   .     A
C75    C125    1.484   .     S
C76    C79     1.411   .     A
C76    C129    1.486   .     S
C76    C148    1.401   .     S
C77    C133    1.490   .     S
C77    C79     1.412   .     A
C77    C145    1.401   .     S
C78    C137    1.488   .     S
C78    C80     1.411   .     A
C81    H111    1.082   .     S
C81    N116    1.367   .     A
C81    C504    1.416   1_545 S
C82    N115    1.367   .     A
C82    H112    1.082   .     S
C82    C293    1.416   .     S
C83    H113    1.081   .     S
C83    N116    1.367   .     A
C83    C502    1.416   1_545 S
C84    H114    1.082   .     S
C84    N115    1.367   .     A
C84    C291    1.416   .     S
C85    O121    1.293   .     A
C85    O124    1.293   .     A
C85    C90     1.461   .     S
C86    C89     1.461   .     S
C86    O122    1.293   .     A
C86    O123    1.293   .     A
C87    H103    1.084   .     S
C87    C89     1.403   .     A
C87    C97     1.393   .     A
C88    H104    1.084   .     S
C88    C90     1.403   .     A
C88    C98     1.393   .     A
C89    C91     1.403   .     A
C90    C92     1.403   .     A
C91    H105    1.084   .     S
C91    C93     1.393   .     A
C92    H106    1.084   .     S
C92    C94     1.393   .     A
C93    C95     1.411   .     A
C93    C99     1.402   .     A
C94    C96     1.411   .     A
C94    C100    1.402   .     A
C95    C97     1.411   .     A
C95    C726    1.402   .     S
C96    C98     1.411   .     A
C96    C725    1.402   1_554 S
C99    H107    1.084   .     S
C99    C703    1.394   .     S
C100   H108    1.084   .     S
C100   C704    1.394   1_554 S
Cu101  Cu102   2.676   .     S
Cu101  O117    1.961   .     S
Cu101  O123    1.968   .     S
Cu101  O119    1.962   .     S
Cu101  N115    2.011   .     S
Cu101  O121    1.967   .     S
Cu102  O118    1.961   .     S
Cu102  O120    1.962   .     S
Cu102  O124    1.968   .     S
Cu102  N116    2.011   .     S
Cu102  O122    1.967   .     S
C125   O126    1.223   .     D
C125   O127    1.397   .     S
O127   H128    1.014   .     S
C129   O130    1.223   .     D
C129   O131    1.397   .     S
O131   H132    1.014   .     S
C133   O135    1.398   .     S
C133   O134    1.223   .     D
O135   H136    1.014   .     S
C137   O139    1.397   .     S
C137   O138    1.222   .     D
O139   H140    1.014   .     S
C141   O190    1.287   .     A
C141   O187    1.288   .     A
C141   C150    1.450   .     S
C142   O189    1.287   .     A
C142   O188    1.288   .     A
C142   C149    1.449   .     S
C143   H179    1.084   .     S
C143   C168    1.402   .     A
C143   C799    1.394   1_554 S
C144   C167    1.402   .     A
C144   H180    1.084   .     S
C144   C800    1.394   .     S
C145   C150    1.411   .     A
C145   C195    1.484   .     S
C146   C149    1.411   .     A
C146   C199    1.486   .     S
C146   C8      1.401   1_655 S
C147   C203    1.490   .     S
C147   C149    1.412   .     A
C147   C5      1.401   1_655 S
C148   C207    1.488   .     S
C148   C150    1.411   .     A
C151   H181    1.082   .     S
C151   N186    1.367   .     A
C151   C574    1.416   1_545 S
C152   N185    1.367   .     A
C152   H182    1.082   .     S
C152   C363    1.416   .     S
C153   H183    1.081   .     S
C153   N186    1.367   .     A
C153   C572    1.416   1_545 S
C154   H184    1.082   .     S
C154   N185    1.367   .     A
C154   C361    1.416   .     S
C155   O191    1.293   .     A
C155   O194    1.293   .     A
C155   C160    1.461   .     S
C156   C159    1.461   .     S
C156   O192    1.293   .     A
C156   O193    1.293   .     A
C157   H173    1.084   .     S
C157   C159    1.403   .     A
C157   C167    1.393   .     A
C158   H174    1.084   .     S
C158   C160    1.403   .     A
C158   C168    1.393   .     A
C159   C161    1.403   .     A
C160   C162    1.403   .     A
C161   H175    1.084   .     S
C161   C163    1.393   .     A
C162   H176    1.084   .     S
C162   C164    1.393   .     A
C163   C165    1.411   .     A
C163   C169    1.402   .     A
C164   C166    1.411   .     A
C164   C170    1.402   .     A
C165   C167    1.411   .     A
C165   C796    1.402   .     S
C166   C168    1.411   .     A
C166   C795    1.402   1_554 S
C169   H177    1.084   .     S
C169   C773    1.394   .     S
C170   H178    1.084   .     S
C170   C774    1.394   1_554 S
Cu171  Cu172   2.676   .     S
Cu171  O187    1.961   .     S
Cu171  O193    1.968   .     S
Cu171  O189    1.962   .     S
Cu171  N185    2.011   .     S
Cu171  O191    1.967   .     S
Cu172  O188    1.961   .     S
Cu172  O190    1.962   .     S
Cu172  O194    1.968   .     S
Cu172  N186    2.011   .     S
Cu172  O192    1.967   .     S
C195   O196    1.223   .     D
C195   O197    1.397   .     S
O197   H198    1.014   .     S
C199   O200    1.223   .     D
C199   O201    1.397   .     S
O201   H202    1.014   .     S
C203   O205    1.398   .     S
C203   O204    1.223   .     D
O205   H206    1.014   .     S
C207   O209    1.397   .     S
C207   O208    1.222   .     D
O209   H210    1.014   .     S
C211   O260    1.287   .     A
C211   O257    1.288   .     A
C211   C220    1.450   .     S
C212   O259    1.287   .     A
C212   O258    1.288   .     A
C212   C219    1.449   .     S
C213   H249    1.084   .     S
C213   C238    1.402   .     A
C213   C869    1.394   1_554 S
C214   C237    1.402   .     A
C214   H250    1.084   .     S
C214   C870    1.394   .     S
C215   C220    1.411   .     A
C215   C265    1.484   .     S
C215   C357    1.401   1_455 S
C216   C219    1.411   .     A
C216   C269    1.486   .     S
C216   C288    1.401   .     S
C217   C273    1.490   .     S
C217   C219    1.412   .     A
C217   C285    1.401   .     S
C218   C277    1.488   .     S
C218   C220    1.411   .     A
C218   C356    1.401   1_455 S
C221   H251    1.082   .     S
C221   N256    1.367   .     A
C222   N255    1.367   .     A
C222   H252    1.082   .     S
C222   C433    1.416   .     S
C223   H253    1.081   .     S
C223   N256    1.367   .     A
C224   H254    1.082   .     S
C224   N255    1.367   .     A
C224   C431    1.416   .     S
C225   O261    1.293   .     A
C225   O264    1.293   .     A
C225   C230    1.461   .     S
C226   C229    1.461   .     S
C226   O262    1.293   .     A
C226   O263    1.293   .     A
C227   H243    1.084   .     S
C227   C229    1.403   .     A
C227   C237    1.393   .     A
C228   H244    1.084   .     S
C228   C230    1.403   .     A
C228   C238    1.393   .     A
C229   C231    1.403   .     A
C230   C232    1.403   .     A
C231   H245    1.084   .     S
C231   C233    1.393   .     A
C232   H246    1.084   .     S
C232   C234    1.393   .     A
C233   C235    1.411   .     A
C233   C239    1.402   .     A
C234   C236    1.411   .     A
C234   C240    1.402   .     A
C235   C237    1.411   .     A
C235   C866    1.402   .     S
C236   C238    1.411   .     A
C236   C865    1.402   1_554 S
C239   H247    1.084   .     S
C239   C843    1.394   .     S
C240   H248    1.084   .     S
C240   C844    1.394   1_554 S
Cu241  Cu242   2.676   .     S
Cu241  O257    1.961   .     S
Cu241  O263    1.968   .     S
Cu241  O259    1.962   .     S
Cu241  N255    2.011   .     S
Cu241  O261    1.967   .     S
Cu242  O258    1.961   .     S
Cu242  O260    1.962   .     S
Cu242  O264    1.968   .     S
Cu242  N256    2.011   .     S
Cu242  O262    1.967   .     S
C265   O266    1.223   .     D
C265   O267    1.397   .     S
O267   H268    1.014   .     S
C269   O270    1.223   .     D
C269   O271    1.397   .     S
O271   H272    1.014   .     S
C273   O275    1.398   .     S
C273   O274    1.223   .     D
O275   H276    1.014   .     S
C277   O279    1.397   .     S
C277   O278    1.222   .     D
O279   H280    1.014   .     S
C281   O330    1.287   .     A
C281   O327    1.288   .     A
C281   C290    1.450   .     S
C282   O329    1.287   .     A
C282   O328    1.288   .     A
C282   C289    1.449   .     S
C283   H319    1.084   .     S
C283   C308    1.402   .     A
C283   C939    1.394   1_554 S
C284   C307    1.402   .     A
C284   H320    1.084   .     S
C284   C940    1.394   .     S
C285   C290    1.411   .     A
C285   C335    1.484   .     S
C286   C289    1.411   .     A
C286   C339    1.486   .     S
C286   C358    1.401   .     S
C287   C343    1.490   .     S
C287   C289    1.412   .     A
C287   C355    1.401   .     S
C288   C347    1.488   .     S
C288   C290    1.411   .     A
C291   H321    1.082   .     S
C291   N326    1.367   .     A
C292   N325    1.367   .     A
C292   H322    1.082   .     S
C292   C503    1.416   .     S
C293   H323    1.081   .     S
C293   N326    1.367   .     A
C294   H324    1.082   .     S
C294   N325    1.367   .     A
C294   C501    1.416   .     S
C295   O331    1.293   .     A
C295   O334    1.293   .     A
C295   C300    1.461   .     S
C296   C299    1.461   .     S
C296   O332    1.293   .     A
C296   O333    1.293   .     A
C297   H313    1.084   .     S
C297   C299    1.403   .     A
C297   C307    1.393   .     A
C298   H314    1.084   .     S
C298   C300    1.403   .     A
C298   C308    1.393   .     A
C299   C301    1.403   .     A
C300   C302    1.403   .     A
C301   H315    1.084   .     S
C301   C303    1.393   .     A
C302   H316    1.084   .     S
C302   C304    1.393   .     A
C303   C305    1.411   .     A
C303   C309    1.402   .     A
C304   C306    1.411   .     A
C304   C310    1.402   .     A
C305   C307    1.411   .     A
C305   C936    1.402   .     S
C306   C308    1.411   .     A
C306   C935    1.402   1_554 S
C309   H317    1.084   .     S
C309   C913    1.394   .     S
C310   H318    1.084   .     S
C310   C914    1.394   1_554 S
Cu311  Cu312   2.676   .     S
Cu311  O327    1.961   .     S
Cu311  O333    1.968   .     S
Cu311  O329    1.962   .     S
Cu311  N325    2.011   .     S
Cu311  O331    1.967   .     S
Cu312  O328    1.961   .     S
Cu312  O330    1.962   .     S
Cu312  O334    1.968   .     S
Cu312  N326    2.011   .     S
Cu312  O332    1.967   .     S
C335   O336    1.223   .     D
C335   O337    1.397   .     S
O337   H338    1.014   .     S
C339   O340    1.223   .     D
C339   O341    1.397   .     S
O341   H342    1.014   .     S
C343   O345    1.398   .     S
C343   O344    1.223   .     D
O345   H346    1.014   .     S
C347   O349    1.397   .     S
C347   O348    1.222   .     D
O349   H350    1.014   .     S
C351   O400    1.287   .     A
C351   O397    1.288   .     A
C351   C360    1.450   .     S
C352   O399    1.287   .     A
C352   O398    1.288   .     A
C352   C359    1.449   .     S
C353   H389    1.084   .     S
C353   C378    1.402   .     A
C353   C1009   1.394   1_554 S
C354   C377    1.402   .     A
C354   H390    1.084   .     S
C354   C1010   1.394   .     S
C355   C360    1.411   .     A
C355   C405    1.484   .     S
C356   C359    1.411   .     A
C356   C409    1.486   .     S
C356   C218    1.401   1_655 S
C357   C413    1.490   .     S
C357   C359    1.412   .     A
C357   C215    1.401   1_655 S
C358   C417    1.488   .     S
C358   C360    1.411   .     A
C361   H391    1.082   .     S
C361   N396    1.367   .     A
C362   N395    1.367   .     A
C362   H392    1.082   .     S
C362   C573    1.416   .     S
C363   H393    1.081   .     S
C363   N396    1.367   .     A
C364   H394    1.082   .     S
C364   N395    1.367   .     A
C364   C571    1.416   .     S
C365   O401    1.293   .     A
C365   O404    1.293   .     A
C365   C370    1.461   .     S
C366   C369    1.461   .     S
C366   O402    1.293   .     A
C366   O403    1.293   .     A
C367   H383    1.084   .     S
C367   C369    1.403   .     A
C367   C377    1.393   .     A
C368   H384    1.084   .     S
C368   C370    1.403   .     A
C368   C378    1.393   .     A
C369   C371    1.403   .     A
C370   C372    1.403   .     A
C371   H385    1.084   .     S
C371   C373    1.393   .     A
C372   H386    1.084   .     S
C372   C374    1.393   .     A
C373   C375    1.411   .     A
C373   C379    1.402   .     A
C374   C376    1.411   .     A
C374   C380    1.402   .     A
C375   C377    1.411   .     A
C375   C1006   1.402   .     S
C376   C378    1.411   .     A
C376   C1005   1.402   1_554 S
C379   H387    1.084   .     S
C379   C983    1.394   .     S
C380   H388    1.084   .     S
C380   C984    1.394   1_554 S
Cu381  Cu382   2.676   .     S
Cu381  O397    1.961   .     S
Cu381  O403    1.968   .     S
Cu381  O399    1.962   .     S
Cu381  N395    2.011   .     S
Cu381  O401    1.967   .     S
Cu382  O398    1.961   .     S
Cu382  O400    1.962   .     S
Cu382  O404    1.968   .     S
Cu382  N396    2.011   .     S
Cu382  O402    1.967   .     S
C405   O406    1.223   .     D
C405   O407    1.397   .     S
O407   H408    1.014   .     S
C409   O410    1.223   .     D
C409   O411    1.397   .     S
O411   H412    1.014   .     S
C413   O415    1.398   .     S
C413   O414    1.223   .     D
O415   H416    1.014   .     S
C417   O419    1.397   .     S
C417   O418    1.222   .     D
O419   H420    1.014   .     S
C421   O470    1.287   .     A
C421   O467    1.288   .     A
C421   C430    1.450   .     S
C422   O469    1.287   .     A
C422   O468    1.288   .     A
C422   C429    1.449   .     S
C423   H459    1.084   .     S
C423   C448    1.402   .     A
C423   C1079   1.394   1_554 S
C424   C447    1.402   .     A
C424   H460    1.084   .     S
C424   C1080   1.394   .     S
C425   C430    1.411   .     A
C425   C475    1.484   .     S
C425   C567    1.401   1_455 S
C426   C429    1.411   .     A
C426   C479    1.486   .     S
C426   C498    1.401   .     S
C427   C483    1.490   .     S
C427   C429    1.412   .     A
C427   C495    1.401   .     S
C428   C487    1.488   .     S
C428   C430    1.411   .     A
C428   C566    1.401   1_455 S
C431   H461    1.082   .     S
C431   N466    1.367   .     A
C432   N465    1.367   .     A
C432   H462    1.082   .     S
C432   C13     1.416   1_565 S
C433   H463    1.081   .     S
C433   N466    1.367   .     A
C434   H464    1.082   .     S
C434   N465    1.367   .     A
C434   C11     1.416   1_565 S
C435   O471    1.293   .     A
C435   O474    1.293   .     A
C435   C440    1.461   .     S
C436   C439    1.461   .     S
C436   O472    1.293   .     A
C436   O473    1.293   .     A
C437   H453    1.084   .     S
C437   C439    1.403   .     A
C437   C447    1.393   .     A
C438   H454    1.084   .     S
C438   C440    1.403   .     A
C438   C448    1.393   .     A
C439   C441    1.403   .     A
C440   C442    1.403   .     A
C441   H455    1.084   .     S
C441   C443    1.393   .     A
C442   H456    1.084   .     S
C442   C444    1.393   .     A
C443   C445    1.411   .     A
C443   C449    1.402   .     A
C444   C446    1.411   .     A
C444   C450    1.402   .     A
C445   C447    1.411   .     A
C445   C1076   1.402   .     S
C446   C448    1.411   .     A
C446   C1075   1.402   1_554 S
C449   H457    1.084   .     S
C449   C1053   1.394   .     S
C450   H458    1.084   .     S
C450   C1054   1.394   1_554 S
Cu451  Cu452   2.676   .     S
Cu451  O467    1.961   .     S
Cu451  O473    1.968   .     S
Cu451  O469    1.962   .     S
Cu451  N465    2.011   .     S
Cu451  O471    1.967   .     S
Cu452  O468    1.961   .     S
Cu452  O470    1.962   .     S
Cu452  O474    1.968   .     S
Cu452  N466    2.011   .     S
Cu452  O472    1.967   .     S
C475   O476    1.223   .     D
C475   O477    1.397   .     S
O477   H478    1.014   .     S
C479   O480    1.223   .     D
C479   O481    1.397   .     S
O481   H482    1.014   .     S
C483   O485    1.398   .     S
C483   O484    1.223   .     D
O485   H486    1.014   .     S
C487   O489    1.397   .     S
C487   O488    1.222   .     D
O489   H490    1.014   .     S
C491   O540    1.287   .     A
C491   O537    1.288   .     A
C491   C500    1.450   .     S
C492   O539    1.287   .     A
C492   O538    1.288   .     A
C492   C499    1.449   .     S
C493   H529    1.084   .     S
C493   C518    1.402   .     A
C493   C1149   1.394   1_554 S
C494   C517    1.402   .     A
C494   H530    1.084   .     S
C494   C1150   1.394   .     S
C495   C500    1.411   .     A
C495   C545    1.484   .     S
C496   C499    1.411   .     A
C496   C549    1.486   .     S
C496   C568    1.401   .     S
C497   C553    1.490   .     S
C497   C499    1.412   .     A
C497   C565    1.401   .     S
C498   C557    1.488   .     S
C498   C500    1.411   .     A
C501   H531    1.082   .     S
C501   N536    1.367   .     A
C502   N535    1.367   .     A
C502   H532    1.082   .     S
C502   C83     1.416   1_565 S
C503   H533    1.081   .     S
C503   N536    1.367   .     A
C504   H534    1.082   .     S
C504   N535    1.367   .     A
C504   C81     1.416   1_565 S
C505   O541    1.293   .     A
C505   O544    1.293   .     A
C505   C510    1.461   .     S
C506   C509    1.461   .     S
C506   O542    1.293   .     A
C506   O543    1.293   .     A
C507   H523    1.084   .     S
C507   C509    1.403   .     A
C507   C517    1.393   .     A
C508   H524    1.084   .     S
C508   C510    1.403   .     A
C508   C518    1.393   .     A
C509   C511    1.403   .     A
C510   C512    1.403   .     A
C511   H525    1.084   .     S
C511   C513    1.393   .     A
C512   H526    1.084   .     S
C512   C514    1.393   .     A
C513   C515    1.411   .     A
C513   C519    1.402   .     A
C514   C516    1.411   .     A
C514   C520    1.402   .     A
C515   C517    1.411   .     A
C515   C1146   1.402   .     S
C516   C518    1.411   .     A
C516   C1145   1.402   1_554 S
C519   H527    1.084   .     S
C519   C1123   1.394   .     S
C520   H528    1.084   .     S
C520   C1124   1.394   1_554 S
Cu521  Cu522   2.676   .     S
Cu521  O537    1.961   .     S
Cu521  O543    1.968   .     S
Cu521  O539    1.962   .     S
Cu521  N535    2.011   .     S
Cu521  O541    1.967   .     S
Cu522  O538    1.961   .     S
Cu522  O540    1.962   .     S
Cu522  O544    1.968   .     S
Cu522  N536    2.011   .     S
Cu522  O542    1.967   .     S
C545   O546    1.223   .     D
C545   O547    1.397   .     S
O547   H548    1.014   .     S
C549   O550    1.223   .     D
C549   O551    1.397   .     S
O551   H552    1.014   .     S
C553   O555    1.398   .     S
C553   O554    1.223   .     D
O555   H556    1.014   .     S
C557   O559    1.397   .     S
C557   O558    1.222   .     D
O559   H560    1.014   .     S
C561   O610    1.287   .     A
C561   O607    1.288   .     A
C561   C570    1.450   .     S
C562   O609    1.287   .     A
C562   O608    1.288   .     A
C562   C569    1.449   .     S
C563   H599    1.084   .     S
C563   C588    1.402   .     A
C563   C1219   1.394   1_554 S
C564   C587    1.402   .     A
C564   H600    1.084   .     S
C564   C1220   1.394   .     S
C565   C570    1.411   .     A
C565   C615    1.484   .     S
C566   C569    1.411   .     A
C566   C619    1.486   .     S
C566   C428    1.401   1_655 S
C567   C623    1.490   .     S
C567   C569    1.412   .     A
C567   C425    1.401   1_655 S
C568   C627    1.488   .     S
C568   C570    1.411   .     A
C571   H601    1.082   .     S
C571   N606    1.367   .     A
C572   N605    1.367   .     A
C572   H602    1.082   .     S
C572   C153    1.416   1_565 S
C573   H603    1.081   .     S
C573   N606    1.367   .     A
C574   H604    1.082   .     S
C574   N605    1.367   .     A
C574   C151    1.416   1_565 S
C575   O611    1.293   .     A
C575   O614    1.293   .     A
C575   C580    1.461   .     S
C576   C579    1.461   .     S
C576   O612    1.293   .     A
C576   O613    1.293   .     A
C577   H593    1.084   .     S
C577   C579    1.403   .     A
C577   C587    1.393   .     A
C578   H594    1.084   .     S
C578   C580    1.403   .     A
C578   C588    1.393   .     A
C579   C581    1.403   .     A
C580   C582    1.403   .     A
C581   H595    1.084   .     S
C581   C583    1.393   .     A
C582   H596    1.084   .     S
C582   C584    1.393   .     A
C583   C585    1.411   .     A
C583   C589    1.402   .     A
C584   C586    1.411   .     A
C584   C590    1.402   .     A
C585   C587    1.411   .     A
C585   C1216   1.402   .     S
C586   C588    1.411   .     A
C586   C1215   1.402   1_554 S
C589   H597    1.084   .     S
C589   C1193   1.394   .     S
C590   H598    1.084   .     S
C590   C1194   1.394   1_554 S
Cu591  Cu592   2.676   .     S
Cu591  O607    1.961   .     S
Cu591  O613    1.968   .     S
Cu591  O609    1.962   .     S
Cu591  N605    2.011   .     S
Cu591  O611    1.967   .     S
Cu592  O608    1.961   .     S
Cu592  O610    1.962   .     S
Cu592  O614    1.968   .     S
Cu592  N606    2.011   .     S
Cu592  O612    1.967   .     S
C615   O616    1.223   .     D
C615   O617    1.397   .     S
O617   H618    1.014   .     S
C619   O620    1.223   .     D
C619   O621    1.397   .     S
O621   H622    1.014   .     S
C623   O625    1.398   .     S
C623   O624    1.223   .     D
O625   H626    1.014   .     S
C627   O629    1.397   .     S
C627   O628    1.222   .     D
O629   H630    1.014   .     S
C631   O680    1.287   .     A
C631   O677    1.288   .     A
C631   C640    1.450   .     S
C632   O679    1.287   .     A
C632   O678    1.288   .     A
C632   C639    1.449   .     S
C633   H669    1.084   .     S
C633   C658    1.402   .     A
C634   C657    1.402   .     A
C634   H670    1.084   .     S
C634   C30     1.394   1_556 S
C635   C640    1.411   .     A
C635   C685    1.484   .     S
C635   C777    1.401   1_455 S
C636   C639    1.411   .     A
C636   C689    1.486   .     S
C636   C708    1.401   .     S
C637   C693    1.490   .     S
C637   C639    1.412   .     A
C637   C705    1.401   .     S
C638   C697    1.488   .     S
C638   C640    1.411   .     A
C638   C776    1.401   1_455 S
C641   H671    1.082   .     S
C641   N676    1.367   .     A
C641   C1064   1.416   1_545 S
C642   N675    1.367   .     A
C642   H672    1.082   .     S
C642   C853    1.416   .     S
C643   H673    1.081   .     S
C643   N676    1.367   .     A
C643   C1062   1.416   1_545 S
C644   H674    1.082   .     S
C644   N675    1.367   .     A
C644   C851    1.416   .     S
C645   O681    1.293   .     A
C645   O684    1.293   .     A
C645   C650    1.461   .     S
C646   C649    1.461   .     S
C646   O682    1.293   .     A
C646   O683    1.293   .     A
C647   H663    1.084   .     S
C647   C649    1.403   .     A
C647   C657    1.393   .     A
C648   H664    1.084   .     S
C648   C650    1.403   .     A
C648   C658    1.393   .     A
C649   C651    1.403   .     A
C650   C652    1.403   .     A
C651   H665    1.084   .     S
C651   C653    1.393   .     A
C652   H666    1.084   .     S
C652   C654    1.393   .     A
C653   C655    1.411   .     A
C653   C659    1.402   .     A
C654   C656    1.411   .     A
C654   C660    1.402   .     A
C655   C657    1.411   .     A
C655   C26     1.402   1_556 S
C656   C658    1.411   .     A
C659   H667    1.084   .     S
C659   C3      1.394   1_556 S
C660   H668    1.084   .     S
Cu661  Cu662   2.676   .     S
Cu661  O677    1.961   .     S
Cu661  O683    1.968   .     S
Cu661  O679    1.962   .     S
Cu661  N675    2.011   .     S
Cu661  O681    1.967   .     S
Cu662  O678    1.961   .     S
Cu662  O680    1.962   .     S
Cu662  O684    1.968   .     S
Cu662  N676    2.011   .     S
Cu662  O682    1.967   .     S
C685   O686    1.223   .     D
C685   O687    1.397   .     S
O687   H688    1.014   .     S
C689   O690    1.223   .     D
C689   O691    1.397   .     S
O691   H692    1.014   .     S
C693   O695    1.398   .     S
C693   O694    1.223   .     D
O695   H696    1.014   .     S
C697   O699    1.397   .     S
C697   O698    1.222   .     D
O699   H700    1.014   .     S
C701   O750    1.287   .     A
C701   O747    1.288   .     A
C701   C710    1.450   .     S
C702   O749    1.287   .     A
C702   O748    1.288   .     A
C702   C709    1.449   .     S
C703   H739    1.084   .     S
C703   C728    1.402   .     A
C704   C727    1.402   .     A
C704   H740    1.084   .     S
C704   C100    1.394   1_556 S
C705   C710    1.411   .     A
C705   C755    1.484   .     S
C706   C709    1.411   .     A
C706   C759    1.486   .     S
C706   C778    1.401   .     S
C707   C763    1.490   .     S
C707   C709    1.412   .     A
C707   C775    1.401   .     S
C708   C767    1.488   .     S
C708   C710    1.411   .     A
C711   H741    1.082   .     S
C711   N746    1.367   .     A
C711   C1134   1.416   1_545 S
C712   N745    1.367   .     A
C712   H742    1.082   .     S
C712   C923    1.416   .     S
C713   H743    1.081   .     S
C713   N746    1.367   .     A
C713   C1132   1.416   1_545 S
C714   H744    1.082   .     S
C714   N745    1.367   .     A
C714   C921    1.416   .     S
C715   O751    1.293   .     A
C715   O754    1.293   .     A
C715   C720    1.461   .     S
C716   C719    1.461   .     S
C716   O752    1.293   .     A
C716   O753    1.293   .     A
C717   H733    1.084   .     S
C717   C719    1.403   .     A
C717   C727    1.393   .     A
C718   H734    1.084   .     S
C718   C720    1.403   .     A
C718   C728    1.393   .     A
C719   C721    1.403   .     A
C720   C722    1.403   .     A
C721   H735    1.084   .     S
C721   C723    1.393   .     A
C722   H736    1.084   .     S
C722   C724    1.393   .     A
C723   C725    1.411   .     A
C723   C729    1.402   .     A
C724   C726    1.411   .     A
C724   C730    1.402   .     A
C725   C727    1.411   .     A
C725   C96     1.402   1_556 S
C726   C728    1.411   .     A
C729   H737    1.084   .     S
C729   C73     1.394   1_556 S
C730   H738    1.084   .     S
Cu731  Cu732   2.676   .     S
Cu731  O747    1.961   .     S
Cu731  O753    1.968   .     S
Cu731  O749    1.962   .     S
Cu731  N745    2.011   .     S
Cu731  O751    1.967   .     S
Cu732  O748    1.961   .     S
Cu732  O750    1.962   .     S
Cu732  O754    1.968   .     S
Cu732  N746    2.011   .     S
Cu732  O752    1.967   .     S
C755   O756    1.223   .     D
C755   O757    1.397   .     S
O757   H758    1.014   .     S
C759   O760    1.223   .     D
C759   O761    1.397   .     S
O761   H762    1.014   .     S
C763   O765    1.398   .     S
C763   O764    1.223   .     D
O765   H766    1.014   .     S
C767   O769    1.397   .     S
C767   O768    1.222   .     D
O769   H770    1.014   .     S
C771   O820    1.287   .     A
C771   O817    1.288   .     A
C771   C780    1.450   .     S
C772   O819    1.287   .     A
C772   O818    1.288   .     A
C772   C779    1.449   .     S
C773   H809    1.084   .     S
C773   C798    1.402   .     A
C774   C797    1.402   .     A
C774   H810    1.084   .     S
C774   C170    1.394   1_556 S
C775   C780    1.411   .     A
C775   C825    1.484   .     S
C776   C779    1.411   .     A
C776   C829    1.486   .     S
C776   C638    1.401   1_655 S
C777   C833    1.490   .     S
C777   C779    1.412   .     A
C777   C635    1.401   1_655 S
C778   C837    1.488   .     S
C778   C780    1.411   .     A
C781   H811    1.082   .     S
C781   N816    1.367   .     A
C781   C1204   1.416   1_545 S
C782   N815    1.367   .     A
C782   H812    1.082   .     S
C782   C993    1.416   .     S
C783   H813    1.081   .     S
C783   N816    1.367   .     A
C783   C1202   1.416   1_545 S
C784   H814    1.082   .     S
C784   N815    1.367   .     A
C784   C991    1.416   .     S
C785   O821    1.293   .     A
C785   O824    1.293   .     A
C785   C790    1.461   .     S
C786   C789    1.461   .     S
C786   O822    1.293   .     A
C786   O823    1.293   .     A
C787   H803    1.084   .     S
C787   C789    1.403   .     A
C787   C797    1.393   .     A
C788   H804    1.084   .     S
C788   C790    1.403   .     A
C788   C798    1.393   .     A
C789   C791    1.403   .     A
C790   C792    1.403   .     A
C791   H805    1.084   .     S
C791   C793    1.393   .     A
C792   H806    1.084   .     S
C792   C794    1.393   .     A
C793   C795    1.411   .     A
C793   C799    1.402   .     A
C794   C796    1.411   .     A
C794   C800    1.402   .     A
C795   C797    1.411   .     A
C795   C166    1.402   1_556 S
C796   C798    1.411   .     A
C799   H807    1.084   .     S
C799   C143    1.394   1_556 S
C800   H808    1.084   .     S
Cu801  Cu802   2.676   .     S
Cu801  O817    1.961   .     S
Cu801  O823    1.968   .     S
Cu801  O819    1.962   .     S
Cu801  N815    2.011   .     S
Cu801  O821    1.967   .     S
Cu802  O818    1.961   .     S
Cu802  O820    1.962   .     S
Cu802  O824    1.968   .     S
Cu802  N816    2.011   .     S
Cu802  O822    1.967   .     S
C825   O826    1.223   .     D
C825   O827    1.397   .     S
O827   H828    1.014   .     S
C829   O830    1.223   .     D
C829   O831    1.397   .     S
O831   H832    1.014   .     S
C833   O835    1.398   .     S
C833   O834    1.223   .     D
O835   H836    1.014   .     S
C837   O839    1.397   .     S
C837   O838    1.222   .     D
O839   H840    1.014   .     S
C841   O890    1.287   .     A
C841   O887    1.288   .     A
C841   C850    1.450   .     S
C842   O889    1.287   .     A
C842   O888    1.288   .     A
C842   C849    1.449   .     S
C843   H879    1.084   .     S
C843   C868    1.402   .     A
C844   C867    1.402   .     A
C844   H880    1.084   .     S
C844   C240    1.394   1_556 S
C845   C850    1.411   .     A
C845   C895    1.484   .     S
C845   C987    1.401   1_455 S
C846   C849    1.411   .     A
C846   C899    1.486   .     S
C846   C918    1.401   .     S
C847   C903    1.490   .     S
C847   C849    1.412   .     A
C847   C915    1.401   .     S
C848   C907    1.488   .     S
C848   C850    1.411   .     A
C848   C986    1.401   1_455 S
C851   H881    1.082   .     S
C851   N886    1.367   .     A
C852   N885    1.367   .     A
C852   H882    1.082   .     S
C852   C1063   1.416   .     S
C853   H883    1.081   .     S
C853   N886    1.367   .     A
C854   H884    1.082   .     S
C854   N885    1.367   .     A
C854   C1061   1.416   .     S
C855   O891    1.293   .     A
C855   O894    1.293   .     A
C855   C860    1.461   .     S
C856   C859    1.461   .     S
C856   O892    1.293   .     A
C856   O893    1.293   .     A
C857   H873    1.084   .     S
C857   C859    1.403   .     A
C857   C867    1.393   .     A
C858   H874    1.084   .     S
C858   C860    1.403   .     A
C858   C868    1.393   .     A
C859   C861    1.403   .     A
C860   C862    1.403   .     A
C861   H875    1.084   .     S
C861   C863    1.393   .     A
C862   H876    1.084   .     S
C862   C864    1.393   .     A
C863   C865    1.411   .     A
C863   C869    1.402   .     A
C864   C866    1.411   .     A
C864   C870    1.402   .     A
C865   C867    1.411   .     A
C865   C236    1.402   1_556 S
C866   C868    1.411   .     A
C869   H877    1.084   .     S
C869   C213    1.394   1_556 S
C870   H878    1.084   .     S
Cu871  Cu872   2.676   .     S
Cu871  O887    1.961   .     S
Cu871  O893    1.968   .     S
Cu871  O889    1.962   .     S
Cu871  N885    2.011   .     S
Cu871  O891    1.967   .     S
Cu872  O888    1.961   .     S
Cu872  O890    1.962   .     S
Cu872  O894    1.968   .     S
Cu872  N886    2.011   .     S
Cu872  O892    1.967   .     S
C895   O896    1.223   .     D
C895   O897    1.397   .     S
O897   H898    1.014   .     S
C899   O900    1.223   .     D
C899   O901    1.397   .     S
O901   H902    1.014   .     S
C903   O905    1.398   .     S
C903   O904    1.223   .     D
O905   H906    1.014   .     S
C907   O909    1.397   .     S
C907   O908    1.222   .     D
O909   H910    1.014   .     S
C911   O960    1.287   .     A
C911   O957    1.288   .     A
C911   C920    1.450   .     S
C912   O959    1.287   .     A
C912   O958    1.288   .     A
C912   C919    1.449   .     S
C913   H949    1.084   .     S
C913   C938    1.402   .     A
C914   C937    1.402   .     A
C914   H950    1.084   .     S
C914   C310    1.394   1_556 S
C915   C920    1.411   .     A
C915   C965    1.484   .     S
C916   C919    1.411   .     A
C916   C969    1.486   .     S
C916   C988    1.401   .     S
C917   C973    1.490   .     S
C917   C919    1.412   .     A
C917   C985    1.401   .     S
C918   C977    1.488   .     S
C918   C920    1.411   .     A
C921   H951    1.082   .     S
C921   N956    1.367   .     A
C922   N955    1.367   .     A
C922   H952    1.082   .     S
C922   C1133   1.416   .     S
C923   H953    1.081   .     S
C923   N956    1.367   .     A
C924   H954    1.082   .     S
C924   N955    1.367   .     A
C924   C1131   1.416   .     S
C925   O961    1.293   .     A
C925   O964    1.293   .     A
C925   C930    1.461   .     S
C926   C929    1.461   .     S
C926   O962    1.293   .     A
C926   O963    1.293   .     A
C927   H943    1.084   .     S
C927   C929    1.403   .     A
C927   C937    1.393   .     A
C928   H944    1.084   .     S
C928   C930    1.403   .     A
C928   C938    1.393   .     A
C929   C931    1.403   .     A
C930   C932    1.403   .     A
C931   H945    1.084   .     S
C931   C933    1.393   .     A
C932   H946    1.084   .     S
C932   C934    1.393   .     A
C933   C935    1.411   .     A
C933   C939    1.402   .     A
C934   C936    1.411   .     A
C934   C940    1.402   .     A
C935   C937    1.411   .     A
C935   C306    1.402   1_556 S
C936   C938    1.411   .     A
C939   H947    1.084   .     S
C939   C283    1.394   1_556 S
C940   H948    1.084   .     S
Cu941  Cu942   2.676   .     S
Cu941  O957    1.961   .     S
Cu941  O963    1.968   .     S
Cu941  O959    1.962   .     S
Cu941  N955    2.011   .     S
Cu941  O961    1.967   .     S
Cu942  O958    1.961   .     S
Cu942  O960    1.962   .     S
Cu942  O964    1.968   .     S
Cu942  N956    2.011   .     S
Cu942  O962    1.967   .     S
C965   O966    1.223   .     D
C965   O967    1.397   .     S
O967   H968    1.014   .     S
C969   O970    1.223   .     D
C969   O971    1.397   .     S
O971   H972    1.014   .     S
C973   O975    1.398   .     S
C973   O974    1.223   .     D
O975   H976    1.014   .     S
C977   O979    1.397   .     S
C977   O978    1.222   .     D
O979   H980    1.014   .     S
C981   O1030   1.287   .     A
C981   O1027   1.288   .     A
C981   C990    1.450   .     S
C982   O1029   1.287   .     A
C982   O1028   1.288   .     A
C982   C989    1.449   .     S
C983   H1019   1.084   .     S
C983   C1008   1.402   .     A
C984   C1007   1.402   .     A
C984   H1020   1.084   .     S
C984   C380    1.394   1_556 S
C985   C990    1.411   .     A
C985   C1035   1.484   .     S
C986   C989    1.411   .     A
C986   C1039   1.486   .     S
C986   C848    1.401   1_655 S
C987   C1043   1.490   .     S
C987   C989    1.412   .     A
C987   C845    1.401   1_655 S
C988   C1047   1.488   .     S
C988   C990    1.411   .     A
C991   H1021   1.082   .     S
C991   N1026   1.367   .     A
C992   N1025   1.367   .     A
C992   H1022   1.082   .     S
C992   C1203   1.416   .     S
C993   H1023   1.081   .     S
C993   N1026   1.367   .     A
C994   H1024   1.082   .     S
C994   N1025   1.367   .     A
C994   C1201   1.416   .     S
C995   O1031   1.293   .     A
C995   O1034   1.293   .     A
C995   C1000   1.461   .     S
C996   C999    1.461   .     S
C996   O1032   1.293   .     A
C996   O1033   1.293   .     A
C997   H1013   1.084   .     S
C997   C999    1.403   .     A
C997   C1007   1.393   .     A
C998   H1014   1.084   .     S
C998   C1000   1.403   .     A
C998   C1008   1.393   .     A
C999   C1001   1.403   .     A
C1000  C1002   1.403   .     A
C1001  H1015   1.084   .     S
C1001  C1003   1.393   .     A
C1002  H1016   1.084   .     S
C1002  C1004   1.393   .     A
C1003  C1005   1.411   .     A
C1003  C1009   1.402   .     A
C1004  C1006   1.411   .     A
C1004  C1010   1.402   .     A
C1005  C1007   1.411   .     A
C1005  C376    1.402   1_556 S
C1006  C1008   1.411   .     A
C1009  H1017   1.084   .     S
C1009  C353    1.394   1_556 S
C1010  H1018   1.084   .     S
Cu1011 Cu1012  2.676   .     S
Cu1011 O1027   1.961   .     S
Cu1011 O1033   1.968   .     S
Cu1011 O1029   1.962   .     S
Cu1011 N1025   2.011   .     S
Cu1011 O1031   1.967   .     S
Cu1012 O1028   1.961   .     S
Cu1012 O1030   1.962   .     S
Cu1012 O1034   1.968   .     S
Cu1012 N1026   2.011   .     S
Cu1012 O1032   1.967   .     S
C1035  O1036   1.223   .     D
C1035  O1037   1.397   .     S
O1037  H1038   1.014   .     S
C1039  O1040   1.223   .     D
C1039  O1041   1.397   .     S
O1041  H1042   1.014   .     S
C1043  O1045   1.398   .     S
C1043  O1044   1.223   .     D
O1045  H1046   1.014   .     S
C1047  O1049   1.397   .     S
C1047  O1048   1.222   .     D
O1049  H1050   1.014   .     S
C1051  O1100   1.287   .     A
C1051  O1097   1.288   .     A
C1051  C1060   1.450   .     S
C1052  O1099   1.287   .     A
C1052  O1098   1.288   .     A
C1052  C1059   1.449   .     S
C1053  H1089   1.084   .     S
C1053  C1078   1.402   .     A
C1054  C1077   1.402   .     A
C1054  H1090   1.084   .     S
C1054  C450    1.394   1_556 S
C1055  C1060   1.411   .     A
C1055  C1105   1.484   .     S
C1055  C1197   1.401   1_455 S
C1056  C1059   1.411   .     A
C1056  C1109   1.486   .     S
C1056  C1128   1.401   .     S
C1057  C1113   1.490   .     S
C1057  C1059   1.412   .     A
C1057  C1125   1.401   .     S
C1058  C1117   1.488   .     S
C1058  C1060   1.411   .     A
C1058  C1196   1.401   1_455 S
C1061  H1091   1.082   .     S
C1061  N1096   1.367   .     A
C1062  N1095   1.367   .     A
C1062  H1092   1.082   .     S
C1062  C643    1.416   1_565 S
C1063  H1093   1.081   .     S
C1063  N1096   1.367   .     A
C1064  H1094   1.082   .     S
C1064  N1095   1.367   .     A
C1064  C641    1.416   1_565 S
C1065  O1101   1.293   .     A
C1065  O1104   1.293   .     A
C1065  C1070   1.461   .     S
C1066  C1069   1.461   .     S
C1066  O1102   1.293   .     A
C1066  O1103   1.293   .     A
C1067  H1083   1.084   .     S
C1067  C1069   1.403   .     A
C1067  C1077   1.393   .     A
C1068  H1084   1.084   .     S
C1068  C1070   1.403   .     A
C1068  C1078   1.393   .     A
C1069  C1071   1.403   .     A
C1070  C1072   1.403   .     A
C1071  H1085   1.084   .     S
C1071  C1073   1.393   .     A
C1072  H1086   1.084   .     S
C1072  C1074   1.393   .     A
C1073  C1075   1.411   .     A
C1073  C1079   1.402   .     A
C1074  C1076   1.411   .     A
C1074  C1080   1.402   .     A
C1075  C1077   1.411   .     A
C1075  C446    1.402   1_556 S
C1076  C1078   1.411   .     A
C1079  H1087   1.084   .     S
C1079  C423    1.394   1_556 S
C1080  H1088   1.084   .     S
Cu1081 Cu1082  2.676   .     S
Cu1081 O1097   1.961   .     S
Cu1081 O1103   1.968   .     S
Cu1081 O1099   1.962   .     S
Cu1081 N1095   2.011   .     S
Cu1081 O1101   1.967   .     S
Cu1082 O1098   1.961   .     S
Cu1082 O1100   1.962   .     S
Cu1082 O1104   1.968   .     S
Cu1082 N1096   2.011   .     S
Cu1082 O1102   1.967   .     S
C1105  O1106   1.223   .     D
C1105  O1107   1.397   .     S
O1107  H1108   1.014   .     S
C1109  O1110   1.223   .     D
C1109  O1111   1.397   .     S
O1111  H1112   1.014   .     S
C1113  O1115   1.398   .     S
C1113  O1114   1.223   .     D
O1115  H1116   1.014   .     S
C1117  O1119   1.397   .     S
C1117  O1118   1.222   .     D
O1119  H1120   1.014   .     S
C1121  O1170   1.287   .     A
C1121  O1167   1.288   .     A
C1121  C1130   1.450   .     S
C1122  O1169   1.287   .     A
C1122  O1168   1.288   .     A
C1122  C1129   1.449   .     S
C1123  H1159   1.084   .     S
C1123  C1148   1.402   .     A
C1124  C1147   1.402   .     A
C1124  H1160   1.084   .     S
C1124  C520    1.394   1_556 S
C1125  C1130   1.411   .     A
C1125  C1175   1.484   .     S
C1126  C1129   1.411   .     A
C1126  C1179   1.486   .     S
C1126  C1198   1.401   .     S
C1127  C1183   1.490   .     S
C1127  C1129   1.412   .     A
C1127  C1195   1.401   .     S
C1128  C1187   1.488   .     S
C1128  C1130   1.411   .     A
C1131  H1161   1.082   .     S
C1131  N1166   1.367   .     A
C1132  N1165   1.367   .     A
C1132  H1162   1.082   .     S
C1132  C713    1.416   1_565 S
C1133  H1163   1.081   .     S
C1133  N1166   1.367   .     A
C1134  H1164   1.082   .     S
C1134  N1165   1.367   .     A
C1134  C711    1.416   1_565 S
C1135  O1171   1.293   .     A
C1135  O1174   1.293   .     A
C1135  C1140   1.461   .     S
C1136  C1139   1.461   .     S
C1136  O1172   1.293   .     A
C1136  O1173   1.293   .     A
C1137  H1153   1.084   .     S
C1137  C1139   1.403   .     A
C1137  C1147   1.393   .     A
C1138  H1154   1.084   .     S
C1138  C1140   1.403   .     A
C1138  C1148   1.393   .     A
C1139  C1141   1.403   .     A
C1140  C1142   1.403   .     A
C1141  H1155   1.084   .     S
C1141  C1143   1.393   .     A
C1142  H1156   1.084   .     S
C1142  C1144   1.393   .     A
C1143  C1145   1.411   .     A
C1143  C1149   1.402   .     A
C1144  C1146   1.411   .     A
C1144  C1150   1.402   .     A
C1145  C1147   1.411   .     A
C1145  C516    1.402   1_556 S
C1146  C1148   1.411   .     A
C1149  H1157   1.084   .     S
C1149  C493    1.394   1_556 S
C1150  H1158   1.084   .     S
Cu1151 Cu1152  2.676   .     S
Cu1151 O1167   1.961   .     S
Cu1151 O1173   1.968   .     S
Cu1151 O1169   1.962   .     S
Cu1151 N1165   2.011   .     S
Cu1151 O1171   1.967   .     S
Cu1152 O1168   1.961   .     S
Cu1152 O1170   1.962   .     S
Cu1152 O1174   1.968   .     S
Cu1152 N1166   2.011   .     S
Cu1152 O1172   1.967   .     S
C1175  O1176   1.223   .     D
C1175  O1177   1.397   .     S
O1177  H1178   1.014   .     S
C1179  O1180   1.223   .     D
C1179  O1181   1.397   .     S
O1181  H1182   1.014   .     S
C1183  O1185   1.398   .     S
C1183  O1184   1.223   .     D
O1185  H1186   1.014   .     S
C1187  O1189   1.397   .     S
C1187  O1188   1.222   .     D
O1189  H1190   1.014   .     S
C1191  O1240   1.287   .     A
C1191  O1237   1.288   .     A
C1191  C1200   1.450   .     S
C1192  O1239   1.287   .     A
C1192  O1238   1.288   .     A
C1192  C1199   1.449   .     S
C1193  H1229   1.084   .     S
C1193  C1218   1.402   .     A
C1194  C1217   1.402   .     A
C1194  H1230   1.084   .     S
C1194  C590    1.394   1_556 S
C1195  C1200   1.411   .     A
C1195  C1245   1.484   .     S
C1196  C1199   1.411   .     A
C1196  C1249   1.486   .     S
C1196  C1058   1.401   1_655 S
C1197  C1253   1.490   .     S
C1197  C1199   1.412   .     A
C1197  C1055   1.401   1_655 S
C1198  C1257   1.488   .     S
C1198  C1200   1.411   .     A
C1201  H1231   1.082   .     S
C1201  N1236   1.367   .     A
C1202  N1235   1.367   .     A
C1202  H1232   1.082   .     S
C1202  C783    1.416   1_565 S
C1203  H1233   1.081   .     S
C1203  N1236   1.367   .     A
C1204  H1234   1.082   .     S
C1204  N1235   1.367   .     A
C1204  C781    1.416   1_565 S
C1205  O1241   1.293   .     A
C1205  O1244   1.293   .     A
C1205  C1210   1.461   .     S
C1206  C1209   1.461   .     S
C1206  O1242   1.293   .     A
C1206  O1243   1.293   .     A
C1207  H1223   1.084   .     S
C1207  C1209   1.403   .     A
C1207  C1217   1.393   .     A
C1208  H1224   1.084   .     S
C1208  C1210   1.403   .     A
C1208  C1218   1.393   .     A
C1209  C1211   1.403   .     A
C1210  C1212   1.403   .     A
C1211  H1225   1.084   .     S
C1211  C1213   1.393   .     A
C1212  H1226   1.084   .     S
C1212  C1214   1.393   .     A
C1213  C1215   1.411   .     A
C1213  C1219   1.402   .     A
C1214  C1216   1.411   .     A
C1214  C1220   1.402   .     A
C1215  C1217   1.411   .     A
C1215  C586    1.402   1_556 S
C1216  C1218   1.411   .     A
C1219  H1227   1.084   .     S
C1219  C563    1.394   1_556 S
C1220  H1228   1.084   .     S
Cu1221 Cu1222  2.676   .     S
Cu1221 O1237   1.961   .     S
Cu1221 O1243   1.968   .     S
Cu1221 O1239   1.962   .     S
Cu1221 N1235   2.011   .     S
Cu1221 O1241   1.967   .     S
Cu1222 O1238   1.961   .     S
Cu1222 O1240   1.962   .     S
Cu1222 O1244   1.968   .     S
Cu1222 N1236   2.011   .     S
Cu1222 O1242   1.967   .     S
C1245  O1246   1.223   .     D
C1245  O1247   1.397   .     S
O1247  H1248   1.014   .     S
C1249  O1250   1.223   .     D
C1249  O1251   1.397   .     S
O1251  H1252   1.014   .     S
C1253  O1255   1.398   .     S
C1253  O1254   1.223   .     D
O1255  H1256   1.014   .     S
C1257  O1259   1.397   .     S
C1257  O1258   1.222   .     D
O1259  H1260   1.014   .     S
