data_str_m1_o10_o18_pcu_sym.35
_audit_creation_date              2020-01-03
_audit_creation_method            'Materials Studio'
_symmetry_space_group_name_H-M    'P1'
_symmetry_Int_Tables_number       1
_symmetry_cell_setting            triclinic
loop_
_symmetry_equiv_pos_as_xyz
  x,y,z
_cell_length_a                    32.8138
_cell_length_b                    32.6704
_cell_length_c                    35.7243
_cell_angle_alpha                 98.0087
_cell_angle_beta                  73.5385
_cell_angle_gamma                 97.2555
loop_
_atom_site_label
_atom_site_type_symbol
_atom_site_fract_x
_atom_site_fract_y
_atom_site_fract_z
_atom_site_U_iso_or_equiv
_atom_site_adp_type
_atom_site_occupancy
C1     C     0.05282   0.15990   0.25886   0.00000  Uiso   1.00
C2     C     0.20207   0.12882   0.45891   0.00000  Uiso   1.00
C3     C     0.22712   0.11246   0.47831   0.00000  Uiso   1.00
C4     C     0.28058   0.17368   0.24224   0.00000  Uiso   1.00
C5     C     0.22223   0.12474   0.01910   0.00000  Uiso   1.00
C6     C     0.19834   0.15934   0.03789   0.00000  Uiso   1.00
C7     C     0.23748   0.10098   0.04196   0.00000  Uiso   1.00
C8     C     0.22336   0.10675   0.08295   0.00000  Uiso   1.00
C9     C     0.18424   0.16555   0.08037   0.00000  Uiso   1.00
C10    C     0.32491   0.18009   0.24427   0.00000  Uiso   1.00
C11    C     0.00741   0.15519   0.26346   0.00000  Uiso   1.00
C12    C     0.10069   0.21427   0.42432   0.00000  Uiso   1.00
C13    C     0.17717   0.32156   0.23888   0.00000  Uiso   1.00
C14    C     0.15080   0.01363   0.26530   0.00000  Uiso   1.00
C15    C     0.15703   0.05644   0.25846   0.00000  Uiso   1.00
C16    C     0.17616   0.27749   0.24179   0.00000  Uiso   1.00
C17    C     0.18792   0.14567   0.14437   0.00000  Uiso   1.00
C18    C     0.14490   0.18710   0.35628   0.00000  Uiso   1.00
C19    C     0.13643   0.19484   0.39932   0.00000  Uiso   1.00
C20    C     0.19704   0.13844   0.10187   0.00000  Uiso   1.00
C21    C     0.09807   0.22386   0.46484   0.00000  Uiso   1.00
C22    C     0.13184   0.28354   0.02620   0.00000  Uiso   1.00
C23    C     0.16479   0.18018   0.41593   0.00000  Uiso   1.00
C24    C     0.16820   0.31769   0.01583   0.00000  Uiso   1.00
C25    C     0.15137   0.02685   0.02998   0.00000  Uiso   1.00
C26    C     0.30939   0.07986   0.02340   0.00000  Uiso   1.00
C27    C     0.01353   0.25294   0.25351   0.00000  Uiso   1.00
C28    C     0.31476   0.11844   0.28446   0.00000  Uiso   1.00
C29    C     0.00633   0.09195   0.30117   0.00000  Uiso   1.00
C30    C     0.31010   0.05710   0.32189   0.00000  Uiso   1.00
C31    C     0.11874   0.00141   0.30337   0.00000  Uiso   1.00
C32    C     0.09646   0.03805   0.33001   0.00000  Uiso   1.00
C33    C     0.06593   0.02448   0.36786   0.00000  Uiso   1.00
C34    C     0.16008   0.18653   0.45622   0.00000  Uiso   1.00
C35    C     0.15517   0.20038   0.10133   0.00000  Uiso   1.00
C36    C     0.12713   0.20111   0.14391   0.00000  Uiso   1.00
C37    C     0.09919   0.23729   0.15332   0.00000  Uiso   1.00
C38    C     0.20978   0.04407   0.11578   0.00000  Uiso   1.00
C39    C     0.29327   0.09380   0.43235   0.00000  Uiso   1.00
C40    C     0.05571   0.23355   0.49426   0.00000  Uiso   1.00
C41    C     0.02142   0.19692   0.49503   0.00000  Uiso   1.00
C42    C     0.31395   0.20609   0.02709   0.00000  Uiso   1.00
C43    C     0.06726   0.26415   0.40140   0.00000  Uiso   1.00
C44    C     0.15383   0.07840   0.43267   0.00000  Uiso   1.00
C45    C     0.13318   0.21680   0.47813   0.00000  Uiso   1.00
C46    C     0.18334   0.16628   0.47527   0.00000  Uiso   1.00
C47    C     0.18603   0.18376   0.01308   0.00000  Uiso   1.00
C48    C     0.17590   0.22523   0.02405   0.00000  Uiso   1.00
C49    C     0.14584   0.24062   0.00979   0.00000  Uiso   1.00
H50    H     0.20058   0.00067   0.21390   0.00000  Uiso   1.00
H51    H     0.11878   0.28466   0.05861   0.00000  Uiso   1.00
H52    H     0.25377   0.04024   0.03266   0.00000  Uiso   1.00
H53    H     0.32883   0.05520   0.00498   0.00000  Uiso   1.00
H54    H     0.31334   0.08272   0.05353   0.00000  Uiso   1.00
H55    H     0.32134   0.10947   0.01066   0.00000  Uiso   1.00
H56    H     0.01304   0.21871   0.20056   0.00000  Uiso   1.00
H57    H     0.03591   0.27814   0.23914   0.00000  Uiso   1.00
H58    H     0.02146   0.24915   0.28098   0.00000  Uiso   1.00
H59    H     0.31384   0.26229   0.26089   0.00000  Uiso   1.00
H60    H     0.28358   0.06999   0.34571   0.00000  Uiso   1.00
H61    H     0.19243   0.16612   0.39689   0.00000  Uiso   1.00
H62    H     0.29656   0.03556   0.30061   0.00000  Uiso   1.00
H63    H     0.32828   0.03930   0.33490   0.00000  Uiso   1.00
H64    H     0.03162   0.07747   0.27710   0.00000  Uiso   1.00
H65    H     0.02132   0.11174   0.32251   0.00000  Uiso   1.00
H66    H     0.28937   0.13089   0.30984   0.00000  Uiso   1.00
H67    H     0.30011   0.09745   0.26354   0.00000  Uiso   1.00
H68    H     0.04183   0.33284   0.36137   0.00000  Uiso   1.00
H69    H     0.08404   0.01353   0.38587   0.00000  Uiso   1.00
H70    H     0.04929   0.05142   0.38501   0.00000  Uiso   1.00
H71    H     0.12051   0.06200   0.33828   0.00000  Uiso   1.00
H72    H     0.18982   0.24517   0.04462   0.00000  Uiso   1.00
H73    H     0.07828   0.05230   0.31407   0.00000  Uiso   1.00
H74    H     0.09353   0.31172   0.29582   0.00000  Uiso   1.00
H75    H     0.13577   0.32059   0.32048   0.00000  Uiso   1.00
H76    H     0.11773   0.26587   0.14169   0.00000  Uiso   1.00
H77    H     0.07170   0.22938   0.14048   0.00000  Uiso   1.00
H78    H     0.08775   0.24449   0.18551   0.00000  Uiso   1.00
H79    H     0.10658   0.17150   0.14859   0.00000  Uiso   1.00
H80    H     0.14679   0.20757   0.16496   0.00000  Uiso   1.00
H81    H     0.17622   0.22970   0.10114   0.00000  Uiso   1.00
H82    H     0.13138   0.20044   0.08463   0.00000  Uiso   1.00
H83    H     0.12395   0.03010   0.01851   0.00000  Uiso   1.00
H84    H     0.24828   0.09684   0.12819   0.00000  Uiso   1.00
H85    H     0.22527   0.02490   0.13017   0.00000  Uiso   1.00
H86    H     0.20342   0.02517   0.08944   0.00000  Uiso   1.00
H87    H     0.17899   0.05221   0.13651   0.00000  Uiso   1.00
H88    H     0.23678   0.05486   0.44556   0.00000  Uiso   1.00
H89    H     0.31188   0.06675   0.41950   0.00000  Uiso   1.00
H90    H     0.31181   0.11622   0.44899   0.00000  Uiso   1.00
H91    H     0.28855   0.10910   0.40822   0.00000  Uiso   1.00
H92    H     0.32032   0.21199   0.05638   0.00000  Uiso   1.00
H93    H     0.29001   0.17902   0.02738   0.00000  Uiso   1.00
H94    H     0.14134   0.03177   0.06256   0.00000  Uiso   1.00
H95    H     0.30059   0.23348   0.02141   0.00000  Uiso   1.00
H96    H     0.01345   0.19010   0.46651   0.00000  Uiso   1.00
H97    H     0.03375   0.16901   0.00089   0.00000  Uiso   1.00
H98    H     0.05924   0.23923   0.02458   0.00000  Uiso   1.00
H99    H     0.04451   0.26175   0.48779   0.00000  Uiso   1.00
H100   H     0.05918   0.19982   0.38872   0.00000  Uiso   1.00
H101   H     0.03753   0.26780   0.39371   0.00000  Uiso   1.00
H102   H     0.09504   0.27144   0.37634   0.00000  Uiso   1.00
H103   H     0.06925   0.28661   0.42729   0.00000  Uiso   1.00
H104   H     0.21804   0.09198   0.40477   0.00000  Uiso   1.00
H105   H     0.17673   0.05097   0.01881   0.00000  Uiso   1.00
H106   H     0.14748   0.06458   0.40445   0.00000  Uiso   1.00
H107   H     0.12645   0.09603   0.44983   0.00000  Uiso   1.00
H108   H     0.15673   0.05298   0.44915   0.00000  Uiso   1.00
H109   H     0.19384   0.31451   0.02963   0.00000  Uiso   1.00
H110   H     0.18197   0.31537   0.48343   0.00000  Uiso   1.00
H111   H     0.10674   0.29130   0.01405   0.00000  Uiso   1.00
N112   N     0.26513   0.06921   0.02389   0.00000  Uiso   1.00
N113   N     0.01743   0.21475   0.22724   0.00000  Uiso   1.00
N114   N     0.23765   0.08111   0.10514   0.00000  Uiso   1.00
N115   N     0.25270   0.07988   0.45805   0.00000  Uiso   1.00
N116   N     0.06645   0.22205   0.40990   0.00000  Uiso   1.00
N117   N     0.19294   0.10559   0.42486   0.00000  Uiso   1.00
O118   O     0.16667   0.16667   0.25000   0.00000  Uiso   1.00
O119   O     0.15693   0.12393   0.16625   0.00000  Uiso   1.00
O120   O     0.12687   0.20646   0.33749   0.00000  Uiso   1.00
O121   O     0.21088   0.17493   0.15877   0.00000  Uiso   1.00
O122   O     0.17198   0.16135   0.33749   0.00000  Uiso   1.00
O123   O     0.17849   0.08101   0.27820   0.00000  Uiso   1.00
O124   O     0.14581   0.26136   0.26767   0.00000  Uiso   1.00
O125   O     0.07452   0.13251   0.23607   0.00000  Uiso   1.00
O126   O     0.26785   0.19179   0.21805   0.00000  Uiso   1.00
O127   O     0.06990   0.18960   0.27820   0.00000  Uiso   1.00
O128   O     0.25440   0.15277   0.26767   0.00000  Uiso   1.00
O129   O     0.13800   0.06903   0.23607   0.00000  Uiso   1.00
O130   O     0.20437   0.25527   0.21805   0.00000  Uiso   1.00
Zn131  Zn    0.19244   0.14090   0.28277   0.00000  Uiso   1.00
Zn132  Zn    0.13459   0.12378   0.22257   0.00000  Uiso   1.00
Zn133  Zn    0.21166   0.19664   0.21188   0.00000  Uiso   1.00
Zn134  Zn    0.12798   0.20535   0.28277   0.00000  Uiso   1.00
C135   C     0.38615   0.15990   0.25886   0.00000  Uiso   1.00
C136   C     0.53540   0.12882   0.45891   0.00000  Uiso   1.00
C137   C     0.56045   0.11246   0.47831   0.00000  Uiso   1.00
C138   C     0.61391   0.17368   0.24224   0.00000  Uiso   1.00
C139   C     0.55556   0.12474   0.01910   0.00000  Uiso   1.00
C140   C     0.53168   0.15934   0.03789   0.00000  Uiso   1.00
C141   C     0.57081   0.10098   0.04196   0.00000  Uiso   1.00
C142   C     0.55669   0.10675   0.08295   0.00000  Uiso   1.00
C143   C     0.51757   0.16555   0.08037   0.00000  Uiso   1.00
C144   C     0.65825   0.18009   0.24427   0.00000  Uiso   1.00
C145   C     0.34075   0.15519   0.26346   0.00000  Uiso   1.00
C146   C     0.43402   0.21427   0.42432   0.00000  Uiso   1.00
C147   C     0.51050   0.32156   0.23888   0.00000  Uiso   1.00
C148   C     0.48414   0.01363   0.26530   0.00000  Uiso   1.00
C149   C     0.49036   0.05644   0.25846   0.00000  Uiso   1.00
C150   C     0.50950   0.27749   0.24179   0.00000  Uiso   1.00
C151   C     0.52125   0.14567   0.14437   0.00000  Uiso   1.00
C152   C     0.47823   0.18710   0.35628   0.00000  Uiso   1.00
C153   C     0.46976   0.19484   0.39932   0.00000  Uiso   1.00
C154   C     0.53037   0.13844   0.10187   0.00000  Uiso   1.00
C155   C     0.43140   0.22386   0.46484   0.00000  Uiso   1.00
C156   C     0.46517   0.28354   0.02620   0.00000  Uiso   1.00
C157   C     0.49812   0.18018   0.41593   0.00000  Uiso   1.00
C158   C     0.50154   0.31769   0.01583   0.00000  Uiso   1.00
C159   C     0.48471   0.02685   0.02998   0.00000  Uiso   1.00
C160   C     0.64273   0.07986   0.02340   0.00000  Uiso   1.00
C161   C     0.34686   0.25294   0.25351   0.00000  Uiso   1.00
C162   C     0.64810   0.11844   0.28446   0.00000  Uiso   1.00
C163   C     0.33966   0.09195   0.30117   0.00000  Uiso   1.00
C164   C     0.64343   0.05710   0.32189   0.00000  Uiso   1.00
C165   C     0.45207   0.00141   0.30337   0.00000  Uiso   1.00
C166   C     0.42980   0.03805   0.33001   0.00000  Uiso   1.00
C167   C     0.39927   0.02448   0.36786   0.00000  Uiso   1.00
C168   C     0.49342   0.18653   0.45622   0.00000  Uiso   1.00
C169   C     0.48850   0.20038   0.10133   0.00000  Uiso   1.00
C170   C     0.46046   0.20111   0.14391   0.00000  Uiso   1.00
C171   C     0.43252   0.23729   0.15332   0.00000  Uiso   1.00
C172   C     0.54312   0.04407   0.11578   0.00000  Uiso   1.00
C173   C     0.62660   0.09380   0.43235   0.00000  Uiso   1.00
C174   C     0.38904   0.23355   0.49426   0.00000  Uiso   1.00
C175   C     0.35476   0.19692   0.49503   0.00000  Uiso   1.00
C176   C     0.64728   0.20609   0.02709   0.00000  Uiso   1.00
C177   C     0.40060   0.26415   0.40140   0.00000  Uiso   1.00
C178   C     0.48717   0.07840   0.43267   0.00000  Uiso   1.00
C179   C     0.46651   0.21680   0.47813   0.00000  Uiso   1.00
C180   C     0.51667   0.16628   0.47527   0.00000  Uiso   1.00
C181   C     0.51936   0.18376   0.01308   0.00000  Uiso   1.00
C182   C     0.50924   0.22523   0.02405   0.00000  Uiso   1.00
C183   C     0.47917   0.24062   0.00979   0.00000  Uiso   1.00
H184   H     0.53391   0.00067   0.21390   0.00000  Uiso   1.00
H185   H     0.45212   0.28466   0.05861   0.00000  Uiso   1.00
H186   H     0.58711   0.04024   0.03266   0.00000  Uiso   1.00
H187   H     0.66216   0.05520   0.00498   0.00000  Uiso   1.00
H188   H     0.64668   0.08272   0.05353   0.00000  Uiso   1.00
H189   H     0.65467   0.10947   0.01066   0.00000  Uiso   1.00
H190   H     0.34637   0.21871   0.20056   0.00000  Uiso   1.00
H191   H     0.36924   0.27814   0.23914   0.00000  Uiso   1.00
H192   H     0.35479   0.24915   0.28098   0.00000  Uiso   1.00
H193   H     0.64717   0.26229   0.26089   0.00000  Uiso   1.00
H194   H     0.61691   0.06999   0.34571   0.00000  Uiso   1.00
H195   H     0.52576   0.16612   0.39689   0.00000  Uiso   1.00
H196   H     0.62989   0.03556   0.30061   0.00000  Uiso   1.00
H197   H     0.66162   0.03930   0.33490   0.00000  Uiso   1.00
H198   H     0.36495   0.07747   0.27710   0.00000  Uiso   1.00
H199   H     0.35466   0.11174   0.32251   0.00000  Uiso   1.00
H200   H     0.62271   0.13089   0.30984   0.00000  Uiso   1.00
H201   H     0.63344   0.09745   0.26354   0.00000  Uiso   1.00
H202   H     0.37517   0.33284   0.36137   0.00000  Uiso   1.00
H203   H     0.41737   0.01353   0.38587   0.00000  Uiso   1.00
H204   H     0.38263   0.05142   0.38501   0.00000  Uiso   1.00
H205   H     0.45385   0.06200   0.33828   0.00000  Uiso   1.00
H206   H     0.52316   0.24517   0.04462   0.00000  Uiso   1.00
H207   H     0.41161   0.05230   0.31407   0.00000  Uiso   1.00
H208   H     0.42686   0.31172   0.29582   0.00000  Uiso   1.00
H209   H     0.46910   0.32059   0.32048   0.00000  Uiso   1.00
H210   H     0.45106   0.26587   0.14169   0.00000  Uiso   1.00
H211   H     0.40503   0.22938   0.14048   0.00000  Uiso   1.00
H212   H     0.42108   0.24449   0.18551   0.00000  Uiso   1.00
H213   H     0.43991   0.17150   0.14859   0.00000  Uiso   1.00
H214   H     0.48013   0.20757   0.16496   0.00000  Uiso   1.00
H215   H     0.50955   0.22970   0.10114   0.00000  Uiso   1.00
H216   H     0.46472   0.20044   0.08463   0.00000  Uiso   1.00
H217   H     0.45729   0.03010   0.01851   0.00000  Uiso   1.00
H218   H     0.58161   0.09684   0.12819   0.00000  Uiso   1.00
H219   H     0.55860   0.02490   0.13017   0.00000  Uiso   1.00
H220   H     0.53676   0.02517   0.08944   0.00000  Uiso   1.00
H221   H     0.51232   0.05221   0.13651   0.00000  Uiso   1.00
H222   H     0.57011   0.05486   0.44556   0.00000  Uiso   1.00
H223   H     0.64521   0.06675   0.41950   0.00000  Uiso   1.00
H224   H     0.64514   0.11622   0.44899   0.00000  Uiso   1.00
H225   H     0.62188   0.10910   0.40822   0.00000  Uiso   1.00
H226   H     0.65365   0.21199   0.05638   0.00000  Uiso   1.00
H227   H     0.62334   0.17902   0.02738   0.00000  Uiso   1.00
H228   H     0.47468   0.03177   0.06256   0.00000  Uiso   1.00
H229   H     0.63393   0.23348   0.02141   0.00000  Uiso   1.00
H230   H     0.34679   0.19010   0.46651   0.00000  Uiso   1.00
H231   H     0.36709   0.16901   0.00089   0.00000  Uiso   1.00
H232   H     0.39257   0.23923   0.02458   0.00000  Uiso   1.00
H233   H     0.37784   0.26175   0.48779   0.00000  Uiso   1.00
H234   H     0.39251   0.19982   0.38872   0.00000  Uiso   1.00
H235   H     0.37087   0.26780   0.39371   0.00000  Uiso   1.00
H236   H     0.42838   0.27144   0.37634   0.00000  Uiso   1.00
H237   H     0.40259   0.28661   0.42729   0.00000  Uiso   1.00
H238   H     0.55137   0.09198   0.40477   0.00000  Uiso   1.00
H239   H     0.51007   0.05097   0.01881   0.00000  Uiso   1.00
H240   H     0.48081   0.06458   0.40445   0.00000  Uiso   1.00
H241   H     0.45979   0.09603   0.44983   0.00000  Uiso   1.00
H242   H     0.49006   0.05298   0.44915   0.00000  Uiso   1.00
H243   H     0.52717   0.31451   0.02963   0.00000  Uiso   1.00
H244   H     0.51530   0.31537   0.48343   0.00000  Uiso   1.00
H245   H     0.44007   0.29130   0.01405   0.00000  Uiso   1.00
N246   N     0.59846   0.06921   0.02389   0.00000  Uiso   1.00
N247   N     0.35076   0.21475   0.22724   0.00000  Uiso   1.00
N248   N     0.57099   0.08111   0.10514   0.00000  Uiso   1.00
N249   N     0.58603   0.07988   0.45805   0.00000  Uiso   1.00
N250   N     0.39979   0.22205   0.40990   0.00000  Uiso   1.00
N251   N     0.52627   0.10559   0.42486   0.00000  Uiso   1.00
O252   O     0.50000   0.16667   0.25000   0.00000  Uiso   1.00
O253   O     0.49027   0.12393   0.16625   0.00000  Uiso   1.00
O254   O     0.46020   0.20646   0.33749   0.00000  Uiso   1.00
O255   O     0.54421   0.17493   0.15877   0.00000  Uiso   1.00
O256   O     0.50532   0.16135   0.33749   0.00000  Uiso   1.00
O257   O     0.51182   0.08101   0.27820   0.00000  Uiso   1.00
O258   O     0.47914   0.26136   0.26767   0.00000  Uiso   1.00
O259   O     0.40785   0.13251   0.23607   0.00000  Uiso   1.00
O260   O     0.60119   0.19179   0.21805   0.00000  Uiso   1.00
O261   O     0.40323   0.18960   0.27820   0.00000  Uiso   1.00
O262   O     0.58773   0.15277   0.26767   0.00000  Uiso   1.00
O263   O     0.47133   0.06903   0.23607   0.00000  Uiso   1.00
O264   O     0.53771   0.25527   0.21805   0.00000  Uiso   1.00
Zn265  Zn    0.52577   0.14090   0.28277   0.00000  Uiso   1.00
Zn266  Zn    0.46792   0.12378   0.22257   0.00000  Uiso   1.00
Zn267  Zn    0.54500   0.19664   0.21188   0.00000  Uiso   1.00
Zn268  Zn    0.46131   0.20535   0.28277   0.00000  Uiso   1.00
C269   C     0.71948   0.15990   0.25886   0.00000  Uiso   1.00
C270   C     0.86873   0.12882   0.45891   0.00000  Uiso   1.00
C271   C     0.89378   0.11246   0.47831   0.00000  Uiso   1.00
C272   C     0.94725   0.17368   0.24224   0.00000  Uiso   1.00
C273   C     0.88890   0.12474   0.01910   0.00000  Uiso   1.00
C274   C     0.86501   0.15934   0.03789   0.00000  Uiso   1.00
C275   C     0.90414   0.10098   0.04196   0.00000  Uiso   1.00
C276   C     0.89003   0.10675   0.08295   0.00000  Uiso   1.00
C277   C     0.85090   0.16555   0.08037   0.00000  Uiso   1.00
C278   C     0.99158   0.18009   0.24427   0.00000  Uiso   1.00
C279   C     0.67408   0.15519   0.26346   0.00000  Uiso   1.00
C280   C     0.76736   0.21427   0.42432   0.00000  Uiso   1.00
C281   C     0.84384   0.32156   0.23888   0.00000  Uiso   1.00
C282   C     0.81747   0.01363   0.26530   0.00000  Uiso   1.00
C283   C     0.82369   0.05644   0.25846   0.00000  Uiso   1.00
C284   C     0.84283   0.27749   0.24179   0.00000  Uiso   1.00
C285   C     0.85458   0.14567   0.14437   0.00000  Uiso   1.00
C286   C     0.81157   0.18710   0.35628   0.00000  Uiso   1.00
C287   C     0.80309   0.19484   0.39932   0.00000  Uiso   1.00
C288   C     0.86371   0.13844   0.10187   0.00000  Uiso   1.00
C289   C     0.76473   0.22386   0.46484   0.00000  Uiso   1.00
C290   C     0.79851   0.28354   0.02620   0.00000  Uiso   1.00
C291   C     0.83146   0.18018   0.41593   0.00000  Uiso   1.00
C292   C     0.83487   0.31769   0.01583   0.00000  Uiso   1.00
C293   C     0.81804   0.02685   0.02998   0.00000  Uiso   1.00
C294   C     0.97606   0.07986   0.02340   0.00000  Uiso   1.00
C295   C     0.68020   0.25294   0.25351   0.00000  Uiso   1.00
C296   C     0.98143   0.11844   0.28446   0.00000  Uiso   1.00
C297   C     0.67299   0.09195   0.30117   0.00000  Uiso   1.00
C298   C     0.97677   0.05710   0.32189   0.00000  Uiso   1.00
C299   C     0.78541   0.00141   0.30337   0.00000  Uiso   1.00
C300   C     0.76313   0.03805   0.33001   0.00000  Uiso   1.00
C301   C     0.73260   0.02448   0.36786   0.00000  Uiso   1.00
C302   C     0.82675   0.18653   0.45622   0.00000  Uiso   1.00
C303   C     0.82183   0.20038   0.10133   0.00000  Uiso   1.00
C304   C     0.79379   0.20111   0.14391   0.00000  Uiso   1.00
C305   C     0.76585   0.23729   0.15332   0.00000  Uiso   1.00
C306   C     0.87645   0.04407   0.11578   0.00000  Uiso   1.00
C307   C     0.95994   0.09380   0.43235   0.00000  Uiso   1.00
C308   C     0.72238   0.23355   0.49426   0.00000  Uiso   1.00
C309   C     0.68809   0.19692   0.49503   0.00000  Uiso   1.00
C310   C     0.98062   0.20609   0.02709   0.00000  Uiso   1.00
C311   C     0.73393   0.26415   0.40140   0.00000  Uiso   1.00
C312   C     0.82050   0.07840   0.43267   0.00000  Uiso   1.00
C313   C     0.79985   0.21680   0.47813   0.00000  Uiso   1.00
C314   C     0.85001   0.16628   0.47527   0.00000  Uiso   1.00
C315   C     0.85269   0.18376   0.01308   0.00000  Uiso   1.00
C316   C     0.84257   0.22523   0.02405   0.00000  Uiso   1.00
C317   C     0.81251   0.24062   0.00979   0.00000  Uiso   1.00
H318   H     0.86725   0.00067   0.21390   0.00000  Uiso   1.00
H319   H     0.78545   0.28466   0.05861   0.00000  Uiso   1.00
H320   H     0.92044   0.04024   0.03266   0.00000  Uiso   1.00
H321   H     0.99549   0.05520   0.00498   0.00000  Uiso   1.00
H322   H     0.98001   0.08272   0.05353   0.00000  Uiso   1.00
H323   H     0.98800   0.10947   0.01066   0.00000  Uiso   1.00
H324   H     0.67971   0.21871   0.20056   0.00000  Uiso   1.00
H325   H     0.70258   0.27814   0.23914   0.00000  Uiso   1.00
H326   H     0.68813   0.24915   0.28098   0.00000  Uiso   1.00
H327   H     0.98051   0.26229   0.26089   0.00000  Uiso   1.00
H328   H     0.95025   0.06999   0.34571   0.00000  Uiso   1.00
H329   H     0.85910   0.16612   0.39689   0.00000  Uiso   1.00
H330   H     0.96322   0.03556   0.30061   0.00000  Uiso   1.00
H331   H     0.99495   0.03930   0.33490   0.00000  Uiso   1.00
H332   H     0.69828   0.07747   0.27710   0.00000  Uiso   1.00
H333   H     0.68799   0.11174   0.32251   0.00000  Uiso   1.00
H334   H     0.95604   0.13089   0.30984   0.00000  Uiso   1.00
H335   H     0.96677   0.09745   0.26354   0.00000  Uiso   1.00
H336   H     0.70850   0.33284   0.36137   0.00000  Uiso   1.00
H337   H     0.75071   0.01353   0.38587   0.00000  Uiso   1.00
H338   H     0.71596   0.05142   0.38501   0.00000  Uiso   1.00
H339   H     0.78718   0.06200   0.33828   0.00000  Uiso   1.00
H340   H     0.85649   0.24517   0.04462   0.00000  Uiso   1.00
H341   H     0.74495   0.05230   0.31407   0.00000  Uiso   1.00
H342   H     0.76019   0.31172   0.29582   0.00000  Uiso   1.00
H343   H     0.80244   0.32059   0.32048   0.00000  Uiso   1.00
H344   H     0.78440   0.26587   0.14169   0.00000  Uiso   1.00
H345   H     0.73836   0.22938   0.14048   0.00000  Uiso   1.00
H346   H     0.75441   0.24449   0.18551   0.00000  Uiso   1.00
H347   H     0.77325   0.17150   0.14859   0.00000  Uiso   1.00
H348   H     0.81346   0.20757   0.16496   0.00000  Uiso   1.00
H349   H     0.84289   0.22970   0.10114   0.00000  Uiso   1.00
H350   H     0.79805   0.20044   0.08463   0.00000  Uiso   1.00
H351   H     0.79062   0.03010   0.01851   0.00000  Uiso   1.00
H352   H     0.91495   0.09684   0.12819   0.00000  Uiso   1.00
H353   H     0.89194   0.02490   0.13017   0.00000  Uiso   1.00
H354   H     0.87009   0.02517   0.08944   0.00000  Uiso   1.00
H355   H     0.84565   0.05221   0.13651   0.00000  Uiso   1.00
H356   H     0.90344   0.05486   0.44556   0.00000  Uiso   1.00
H357   H     0.97854   0.06675   0.41950   0.00000  Uiso   1.00
H358   H     0.97847   0.11622   0.44899   0.00000  Uiso   1.00
H359   H     0.95522   0.10910   0.40822   0.00000  Uiso   1.00
H360   H     0.98699   0.21199   0.05638   0.00000  Uiso   1.00
H361   H     0.95668   0.17902   0.02738   0.00000  Uiso   1.00
H362   H     0.80801   0.03177   0.06256   0.00000  Uiso   1.00
H363   H     0.96726   0.23348   0.02141   0.00000  Uiso   1.00
H364   H     0.68012   0.19010   0.46651   0.00000  Uiso   1.00
H365   H     0.70042   0.16901   0.00089   0.00000  Uiso   1.00
H366   H     0.72590   0.23923   0.02458   0.00000  Uiso   1.00
H367   H     0.71118   0.26175   0.48779   0.00000  Uiso   1.00
H368   H     0.72584   0.19982   0.38872   0.00000  Uiso   1.00
H369   H     0.70420   0.26780   0.39371   0.00000  Uiso   1.00
H370   H     0.76171   0.27144   0.37634   0.00000  Uiso   1.00
H371   H     0.73592   0.28661   0.42729   0.00000  Uiso   1.00
H372   H     0.88471   0.09198   0.40477   0.00000  Uiso   1.00
H373   H     0.84340   0.05097   0.01881   0.00000  Uiso   1.00
H374   H     0.81414   0.06458   0.40445   0.00000  Uiso   1.00
H375   H     0.79312   0.09603   0.44983   0.00000  Uiso   1.00
H376   H     0.82340   0.05298   0.44915   0.00000  Uiso   1.00
H377   H     0.86050   0.31451   0.02963   0.00000  Uiso   1.00
H378   H     0.84864   0.31537   0.48343   0.00000  Uiso   1.00
H379   H     0.77341   0.29130   0.01405   0.00000  Uiso   1.00
N380   N     0.93179   0.06921   0.02389   0.00000  Uiso   1.00
N381   N     0.68409   0.21475   0.22724   0.00000  Uiso   1.00
N382   N     0.90432   0.08111   0.10514   0.00000  Uiso   1.00
N383   N     0.91937   0.07988   0.45805   0.00000  Uiso   1.00
N384   N     0.73312   0.22205   0.40990   0.00000  Uiso   1.00
N385   N     0.85961   0.10559   0.42486   0.00000  Uiso   1.00
O386   O     0.83333   0.16667   0.25000   0.00000  Uiso   1.00
O387   O     0.82360   0.12393   0.16625   0.00000  Uiso   1.00
O388   O     0.79354   0.20646   0.33749   0.00000  Uiso   1.00
O389   O     0.87755   0.17493   0.15877   0.00000  Uiso   1.00
O390   O     0.83865   0.16135   0.33749   0.00000  Uiso   1.00
O391   O     0.84515   0.08101   0.27820   0.00000  Uiso   1.00
O392   O     0.81247   0.26136   0.26767   0.00000  Uiso   1.00
O393   O     0.74119   0.13251   0.23607   0.00000  Uiso   1.00
O394   O     0.93452   0.19179   0.21805   0.00000  Uiso   1.00
O395   O     0.73656   0.18960   0.27820   0.00000  Uiso   1.00
O396   O     0.92106   0.15277   0.26767   0.00000  Uiso   1.00
O397   O     0.80467   0.06903   0.23607   0.00000  Uiso   1.00
O398   O     0.87104   0.25527   0.21805   0.00000  Uiso   1.00
Zn399  Zn    0.85910   0.14090   0.28277   0.00000  Uiso   1.00
Zn400  Zn    0.80125   0.12378   0.22257   0.00000  Uiso   1.00
Zn401  Zn    0.87833   0.19664   0.21188   0.00000  Uiso   1.00
Zn402  Zn    0.79465   0.20535   0.28277   0.00000  Uiso   1.00
C403   C     0.05282   0.49324   0.25886   0.00000  Uiso   1.00
C404   C     0.20207   0.46215   0.45891   0.00000  Uiso   1.00
C405   C     0.22712   0.44579   0.47831   0.00000  Uiso   1.00
C406   C     0.28058   0.50701   0.24224   0.00000  Uiso   1.00
C407   C     0.22223   0.45808   0.01910   0.00000  Uiso   1.00
C408   C     0.19834   0.49267   0.03789   0.00000  Uiso   1.00
C409   C     0.23748   0.43431   0.04196   0.00000  Uiso   1.00
C410   C     0.22336   0.44008   0.08295   0.00000  Uiso   1.00
C411   C     0.18424   0.49888   0.08037   0.00000  Uiso   1.00
C412   C     0.32491   0.51342   0.24427   0.00000  Uiso   1.00
C413   C     0.00741   0.48853   0.26346   0.00000  Uiso   1.00
C414   C     0.10069   0.54761   0.42432   0.00000  Uiso   1.00
C415   C     0.17717   0.65489   0.23888   0.00000  Uiso   1.00
C416   C     0.15080   0.34697   0.26530   0.00000  Uiso   1.00
C417   C     0.15703   0.38978   0.25846   0.00000  Uiso   1.00
C418   C     0.17616   0.61083   0.24179   0.00000  Uiso   1.00
C419   C     0.18792   0.47900   0.14437   0.00000  Uiso   1.00
C420   C     0.14490   0.52043   0.35628   0.00000  Uiso   1.00
C421   C     0.13643   0.52817   0.39932   0.00000  Uiso   1.00
C422   C     0.19704   0.47177   0.10187   0.00000  Uiso   1.00
C423   C     0.09807   0.55719   0.46484   0.00000  Uiso   1.00
C424   C     0.13184   0.61687   0.02620   0.00000  Uiso   1.00
C425   C     0.16479   0.51352   0.41593   0.00000  Uiso   1.00
C426   C     0.16820   0.65102   0.01583   0.00000  Uiso   1.00
C427   C     0.15137   0.36019   0.02998   0.00000  Uiso   1.00
C428   C     0.30939   0.41319   0.02340   0.00000  Uiso   1.00
C429   C     0.01353   0.58628   0.25351   0.00000  Uiso   1.00
C430   C     0.31476   0.45178   0.28446   0.00000  Uiso   1.00
C431   C     0.00633   0.42528   0.30117   0.00000  Uiso   1.00
C432   C     0.31010   0.39043   0.32189   0.00000  Uiso   1.00
C433   C     0.11874   0.33474   0.30337   0.00000  Uiso   1.00
C434   C     0.09646   0.37139   0.33001   0.00000  Uiso   1.00
C435   C     0.06593   0.35781   0.36786   0.00000  Uiso   1.00
C436   C     0.16008   0.51987   0.45622   0.00000  Uiso   1.00
C437   C     0.15517   0.53371   0.10133   0.00000  Uiso   1.00
C438   C     0.12713   0.53444   0.14391   0.00000  Uiso   1.00
C439   C     0.09919   0.57062   0.15332   0.00000  Uiso   1.00
C440   C     0.20978   0.37740   0.11578   0.00000  Uiso   1.00
C441   C     0.29327   0.42714   0.43235   0.00000  Uiso   1.00
C442   C     0.05571   0.56688   0.49426   0.00000  Uiso   1.00
C443   C     0.02142   0.53025   0.49503   0.00000  Uiso   1.00
C444   C     0.31395   0.53942   0.02709   0.00000  Uiso   1.00
C445   C     0.06726   0.59748   0.40140   0.00000  Uiso   1.00
C446   C     0.15383   0.41173   0.43267   0.00000  Uiso   1.00
C447   C     0.13318   0.55014   0.47813   0.00000  Uiso   1.00
C448   C     0.18334   0.49962   0.47527   0.00000  Uiso   1.00
C449   C     0.18603   0.51709   0.01308   0.00000  Uiso   1.00
C450   C     0.17590   0.55856   0.02405   0.00000  Uiso   1.00
C451   C     0.14584   0.57395   0.00979   0.00000  Uiso   1.00
H452   H     0.20058   0.33400   0.21390   0.00000  Uiso   1.00
H453   H     0.11878   0.61800   0.05861   0.00000  Uiso   1.00
H454   H     0.25377   0.37358   0.03266   0.00000  Uiso   1.00
H455   H     0.32883   0.38854   0.00498   0.00000  Uiso   1.00
H456   H     0.31334   0.41605   0.05353   0.00000  Uiso   1.00
H457   H     0.32134   0.44280   0.01066   0.00000  Uiso   1.00
H458   H     0.01304   0.55204   0.20056   0.00000  Uiso   1.00
H459   H     0.03591   0.61148   0.23914   0.00000  Uiso   1.00
H460   H     0.02146   0.58248   0.28098   0.00000  Uiso   1.00
H461   H     0.31384   0.59562   0.26089   0.00000  Uiso   1.00
H462   H     0.28358   0.40332   0.34571   0.00000  Uiso   1.00
H463   H     0.19243   0.49945   0.39689   0.00000  Uiso   1.00
H464   H     0.29656   0.36889   0.30061   0.00000  Uiso   1.00
H465   H     0.32828   0.37263   0.33490   0.00000  Uiso   1.00
H466   H     0.03162   0.41081   0.27710   0.00000  Uiso   1.00
H467   H     0.02132   0.44507   0.32251   0.00000  Uiso   1.00
H468   H     0.28937   0.46422   0.30984   0.00000  Uiso   1.00
H469   H     0.30011   0.43079   0.26354   0.00000  Uiso   1.00
H470   H     0.04183   0.66617   0.36137   0.00000  Uiso   1.00
H471   H     0.08404   0.34687   0.38587   0.00000  Uiso   1.00
H472   H     0.04929   0.38475   0.38501   0.00000  Uiso   1.00
H473   H     0.12051   0.39534   0.33828   0.00000  Uiso   1.00
H474   H     0.18982   0.57850   0.04462   0.00000  Uiso   1.00
H475   H     0.07828   0.38563   0.31407   0.00000  Uiso   1.00
H476   H     0.09353   0.64505   0.29582   0.00000  Uiso   1.00
H477   H     0.13577   0.65392   0.32048   0.00000  Uiso   1.00
H478   H     0.11773   0.59920   0.14169   0.00000  Uiso   1.00
H479   H     0.07170   0.56271   0.14048   0.00000  Uiso   1.00
H480   H     0.08775   0.57782   0.18551   0.00000  Uiso   1.00
H481   H     0.10658   0.50483   0.14859   0.00000  Uiso   1.00
H482   H     0.14679   0.54090   0.16496   0.00000  Uiso   1.00
H483   H     0.17622   0.56303   0.10114   0.00000  Uiso   1.00
H484   H     0.13138   0.53377   0.08463   0.00000  Uiso   1.00
H485   H     0.12395   0.36343   0.01851   0.00000  Uiso   1.00
H486   H     0.24828   0.43018   0.12819   0.00000  Uiso   1.00
H487   H     0.22527   0.35823   0.13017   0.00000  Uiso   1.00
H488   H     0.20342   0.35851   0.08944   0.00000  Uiso   1.00
H489   H     0.17899   0.38555   0.13651   0.00000  Uiso   1.00
H490   H     0.23678   0.38820   0.44556   0.00000  Uiso   1.00
H491   H     0.31188   0.40009   0.41950   0.00000  Uiso   1.00
H492   H     0.31181   0.44955   0.44899   0.00000  Uiso   1.00
H493   H     0.28855   0.44243   0.40822   0.00000  Uiso   1.00
H494   H     0.32032   0.54532   0.05638   0.00000  Uiso   1.00
H495   H     0.29001   0.51236   0.02738   0.00000  Uiso   1.00
H496   H     0.14134   0.36510   0.06256   0.00000  Uiso   1.00
H497   H     0.30059   0.56681   0.02141   0.00000  Uiso   1.00
H498   H     0.01345   0.52343   0.46651   0.00000  Uiso   1.00
H499   H     0.03375   0.50234   0.00089   0.00000  Uiso   1.00
H500   H     0.05924   0.57256   0.02458   0.00000  Uiso   1.00
H501   H     0.04451   0.59509   0.48779   0.00000  Uiso   1.00
H502   H     0.05918   0.53316   0.38872   0.00000  Uiso   1.00
H503   H     0.03753   0.60113   0.39371   0.00000  Uiso   1.00
H504   H     0.09504   0.60477   0.37634   0.00000  Uiso   1.00
H505   H     0.06925   0.61994   0.42729   0.00000  Uiso   1.00
H506   H     0.21804   0.42532   0.40477   0.00000  Uiso   1.00
H507   H     0.17673   0.38430   0.01881   0.00000  Uiso   1.00
H508   H     0.14748   0.39791   0.40445   0.00000  Uiso   1.00
H509   H     0.12645   0.42937   0.44983   0.00000  Uiso   1.00
H510   H     0.15673   0.38631   0.44915   0.00000  Uiso   1.00
H511   H     0.19384   0.64784   0.02963   0.00000  Uiso   1.00
H512   H     0.18197   0.64870   0.48343   0.00000  Uiso   1.00
H513   H     0.10674   0.62463   0.01405   0.00000  Uiso   1.00
N514   N     0.26513   0.40255   0.02389   0.00000  Uiso   1.00
N515   N     0.01743   0.54809   0.22724   0.00000  Uiso   1.00
N516   N     0.23765   0.41444   0.10514   0.00000  Uiso   1.00
N517   N     0.25270   0.41321   0.45805   0.00000  Uiso   1.00
N518   N     0.06645   0.55538   0.40990   0.00000  Uiso   1.00
N519   N     0.19294   0.43892   0.42486   0.00000  Uiso   1.00
O520   O     0.16667   0.50000   0.25000   0.00000  Uiso   1.00
O521   O     0.15693   0.45726   0.16625   0.00000  Uiso   1.00
O522   O     0.12687   0.53979   0.33749   0.00000  Uiso   1.00
O523   O     0.21088   0.50826   0.15877   0.00000  Uiso   1.00
O524   O     0.17198   0.49468   0.33749   0.00000  Uiso   1.00
O525   O     0.17849   0.41434   0.27820   0.00000  Uiso   1.00
O526   O     0.14581   0.59469   0.26767   0.00000  Uiso   1.00
O527   O     0.07452   0.46584   0.23607   0.00000  Uiso   1.00
O528   O     0.26785   0.52512   0.21805   0.00000  Uiso   1.00
O529   O     0.06990   0.52293   0.27820   0.00000  Uiso   1.00
O530   O     0.25440   0.48610   0.26767   0.00000  Uiso   1.00
O531   O     0.13800   0.40236   0.23607   0.00000  Uiso   1.00
O532   O     0.20437   0.58860   0.21805   0.00000  Uiso   1.00
Zn533  Zn    0.19244   0.47423   0.28277   0.00000  Uiso   1.00
Zn534  Zn    0.13459   0.45711   0.22257   0.00000  Uiso   1.00
Zn535  Zn    0.21166   0.52997   0.21188   0.00000  Uiso   1.00
Zn536  Zn    0.12798   0.53868   0.28277   0.00000  Uiso   1.00
C537   C     0.38615   0.49324   0.25886   0.00000  Uiso   1.00
C538   C     0.53540   0.46215   0.45891   0.00000  Uiso   1.00
C539   C     0.56045   0.44579   0.47831   0.00000  Uiso   1.00
C540   C     0.61391   0.50701   0.24224   0.00000  Uiso   1.00
C541   C     0.55556   0.45808   0.01910   0.00000  Uiso   1.00
C542   C     0.53168   0.49267   0.03789   0.00000  Uiso   1.00
C543   C     0.57081   0.43431   0.04196   0.00000  Uiso   1.00
C544   C     0.55669   0.44008   0.08295   0.00000  Uiso   1.00
C545   C     0.51757   0.49888   0.08037   0.00000  Uiso   1.00
C546   C     0.65825   0.51342   0.24427   0.00000  Uiso   1.00
C547   C     0.34075   0.48853   0.26346   0.00000  Uiso   1.00
C548   C     0.43402   0.54761   0.42432   0.00000  Uiso   1.00
C549   C     0.51050   0.65489   0.23888   0.00000  Uiso   1.00
C550   C     0.48414   0.34697   0.26530   0.00000  Uiso   1.00
C551   C     0.49036   0.38978   0.25846   0.00000  Uiso   1.00
C552   C     0.50950   0.61083   0.24179   0.00000  Uiso   1.00
C553   C     0.52125   0.47900   0.14437   0.00000  Uiso   1.00
C554   C     0.47823   0.52043   0.35628   0.00000  Uiso   1.00
C555   C     0.46976   0.52817   0.39932   0.00000  Uiso   1.00
C556   C     0.53037   0.47177   0.10187   0.00000  Uiso   1.00
C557   C     0.43140   0.55719   0.46484   0.00000  Uiso   1.00
C558   C     0.46517   0.61687   0.02620   0.00000  Uiso   1.00
C559   C     0.49812   0.51352   0.41593   0.00000  Uiso   1.00
C560   C     0.50154   0.65102   0.01583   0.00000  Uiso   1.00
C561   C     0.48471   0.36019   0.02998   0.00000  Uiso   1.00
C562   C     0.64273   0.41319   0.02340   0.00000  Uiso   1.00
C563   C     0.34686   0.58628   0.25351   0.00000  Uiso   1.00
C564   C     0.64810   0.45178   0.28446   0.00000  Uiso   1.00
C565   C     0.33966   0.42528   0.30117   0.00000  Uiso   1.00
C566   C     0.64343   0.39043   0.32189   0.00000  Uiso   1.00
C567   C     0.45207   0.33474   0.30337   0.00000  Uiso   1.00
C568   C     0.42980   0.37139   0.33001   0.00000  Uiso   1.00
C569   C     0.39927   0.35781   0.36786   0.00000  Uiso   1.00
C570   C     0.49342   0.51987   0.45622   0.00000  Uiso   1.00
C571   C     0.48850   0.53371   0.10133   0.00000  Uiso   1.00
C572   C     0.46046   0.53444   0.14391   0.00000  Uiso   1.00
C573   C     0.43252   0.57062   0.15332   0.00000  Uiso   1.00
C574   C     0.54312   0.37740   0.11578   0.00000  Uiso   1.00
C575   C     0.62660   0.42714   0.43235   0.00000  Uiso   1.00
C576   C     0.38904   0.56688   0.49426   0.00000  Uiso   1.00
C577   C     0.35476   0.53025   0.49503   0.00000  Uiso   1.00
C578   C     0.64728   0.53942   0.02709   0.00000  Uiso   1.00
C579   C     0.40060   0.59748   0.40140   0.00000  Uiso   1.00
C580   C     0.48717   0.41173   0.43267   0.00000  Uiso   1.00
C581   C     0.46651   0.55014   0.47813   0.00000  Uiso   1.00
C582   C     0.51667   0.49962   0.47527   0.00000  Uiso   1.00
C583   C     0.51936   0.51709   0.01308   0.00000  Uiso   1.00
C584   C     0.50924   0.55856   0.02405   0.00000  Uiso   1.00
C585   C     0.47917   0.57395   0.00979   0.00000  Uiso   1.00
H586   H     0.53391   0.33400   0.21390   0.00000  Uiso   1.00
H587   H     0.45212   0.61800   0.05861   0.00000  Uiso   1.00
H588   H     0.58711   0.37358   0.03266   0.00000  Uiso   1.00
H589   H     0.66216   0.38854   0.00498   0.00000  Uiso   1.00
H590   H     0.64668   0.41605   0.05353   0.00000  Uiso   1.00
H591   H     0.65467   0.44280   0.01066   0.00000  Uiso   1.00
H592   H     0.34637   0.55204   0.20056   0.00000  Uiso   1.00
H593   H     0.36924   0.61148   0.23914   0.00000  Uiso   1.00
H594   H     0.35479   0.58248   0.28098   0.00000  Uiso   1.00
H595   H     0.64717   0.59562   0.26089   0.00000  Uiso   1.00
H596   H     0.61691   0.40332   0.34571   0.00000  Uiso   1.00
H597   H     0.52576   0.49945   0.39689   0.00000  Uiso   1.00
H598   H     0.62989   0.36889   0.30061   0.00000  Uiso   1.00
H599   H     0.66162   0.37263   0.33490   0.00000  Uiso   1.00
H600   H     0.36495   0.41081   0.27710   0.00000  Uiso   1.00
H601   H     0.35466   0.44507   0.32251   0.00000  Uiso   1.00
H602   H     0.62271   0.46422   0.30984   0.00000  Uiso   1.00
H603   H     0.63344   0.43079   0.26354   0.00000  Uiso   1.00
H604   H     0.37517   0.66617   0.36137   0.00000  Uiso   1.00
H605   H     0.41737   0.34687   0.38587   0.00000  Uiso   1.00
H606   H     0.38263   0.38475   0.38501   0.00000  Uiso   1.00
H607   H     0.45385   0.39534   0.33828   0.00000  Uiso   1.00
H608   H     0.52316   0.57850   0.04462   0.00000  Uiso   1.00
H609   H     0.41161   0.38563   0.31407   0.00000  Uiso   1.00
H610   H     0.42686   0.64505   0.29582   0.00000  Uiso   1.00
H611   H     0.46910   0.65392   0.32048   0.00000  Uiso   1.00
H612   H     0.45106   0.59920   0.14169   0.00000  Uiso   1.00
H613   H     0.40503   0.56271   0.14048   0.00000  Uiso   1.00
H614   H     0.42108   0.57782   0.18551   0.00000  Uiso   1.00
H615   H     0.43991   0.50483   0.14859   0.00000  Uiso   1.00
H616   H     0.48013   0.54090   0.16496   0.00000  Uiso   1.00
H617   H     0.50955   0.56303   0.10114   0.00000  Uiso   1.00
H618   H     0.46472   0.53377   0.08463   0.00000  Uiso   1.00
H619   H     0.45729   0.36343   0.01851   0.00000  Uiso   1.00
H620   H     0.58161   0.43018   0.12819   0.00000  Uiso   1.00
H621   H     0.55860   0.35823   0.13017   0.00000  Uiso   1.00
H622   H     0.53676   0.35851   0.08944   0.00000  Uiso   1.00
H623   H     0.51232   0.38555   0.13651   0.00000  Uiso   1.00
H624   H     0.57011   0.38820   0.44556   0.00000  Uiso   1.00
H625   H     0.64521   0.40009   0.41950   0.00000  Uiso   1.00
H626   H     0.64514   0.44955   0.44899   0.00000  Uiso   1.00
H627   H     0.62188   0.44243   0.40822   0.00000  Uiso   1.00
H628   H     0.65365   0.54532   0.05638   0.00000  Uiso   1.00
H629   H     0.62334   0.51236   0.02738   0.00000  Uiso   1.00
H630   H     0.47468   0.36510   0.06256   0.00000  Uiso   1.00
H631   H     0.63393   0.56681   0.02141   0.00000  Uiso   1.00
H632   H     0.34679   0.52343   0.46651   0.00000  Uiso   1.00
H633   H     0.36709   0.50234   0.00089   0.00000  Uiso   1.00
H634   H     0.39257   0.57256   0.02458   0.00000  Uiso   1.00
H635   H     0.37784   0.59509   0.48779   0.00000  Uiso   1.00
H636   H     0.39251   0.53316   0.38872   0.00000  Uiso   1.00
H637   H     0.37087   0.60113   0.39371   0.00000  Uiso   1.00
H638   H     0.42838   0.60477   0.37634   0.00000  Uiso   1.00
H639   H     0.40259   0.61994   0.42729   0.00000  Uiso   1.00
H640   H     0.55137   0.42532   0.40477   0.00000  Uiso   1.00
H641   H     0.51007   0.38430   0.01881   0.00000  Uiso   1.00
H642   H     0.48081   0.39791   0.40445   0.00000  Uiso   1.00
H643   H     0.45979   0.42937   0.44983   0.00000  Uiso   1.00
H644   H     0.49006   0.38631   0.44915   0.00000  Uiso   1.00
H645   H     0.52717   0.64784   0.02963   0.00000  Uiso   1.00
H646   H     0.51530   0.64870   0.48343   0.00000  Uiso   1.00
H647   H     0.44007   0.62463   0.01405   0.00000  Uiso   1.00
N648   N     0.59846   0.40255   0.02389   0.00000  Uiso   1.00
N649   N     0.35076   0.54809   0.22724   0.00000  Uiso   1.00
N650   N     0.57099   0.41444   0.10514   0.00000  Uiso   1.00
N651   N     0.58603   0.41321   0.45805   0.00000  Uiso   1.00
N652   N     0.39979   0.55538   0.40990   0.00000  Uiso   1.00
N653   N     0.52627   0.43892   0.42486   0.00000  Uiso   1.00
O654   O     0.50000   0.50000   0.25000   0.00000  Uiso   1.00
O655   O     0.49027   0.45726   0.16625   0.00000  Uiso   1.00
O656   O     0.46020   0.53979   0.33749   0.00000  Uiso   1.00
O657   O     0.54421   0.50826   0.15877   0.00000  Uiso   1.00
O658   O     0.50532   0.49468   0.33749   0.00000  Uiso   1.00
O659   O     0.51182   0.41434   0.27820   0.00000  Uiso   1.00
O660   O     0.47914   0.59469   0.26767   0.00000  Uiso   1.00
O661   O     0.40785   0.46584   0.23607   0.00000  Uiso   1.00
O662   O     0.60119   0.52512   0.21805   0.00000  Uiso   1.00
O663   O     0.40323   0.52293   0.27820   0.00000  Uiso   1.00
O664   O     0.58773   0.48610   0.26767   0.00000  Uiso   1.00
O665   O     0.47133   0.40236   0.23607   0.00000  Uiso   1.00
O666   O     0.53771   0.58860   0.21805   0.00000  Uiso   1.00
Zn667  Zn    0.52577   0.47423   0.28277   0.00000  Uiso   1.00
Zn668  Zn    0.46792   0.45711   0.22257   0.00000  Uiso   1.00
Zn669  Zn    0.54500   0.52997   0.21188   0.00000  Uiso   1.00
Zn670  Zn    0.46131   0.53868   0.28277   0.00000  Uiso   1.00
C671   C     0.71948   0.49324   0.25886   0.00000  Uiso   1.00
C672   C     0.86873   0.46215   0.45891   0.00000  Uiso   1.00
C673   C     0.89378   0.44579   0.47831   0.00000  Uiso   1.00
C674   C     0.94725   0.50701   0.24224   0.00000  Uiso   1.00
C675   C     0.88890   0.45808   0.01910   0.00000  Uiso   1.00
C676   C     0.86501   0.49267   0.03789   0.00000  Uiso   1.00
C677   C     0.90414   0.43431   0.04196   0.00000  Uiso   1.00
C678   C     0.89003   0.44008   0.08295   0.00000  Uiso   1.00
C679   C     0.85090   0.49888   0.08037   0.00000  Uiso   1.00
C680   C     0.99158   0.51342   0.24427   0.00000  Uiso   1.00
C681   C     0.67408   0.48853   0.26346   0.00000  Uiso   1.00
C682   C     0.76736   0.54761   0.42432   0.00000  Uiso   1.00
C683   C     0.84384   0.65489   0.23888   0.00000  Uiso   1.00
C684   C     0.81747   0.34697   0.26530   0.00000  Uiso   1.00
C685   C     0.82369   0.38978   0.25846   0.00000  Uiso   1.00
C686   C     0.84283   0.61083   0.24179   0.00000  Uiso   1.00
C687   C     0.85458   0.47900   0.14437   0.00000  Uiso   1.00
C688   C     0.81157   0.52043   0.35628   0.00000  Uiso   1.00
C689   C     0.80309   0.52817   0.39932   0.00000  Uiso   1.00
C690   C     0.86371   0.47177   0.10187   0.00000  Uiso   1.00
C691   C     0.76473   0.55719   0.46484   0.00000  Uiso   1.00
C692   C     0.79851   0.61687   0.02620   0.00000  Uiso   1.00
C693   C     0.83146   0.51352   0.41593   0.00000  Uiso   1.00
C694   C     0.83487   0.65102   0.01583   0.00000  Uiso   1.00
C695   C     0.81804   0.36019   0.02998   0.00000  Uiso   1.00
C696   C     0.97606   0.41319   0.02340   0.00000  Uiso   1.00
C697   C     0.68020   0.58628   0.25351   0.00000  Uiso   1.00
C698   C     0.98143   0.45178   0.28446   0.00000  Uiso   1.00
C699   C     0.67299   0.42528   0.30117   0.00000  Uiso   1.00
C700   C     0.97677   0.39043   0.32189   0.00000  Uiso   1.00
C701   C     0.78541   0.33474   0.30337   0.00000  Uiso   1.00
C702   C     0.76313   0.37139   0.33001   0.00000  Uiso   1.00
C703   C     0.73260   0.35781   0.36786   0.00000  Uiso   1.00
C704   C     0.82675   0.51987   0.45622   0.00000  Uiso   1.00
C705   C     0.82183   0.53371   0.10133   0.00000  Uiso   1.00
C706   C     0.79379   0.53444   0.14391   0.00000  Uiso   1.00
C707   C     0.76585   0.57062   0.15332   0.00000  Uiso   1.00
C708   C     0.87645   0.37740   0.11578   0.00000  Uiso   1.00
C709   C     0.95994   0.42714   0.43235   0.00000  Uiso   1.00
C710   C     0.72238   0.56688   0.49426   0.00000  Uiso   1.00
C711   C     0.68809   0.53025   0.49503   0.00000  Uiso   1.00
C712   C     0.98062   0.53942   0.02709   0.00000  Uiso   1.00
C713   C     0.73393   0.59748   0.40140   0.00000  Uiso   1.00
C714   C     0.82050   0.41173   0.43267   0.00000  Uiso   1.00
C715   C     0.79985   0.55014   0.47813   0.00000  Uiso   1.00
C716   C     0.85001   0.49962   0.47527   0.00000  Uiso   1.00
C717   C     0.85269   0.51709   0.01308   0.00000  Uiso   1.00
C718   C     0.84257   0.55856   0.02405   0.00000  Uiso   1.00
C719   C     0.81251   0.57395   0.00979   0.00000  Uiso   1.00
H720   H     0.86725   0.33400   0.21390   0.00000  Uiso   1.00
H721   H     0.78545   0.61800   0.05861   0.00000  Uiso   1.00
H722   H     0.92044   0.37358   0.03266   0.00000  Uiso   1.00
H723   H     0.99549   0.38854   0.00498   0.00000  Uiso   1.00
H724   H     0.98001   0.41605   0.05353   0.00000  Uiso   1.00
H725   H     0.98800   0.44280   0.01066   0.00000  Uiso   1.00
H726   H     0.67971   0.55204   0.20056   0.00000  Uiso   1.00
H727   H     0.70258   0.61148   0.23914   0.00000  Uiso   1.00
H728   H     0.68813   0.58248   0.28098   0.00000  Uiso   1.00
H729   H     0.98051   0.59562   0.26089   0.00000  Uiso   1.00
H730   H     0.95025   0.40332   0.34571   0.00000  Uiso   1.00
H731   H     0.85910   0.49945   0.39689   0.00000  Uiso   1.00
H732   H     0.96322   0.36889   0.30061   0.00000  Uiso   1.00
H733   H     0.99495   0.37263   0.33490   0.00000  Uiso   1.00
H734   H     0.69828   0.41081   0.27710   0.00000  Uiso   1.00
H735   H     0.68799   0.44507   0.32251   0.00000  Uiso   1.00
H736   H     0.95604   0.46422   0.30984   0.00000  Uiso   1.00
H737   H     0.96677   0.43079   0.26354   0.00000  Uiso   1.00
H738   H     0.70850   0.66617   0.36137   0.00000  Uiso   1.00
H739   H     0.75071   0.34687   0.38587   0.00000  Uiso   1.00
H740   H     0.71596   0.38475   0.38501   0.00000  Uiso   1.00
H741   H     0.78718   0.39534   0.33828   0.00000  Uiso   1.00
H742   H     0.85649   0.57850   0.04462   0.00000  Uiso   1.00
H743   H     0.74495   0.38563   0.31407   0.00000  Uiso   1.00
H744   H     0.76019   0.64505   0.29582   0.00000  Uiso   1.00
H745   H     0.80244   0.65392   0.32048   0.00000  Uiso   1.00
H746   H     0.78440   0.59920   0.14169   0.00000  Uiso   1.00
H747   H     0.73836   0.56271   0.14048   0.00000  Uiso   1.00
H748   H     0.75441   0.57782   0.18551   0.00000  Uiso   1.00
H749   H     0.77325   0.50483   0.14859   0.00000  Uiso   1.00
H750   H     0.81346   0.54090   0.16496   0.00000  Uiso   1.00
H751   H     0.84289   0.56303   0.10114   0.00000  Uiso   1.00
H752   H     0.79805   0.53377   0.08463   0.00000  Uiso   1.00
H753   H     0.79062   0.36343   0.01851   0.00000  Uiso   1.00
H754   H     0.91495   0.43018   0.12819   0.00000  Uiso   1.00
H755   H     0.89194   0.35823   0.13017   0.00000  Uiso   1.00
H756   H     0.87009   0.35851   0.08944   0.00000  Uiso   1.00
H757   H     0.84565   0.38555   0.13651   0.00000  Uiso   1.00
H758   H     0.90344   0.38820   0.44556   0.00000  Uiso   1.00
H759   H     0.97854   0.40009   0.41950   0.00000  Uiso   1.00
H760   H     0.97847   0.44955   0.44899   0.00000  Uiso   1.00
H761   H     0.95522   0.44243   0.40822   0.00000  Uiso   1.00
H762   H     0.98699   0.54532   0.05638   0.00000  Uiso   1.00
H763   H     0.95668   0.51236   0.02738   0.00000  Uiso   1.00
H764   H     0.80801   0.36510   0.06256   0.00000  Uiso   1.00
H765   H     0.96726   0.56681   0.02141   0.00000  Uiso   1.00
H766   H     0.68012   0.52343   0.46651   0.00000  Uiso   1.00
H767   H     0.70042   0.50234   0.00089   0.00000  Uiso   1.00
H768   H     0.72590   0.57256   0.02458   0.00000  Uiso   1.00
H769   H     0.71118   0.59509   0.48779   0.00000  Uiso   1.00
H770   H     0.72584   0.53316   0.38872   0.00000  Uiso   1.00
H771   H     0.70420   0.60113   0.39371   0.00000  Uiso   1.00
H772   H     0.76171   0.60477   0.37634   0.00000  Uiso   1.00
H773   H     0.73592   0.61994   0.42729   0.00000  Uiso   1.00
H774   H     0.88471   0.42532   0.40477   0.00000  Uiso   1.00
H775   H     0.84340   0.38430   0.01881   0.00000  Uiso   1.00
H776   H     0.81414   0.39791   0.40445   0.00000  Uiso   1.00
H777   H     0.79312   0.42937   0.44983   0.00000  Uiso   1.00
H778   H     0.82340   0.38631   0.44915   0.00000  Uiso   1.00
H779   H     0.86050   0.64784   0.02963   0.00000  Uiso   1.00
H780   H     0.84864   0.64870   0.48343   0.00000  Uiso   1.00
H781   H     0.77341   0.62463   0.01405   0.00000  Uiso   1.00
N782   N     0.93179   0.40255   0.02389   0.00000  Uiso   1.00
N783   N     0.68409   0.54809   0.22724   0.00000  Uiso   1.00
N784   N     0.90432   0.41444   0.10514   0.00000  Uiso   1.00
N785   N     0.91937   0.41321   0.45805   0.00000  Uiso   1.00
N786   N     0.73312   0.55538   0.40990   0.00000  Uiso   1.00
N787   N     0.85961   0.43892   0.42486   0.00000  Uiso   1.00
O788   O     0.83333   0.50000   0.25000   0.00000  Uiso   1.00
O789   O     0.82360   0.45726   0.16625   0.00000  Uiso   1.00
O790   O     0.79354   0.53979   0.33749   0.00000  Uiso   1.00
O791   O     0.87755   0.50826   0.15877   0.00000  Uiso   1.00
O792   O     0.83865   0.49468   0.33749   0.00000  Uiso   1.00
O793   O     0.84515   0.41434   0.27820   0.00000  Uiso   1.00
O794   O     0.81247   0.59469   0.26767   0.00000  Uiso   1.00
O795   O     0.74119   0.46584   0.23607   0.00000  Uiso   1.00
O796   O     0.93452   0.52512   0.21805   0.00000  Uiso   1.00
O797   O     0.73656   0.52293   0.27820   0.00000  Uiso   1.00
O798   O     0.92106   0.48610   0.26767   0.00000  Uiso   1.00
O799   O     0.80467   0.40236   0.23607   0.00000  Uiso   1.00
O800   O     0.87104   0.58860   0.21805   0.00000  Uiso   1.00
Zn801  Zn    0.85910   0.47423   0.28277   0.00000  Uiso   1.00
Zn802  Zn    0.80125   0.45711   0.22257   0.00000  Uiso   1.00
Zn803  Zn    0.87833   0.52997   0.21188   0.00000  Uiso   1.00
Zn804  Zn    0.79465   0.53868   0.28277   0.00000  Uiso   1.00
C805   C     0.05282   0.82657   0.25886   0.00000  Uiso   1.00
C806   C     0.20207   0.79549   0.45891   0.00000  Uiso   1.00
C807   C     0.22712   0.77913   0.47831   0.00000  Uiso   1.00
C808   C     0.28058   0.84035   0.24224   0.00000  Uiso   1.00
C809   C     0.22223   0.79141   0.01910   0.00000  Uiso   1.00
C810   C     0.19834   0.82600   0.03789   0.00000  Uiso   1.00
C811   C     0.23748   0.76765   0.04196   0.00000  Uiso   1.00
C812   C     0.22336   0.77342   0.08295   0.00000  Uiso   1.00
C813   C     0.18424   0.83222   0.08037   0.00000  Uiso   1.00
C814   C     0.32491   0.84675   0.24427   0.00000  Uiso   1.00
C815   C     0.00741   0.82186   0.26346   0.00000  Uiso   1.00
C816   C     0.10069   0.88094   0.42432   0.00000  Uiso   1.00
C817   C     0.17717   0.98823   0.23888   0.00000  Uiso   1.00
C818   C     0.15080   0.68030   0.26530   0.00000  Uiso   1.00
C819   C     0.15703   0.72311   0.25846   0.00000  Uiso   1.00
C820   C     0.17616   0.94416   0.24179   0.00000  Uiso   1.00
C821   C     0.18792   0.81234   0.14437   0.00000  Uiso   1.00
C822   C     0.14490   0.85377   0.35628   0.00000  Uiso   1.00
C823   C     0.13643   0.86151   0.39932   0.00000  Uiso   1.00
C824   C     0.19704   0.80511   0.10187   0.00000  Uiso   1.00
C825   C     0.09807   0.89052   0.46484   0.00000  Uiso   1.00
C826   C     0.13184   0.95021   0.02620   0.00000  Uiso   1.00
C827   C     0.16479   0.84685   0.41593   0.00000  Uiso   1.00
C828   C     0.16820   0.98435   0.01583   0.00000  Uiso   1.00
C829   C     0.15137   0.69352   0.02998   0.00000  Uiso   1.00
C830   C     0.30939   0.74652   0.02340   0.00000  Uiso   1.00
C831   C     0.01353   0.91961   0.25351   0.00000  Uiso   1.00
C832   C     0.31476   0.78511   0.28446   0.00000  Uiso   1.00
C833   C     0.00633   0.75861   0.30117   0.00000  Uiso   1.00
C834   C     0.31010   0.72377   0.32189   0.00000  Uiso   1.00
C835   C     0.11874   0.66807   0.30337   0.00000  Uiso   1.00
C836   C     0.09646   0.70472   0.33001   0.00000  Uiso   1.00
C837   C     0.06593   0.69114   0.36786   0.00000  Uiso   1.00
C838   C     0.16008   0.85320   0.45622   0.00000  Uiso   1.00
C839   C     0.15517   0.86704   0.10133   0.00000  Uiso   1.00
C840   C     0.12713   0.86777   0.14391   0.00000  Uiso   1.00
C841   C     0.09919   0.90396   0.15332   0.00000  Uiso   1.00
C842   C     0.20978   0.71074   0.11578   0.00000  Uiso   1.00
C843   C     0.29327   0.76047   0.43235   0.00000  Uiso   1.00
C844   C     0.05571   0.90021   0.49426   0.00000  Uiso   1.00
C845   C     0.02142   0.86359   0.49503   0.00000  Uiso   1.00
C846   C     0.31395   0.87275   0.02709   0.00000  Uiso   1.00
C847   C     0.06726   0.93082   0.40140   0.00000  Uiso   1.00
C848   C     0.15383   0.74507   0.43267   0.00000  Uiso   1.00
C849   C     0.13318   0.88347   0.47813   0.00000  Uiso   1.00
C850   C     0.18334   0.83295   0.47527   0.00000  Uiso   1.00
C851   C     0.18603   0.85042   0.01308   0.00000  Uiso   1.00
C852   C     0.17590   0.89189   0.02405   0.00000  Uiso   1.00
C853   C     0.14584   0.90728   0.00979   0.00000  Uiso   1.00
H854   H     0.20058   0.66733   0.21390   0.00000  Uiso   1.00
H855   H     0.11878   0.95133   0.05861   0.00000  Uiso   1.00
H856   H     0.25377   0.70691   0.03266   0.00000  Uiso   1.00
H857   H     0.32883   0.72187   0.00498   0.00000  Uiso   1.00
H858   H     0.31334   0.74939   0.05353   0.00000  Uiso   1.00
H859   H     0.32134   0.77613   0.01066   0.00000  Uiso   1.00
H860   H     0.01304   0.88538   0.20056   0.00000  Uiso   1.00
H861   H     0.03591   0.94481   0.23914   0.00000  Uiso   1.00
H862   H     0.02146   0.91581   0.28098   0.00000  Uiso   1.00
H863   H     0.31384   0.92895   0.26089   0.00000  Uiso   1.00
H864   H     0.28358   0.73665   0.34571   0.00000  Uiso   1.00
H865   H     0.19243   0.83278   0.39689   0.00000  Uiso   1.00
H866   H     0.29656   0.70223   0.30061   0.00000  Uiso   1.00
H867   H     0.32828   0.70597   0.33490   0.00000  Uiso   1.00
H868   H     0.03162   0.74414   0.27710   0.00000  Uiso   1.00
H869   H     0.02132   0.77841   0.32251   0.00000  Uiso   1.00
H870   H     0.28937   0.79756   0.30984   0.00000  Uiso   1.00
H871   H     0.30011   0.76412   0.26354   0.00000  Uiso   1.00
H872   H     0.04183   0.99951   0.36137   0.00000  Uiso   1.00
H873   H     0.08404   0.68020   0.38587   0.00000  Uiso   1.00
H874   H     0.04929   0.71808   0.38501   0.00000  Uiso   1.00
H875   H     0.12051   0.72867   0.33828   0.00000  Uiso   1.00
H876   H     0.18982   0.91184   0.04462   0.00000  Uiso   1.00
H877   H     0.07828   0.71896   0.31407   0.00000  Uiso   1.00
H878   H     0.09353   0.97838   0.29582   0.00000  Uiso   1.00
H879   H     0.13577   0.98725   0.32048   0.00000  Uiso   1.00
H880   H     0.11773   0.93253   0.14169   0.00000  Uiso   1.00
H881   H     0.07170   0.89605   0.14048   0.00000  Uiso   1.00
H882   H     0.08775   0.91116   0.18551   0.00000  Uiso   1.00
H883   H     0.10658   0.83816   0.14859   0.00000  Uiso   1.00
H884   H     0.14679   0.87423   0.16496   0.00000  Uiso   1.00
H885   H     0.17622   0.89637   0.10114   0.00000  Uiso   1.00
H886   H     0.13138   0.86711   0.08463   0.00000  Uiso   1.00
H887   H     0.12395   0.69677   0.01851   0.00000  Uiso   1.00
H888   H     0.24828   0.76351   0.12819   0.00000  Uiso   1.00
H889   H     0.22527   0.69157   0.13017   0.00000  Uiso   1.00
H890   H     0.20342   0.69184   0.08944   0.00000  Uiso   1.00
H891   H     0.17899   0.71888   0.13651   0.00000  Uiso   1.00
H892   H     0.23678   0.72153   0.44556   0.00000  Uiso   1.00
H893   H     0.31188   0.73342   0.41950   0.00000  Uiso   1.00
H894   H     0.31181   0.78288   0.44899   0.00000  Uiso   1.00
H895   H     0.28855   0.77576   0.40822   0.00000  Uiso   1.00
H896   H     0.32032   0.87866   0.05638   0.00000  Uiso   1.00
H897   H     0.29001   0.84569   0.02738   0.00000  Uiso   1.00
H898   H     0.14134   0.69843   0.06256   0.00000  Uiso   1.00
H899   H     0.30059   0.90015   0.02141   0.00000  Uiso   1.00
H900   H     0.01345   0.85676   0.46651   0.00000  Uiso   1.00
H901   H     0.03375   0.83568   0.00089   0.00000  Uiso   1.00
H902   H     0.05924   0.90590   0.02458   0.00000  Uiso   1.00
H903   H     0.04451   0.92842   0.48779   0.00000  Uiso   1.00
H904   H     0.05918   0.86649   0.38872   0.00000  Uiso   1.00
H905   H     0.03753   0.93446   0.39371   0.00000  Uiso   1.00
H906   H     0.09504   0.93810   0.37634   0.00000  Uiso   1.00
H907   H     0.06925   0.95328   0.42729   0.00000  Uiso   1.00
H908   H     0.21804   0.75865   0.40477   0.00000  Uiso   1.00
H909   H     0.17673   0.71763   0.01881   0.00000  Uiso   1.00
H910   H     0.14748   0.73124   0.40445   0.00000  Uiso   1.00
H911   H     0.12645   0.76270   0.44983   0.00000  Uiso   1.00
H912   H     0.15673   0.71965   0.44915   0.00000  Uiso   1.00
H913   H     0.19384   0.98117   0.02963   0.00000  Uiso   1.00
H914   H     0.18197   0.98203   0.48343   0.00000  Uiso   1.00
H915   H     0.10674   0.95797   0.01405   0.00000  Uiso   1.00
N916   N     0.26513   0.73588   0.02389   0.00000  Uiso   1.00
N917   N     0.01743   0.88142   0.22724   0.00000  Uiso   1.00
N918   N     0.23765   0.74778   0.10514   0.00000  Uiso   1.00
N919   N     0.25270   0.74654   0.45805   0.00000  Uiso   1.00
N920   N     0.06645   0.88872   0.40990   0.00000  Uiso   1.00
N921   N     0.19294   0.77225   0.42486   0.00000  Uiso   1.00
O922   O     0.16667   0.83333   0.25000   0.00000  Uiso   1.00
O923   O     0.15693   0.79060   0.16625   0.00000  Uiso   1.00
O924   O     0.12687   0.87313   0.33749   0.00000  Uiso   1.00
O925   O     0.21088   0.84159   0.15877   0.00000  Uiso   1.00
O926   O     0.17198   0.82802   0.33749   0.00000  Uiso   1.00
O927   O     0.17849   0.74768   0.27820   0.00000  Uiso   1.00
O928   O     0.14581   0.92803   0.26767   0.00000  Uiso   1.00
O929   O     0.07452   0.79917   0.23607   0.00000  Uiso   1.00
O930   O     0.26785   0.85845   0.21805   0.00000  Uiso   1.00
O931   O     0.06990   0.85627   0.27820   0.00000  Uiso   1.00
O932   O     0.25440   0.81944   0.26767   0.00000  Uiso   1.00
O933   O     0.13800   0.73570   0.23607   0.00000  Uiso   1.00
O934   O     0.20437   0.92193   0.21805   0.00000  Uiso   1.00
Zn935  Zn    0.19244   0.80756   0.28277   0.00000  Uiso   1.00
Zn936  Zn    0.13459   0.79044   0.22257   0.00000  Uiso   1.00
Zn937  Zn    0.21166   0.86331   0.21188   0.00000  Uiso   1.00
Zn938  Zn    0.12798   0.87202   0.28277   0.00000  Uiso   1.00
C939   C     0.38615   0.82657   0.25886   0.00000  Uiso   1.00
C940   C     0.53540   0.79549   0.45891   0.00000  Uiso   1.00
C941   C     0.56045   0.77913   0.47831   0.00000  Uiso   1.00
C942   C     0.61391   0.84035   0.24224   0.00000  Uiso   1.00
C943   C     0.55556   0.79141   0.01910   0.00000  Uiso   1.00
C944   C     0.53168   0.82600   0.03789   0.00000  Uiso   1.00
C945   C     0.57081   0.76765   0.04196   0.00000  Uiso   1.00
C946   C     0.55669   0.77342   0.08295   0.00000  Uiso   1.00
C947   C     0.51757   0.83222   0.08037   0.00000  Uiso   1.00
C948   C     0.65825   0.84675   0.24427   0.00000  Uiso   1.00
C949   C     0.34075   0.82186   0.26346   0.00000  Uiso   1.00
C950   C     0.43402   0.88094   0.42432   0.00000  Uiso   1.00
C951   C     0.51050   0.98823   0.23888   0.00000  Uiso   1.00
C952   C     0.48414   0.68030   0.26530   0.00000  Uiso   1.00
C953   C     0.49036   0.72311   0.25846   0.00000  Uiso   1.00
C954   C     0.50950   0.94416   0.24179   0.00000  Uiso   1.00
C955   C     0.52125   0.81234   0.14437   0.00000  Uiso   1.00
C956   C     0.47823   0.85377   0.35628   0.00000  Uiso   1.00
C957   C     0.46976   0.86151   0.39932   0.00000  Uiso   1.00
C958   C     0.53037   0.80511   0.10187   0.00000  Uiso   1.00
C959   C     0.43140   0.89052   0.46484   0.00000  Uiso   1.00
C960   C     0.46517   0.95021   0.02620   0.00000  Uiso   1.00
C961   C     0.49812   0.84685   0.41593   0.00000  Uiso   1.00
C962   C     0.50154   0.98435   0.01583   0.00000  Uiso   1.00
C963   C     0.48471   0.69352   0.02998   0.00000  Uiso   1.00
C964   C     0.64273   0.74652   0.02340   0.00000  Uiso   1.00
C965   C     0.34686   0.91961   0.25351   0.00000  Uiso   1.00
C966   C     0.64810   0.78511   0.28446   0.00000  Uiso   1.00
C967   C     0.33966   0.75861   0.30117   0.00000  Uiso   1.00
C968   C     0.64343   0.72377   0.32189   0.00000  Uiso   1.00
C969   C     0.45207   0.66807   0.30337   0.00000  Uiso   1.00
C970   C     0.42980   0.70472   0.33001   0.00000  Uiso   1.00
C971   C     0.39927   0.69114   0.36786   0.00000  Uiso   1.00
C972   C     0.49342   0.85320   0.45622   0.00000  Uiso   1.00
C973   C     0.48850   0.86704   0.10133   0.00000  Uiso   1.00
C974   C     0.46046   0.86777   0.14391   0.00000  Uiso   1.00
C975   C     0.43252   0.90396   0.15332   0.00000  Uiso   1.00
C976   C     0.54312   0.71074   0.11578   0.00000  Uiso   1.00
C977   C     0.62660   0.76047   0.43235   0.00000  Uiso   1.00
C978   C     0.38904   0.90021   0.49426   0.00000  Uiso   1.00
C979   C     0.35476   0.86359   0.49503   0.00000  Uiso   1.00
C980   C     0.64728   0.87275   0.02709   0.00000  Uiso   1.00
C981   C     0.40060   0.93082   0.40140   0.00000  Uiso   1.00
C982   C     0.48717   0.74507   0.43267   0.00000  Uiso   1.00
C983   C     0.46651   0.88347   0.47813   0.00000  Uiso   1.00
C984   C     0.51667   0.83295   0.47527   0.00000  Uiso   1.00
C985   C     0.51936   0.85042   0.01308   0.00000  Uiso   1.00
C986   C     0.50924   0.89189   0.02405   0.00000  Uiso   1.00
C987   C     0.47917   0.90728   0.00979   0.00000  Uiso   1.00
H988   H     0.53391   0.66733   0.21390   0.00000  Uiso   1.00
H989   H     0.45212   0.95133   0.05861   0.00000  Uiso   1.00
H990   H     0.58711   0.70691   0.03266   0.00000  Uiso   1.00
H991   H     0.66216   0.72187   0.00498   0.00000  Uiso   1.00
H992   H     0.64668   0.74939   0.05353   0.00000  Uiso   1.00
H993   H     0.65467   0.77613   0.01066   0.00000  Uiso   1.00
H994   H     0.34637   0.88538   0.20056   0.00000  Uiso   1.00
H995   H     0.36924   0.94481   0.23914   0.00000  Uiso   1.00
H996   H     0.35479   0.91581   0.28098   0.00000  Uiso   1.00
H997   H     0.64717   0.92895   0.26089   0.00000  Uiso   1.00
H998   H     0.61691   0.73665   0.34571   0.00000  Uiso   1.00
H999   H     0.52576   0.83278   0.39689   0.00000  Uiso   1.00
H1000  H     0.62989   0.70223   0.30061   0.00000  Uiso   1.00
H1001  H     0.66162   0.70597   0.33490   0.00000  Uiso   1.00
H1002  H     0.36495   0.74414   0.27710   0.00000  Uiso   1.00
H1003  H     0.35466   0.77841   0.32251   0.00000  Uiso   1.00
H1004  H     0.62271   0.79756   0.30984   0.00000  Uiso   1.00
H1005  H     0.63344   0.76412   0.26354   0.00000  Uiso   1.00
H1006  H     0.37517   0.99951   0.36137   0.00000  Uiso   1.00
H1007  H     0.41737   0.68020   0.38587   0.00000  Uiso   1.00
H1008  H     0.38263   0.71808   0.38501   0.00000  Uiso   1.00
H1009  H     0.45385   0.72867   0.33828   0.00000  Uiso   1.00
H1010  H     0.52316   0.91184   0.04462   0.00000  Uiso   1.00
H1011  H     0.41161   0.71896   0.31407   0.00000  Uiso   1.00
H1012  H     0.42686   0.97838   0.29582   0.00000  Uiso   1.00
H1013  H     0.46910   0.98725   0.32048   0.00000  Uiso   1.00
H1014  H     0.45106   0.93253   0.14169   0.00000  Uiso   1.00
H1015  H     0.40503   0.89605   0.14048   0.00000  Uiso   1.00
H1016  H     0.42108   0.91116   0.18551   0.00000  Uiso   1.00
H1017  H     0.43991   0.83816   0.14859   0.00000  Uiso   1.00
H1018  H     0.48013   0.87423   0.16496   0.00000  Uiso   1.00
H1019  H     0.50955   0.89637   0.10114   0.00000  Uiso   1.00
H1020  H     0.46472   0.86711   0.08463   0.00000  Uiso   1.00
H1021  H     0.45729   0.69677   0.01851   0.00000  Uiso   1.00
H1022  H     0.58161   0.76351   0.12819   0.00000  Uiso   1.00
H1023  H     0.55860   0.69157   0.13017   0.00000  Uiso   1.00
H1024  H     0.53676   0.69184   0.08944   0.00000  Uiso   1.00
H1025  H     0.51232   0.71888   0.13651   0.00000  Uiso   1.00
H1026  H     0.57011   0.72153   0.44556   0.00000  Uiso   1.00
H1027  H     0.64521   0.73342   0.41950   0.00000  Uiso   1.00
H1028  H     0.64514   0.78288   0.44899   0.00000  Uiso   1.00
H1029  H     0.62188   0.77576   0.40822   0.00000  Uiso   1.00
H1030  H     0.65365   0.87866   0.05638   0.00000  Uiso   1.00
H1031  H     0.62334   0.84569   0.02738   0.00000  Uiso   1.00
H1032  H     0.47468   0.69843   0.06256   0.00000  Uiso   1.00
H1033  H     0.63393   0.90015   0.02141   0.00000  Uiso   1.00
H1034  H     0.34679   0.85676   0.46651   0.00000  Uiso   1.00
H1035  H     0.36709   0.83568   0.00089   0.00000  Uiso   1.00
H1036  H     0.39257   0.90590   0.02458   0.00000  Uiso   1.00
H1037  H     0.37784   0.92842   0.48779   0.00000  Uiso   1.00
H1038  H     0.39251   0.86649   0.38872   0.00000  Uiso   1.00
H1039  H     0.37087   0.93446   0.39371   0.00000  Uiso   1.00
H1040  H     0.42838   0.93810   0.37634   0.00000  Uiso   1.00
H1041  H     0.40259   0.95328   0.42729   0.00000  Uiso   1.00
H1042  H     0.55137   0.75865   0.40477   0.00000  Uiso   1.00
H1043  H     0.51007   0.71763   0.01881   0.00000  Uiso   1.00
H1044  H     0.48081   0.73124   0.40445   0.00000  Uiso   1.00
H1045  H     0.45979   0.76270   0.44983   0.00000  Uiso   1.00
H1046  H     0.49006   0.71965   0.44915   0.00000  Uiso   1.00
H1047  H     0.52717   0.98117   0.02963   0.00000  Uiso   1.00
H1048  H     0.51530   0.98203   0.48343   0.00000  Uiso   1.00
H1049  H     0.44007   0.95797   0.01405   0.00000  Uiso   1.00
N1050  N     0.59846   0.73588   0.02389   0.00000  Uiso   1.00
N1051  N     0.35076   0.88142   0.22724   0.00000  Uiso   1.00
N1052  N     0.57099   0.74778   0.10514   0.00000  Uiso   1.00
N1053  N     0.58603   0.74654   0.45805   0.00000  Uiso   1.00
N1054  N     0.39979   0.88872   0.40990   0.00000  Uiso   1.00
N1055  N     0.52627   0.77225   0.42486   0.00000  Uiso   1.00
O1056  O     0.50000   0.83333   0.25000   0.00000  Uiso   1.00
O1057  O     0.49027   0.79060   0.16625   0.00000  Uiso   1.00
O1058  O     0.46020   0.87313   0.33749   0.00000  Uiso   1.00
O1059  O     0.54421   0.84159   0.15877   0.00000  Uiso   1.00
O1060  O     0.50532   0.82802   0.33749   0.00000  Uiso   1.00
O1061  O     0.51182   0.74768   0.27820   0.00000  Uiso   1.00
O1062  O     0.47914   0.92803   0.26767   0.00000  Uiso   1.00
O1063  O     0.40785   0.79917   0.23607   0.00000  Uiso   1.00
O1064  O     0.60119   0.85845   0.21805   0.00000  Uiso   1.00
O1065  O     0.40323   0.85627   0.27820   0.00000  Uiso   1.00
O1066  O     0.58773   0.81944   0.26767   0.00000  Uiso   1.00
O1067  O     0.47133   0.73570   0.23607   0.00000  Uiso   1.00
O1068  O     0.53771   0.92193   0.21805   0.00000  Uiso   1.00
Zn1069 Zn    0.52577   0.80756   0.28277   0.00000  Uiso   1.00
Zn1070 Zn    0.46792   0.79044   0.22257   0.00000  Uiso   1.00
Zn1071 Zn    0.54500   0.86331   0.21188   0.00000  Uiso   1.00
Zn1072 Zn    0.46131   0.87202   0.28277   0.00000  Uiso   1.00
C1073  C     0.71948   0.82657   0.25886   0.00000  Uiso   1.00
C1074  C     0.86873   0.79549   0.45891   0.00000  Uiso   1.00
C1075  C     0.89378   0.77913   0.47831   0.00000  Uiso   1.00
C1076  C     0.94725   0.84035   0.24224   0.00000  Uiso   1.00
C1077  C     0.88890   0.79141   0.01910   0.00000  Uiso   1.00
C1078  C     0.86501   0.82600   0.03789   0.00000  Uiso   1.00
C1079  C     0.90414   0.76765   0.04196   0.00000  Uiso   1.00
C1080  C     0.89003   0.77342   0.08295   0.00000  Uiso   1.00
C1081  C     0.85090   0.83222   0.08037   0.00000  Uiso   1.00
C1082  C     0.99158   0.84675   0.24427   0.00000  Uiso   1.00
C1083  C     0.67408   0.82186   0.26346   0.00000  Uiso   1.00
C1084  C     0.76736   0.88094   0.42432   0.00000  Uiso   1.00
C1085  C     0.84384   0.98823   0.23888   0.00000  Uiso   1.00
C1086  C     0.81747   0.68030   0.26530   0.00000  Uiso   1.00
C1087  C     0.82369   0.72311   0.25846   0.00000  Uiso   1.00
C1088  C     0.84283   0.94416   0.24179   0.00000  Uiso   1.00
C1089  C     0.85458   0.81234   0.14437   0.00000  Uiso   1.00
C1090  C     0.81157   0.85377   0.35628   0.00000  Uiso   1.00
C1091  C     0.80309   0.86151   0.39932   0.00000  Uiso   1.00
C1092  C     0.86371   0.80511   0.10187   0.00000  Uiso   1.00
C1093  C     0.76473   0.89052   0.46484   0.00000  Uiso   1.00
C1094  C     0.79851   0.95021   0.02620   0.00000  Uiso   1.00
C1095  C     0.83146   0.84685   0.41593   0.00000  Uiso   1.00
C1096  C     0.83487   0.98435   0.01583   0.00000  Uiso   1.00
C1097  C     0.81804   0.69352   0.02998   0.00000  Uiso   1.00
C1098  C     0.97606   0.74652   0.02340   0.00000  Uiso   1.00
C1099  C     0.68020   0.91961   0.25351   0.00000  Uiso   1.00
C1100  C     0.98143   0.78511   0.28446   0.00000  Uiso   1.00
C1101  C     0.67299   0.75861   0.30117   0.00000  Uiso   1.00
C1102  C     0.97677   0.72377   0.32189   0.00000  Uiso   1.00
C1103  C     0.78541   0.66807   0.30337   0.00000  Uiso   1.00
C1104  C     0.76313   0.70472   0.33001   0.00000  Uiso   1.00
C1105  C     0.73260   0.69114   0.36786   0.00000  Uiso   1.00
C1106  C     0.82675   0.85320   0.45622   0.00000  Uiso   1.00
C1107  C     0.82183   0.86704   0.10133   0.00000  Uiso   1.00
C1108  C     0.79379   0.86777   0.14391   0.00000  Uiso   1.00
C1109  C     0.76585   0.90396   0.15332   0.00000  Uiso   1.00
C1110  C     0.87645   0.71074   0.11578   0.00000  Uiso   1.00
C1111  C     0.95994   0.76047   0.43235   0.00000  Uiso   1.00
C1112  C     0.72238   0.90021   0.49426   0.00000  Uiso   1.00
C1113  C     0.68809   0.86359   0.49503   0.00000  Uiso   1.00
C1114  C     0.98062   0.87275   0.02709   0.00000  Uiso   1.00
C1115  C     0.73393   0.93082   0.40140   0.00000  Uiso   1.00
C1116  C     0.82050   0.74507   0.43267   0.00000  Uiso   1.00
C1117  C     0.79985   0.88347   0.47813   0.00000  Uiso   1.00
C1118  C     0.85001   0.83295   0.47527   0.00000  Uiso   1.00
C1119  C     0.85269   0.85042   0.01308   0.00000  Uiso   1.00
C1120  C     0.84257   0.89189   0.02405   0.00000  Uiso   1.00
C1121  C     0.81251   0.90728   0.00979   0.00000  Uiso   1.00
H1122  H     0.86725   0.66733   0.21390   0.00000  Uiso   1.00
H1123  H     0.78545   0.95133   0.05861   0.00000  Uiso   1.00
H1124  H     0.92044   0.70691   0.03266   0.00000  Uiso   1.00
H1125  H     0.99549   0.72187   0.00498   0.00000  Uiso   1.00
H1126  H     0.98001   0.74939   0.05353   0.00000  Uiso   1.00
H1127  H     0.98800   0.77613   0.01066   0.00000  Uiso   1.00
H1128  H     0.67971   0.88538   0.20056   0.00000  Uiso   1.00
H1129  H     0.70258   0.94481   0.23914   0.00000  Uiso   1.00
H1130  H     0.68813   0.91581   0.28098   0.00000  Uiso   1.00
H1131  H     0.98051   0.92895   0.26089   0.00000  Uiso   1.00
H1132  H     0.95025   0.73665   0.34571   0.00000  Uiso   1.00
H1133  H     0.85910   0.83278   0.39689   0.00000  Uiso   1.00
H1134  H     0.96322   0.70223   0.30061   0.00000  Uiso   1.00
H1135  H     0.99495   0.70597   0.33490   0.00000  Uiso   1.00
H1136  H     0.69828   0.74414   0.27710   0.00000  Uiso   1.00
H1137  H     0.68799   0.77841   0.32251   0.00000  Uiso   1.00
H1138  H     0.95604   0.79756   0.30984   0.00000  Uiso   1.00
H1139  H     0.96677   0.76412   0.26354   0.00000  Uiso   1.00
H1140  H     0.70850   0.99951   0.36137   0.00000  Uiso   1.00
H1141  H     0.75071   0.68020   0.38587   0.00000  Uiso   1.00
H1142  H     0.71596   0.71808   0.38501   0.00000  Uiso   1.00
H1143  H     0.78718   0.72867   0.33828   0.00000  Uiso   1.00
H1144  H     0.85649   0.91184   0.04462   0.00000  Uiso   1.00
H1145  H     0.74495   0.71896   0.31407   0.00000  Uiso   1.00
H1146  H     0.76019   0.97838   0.29582   0.00000  Uiso   1.00
H1147  H     0.80244   0.98725   0.32048   0.00000  Uiso   1.00
H1148  H     0.78440   0.93253   0.14169   0.00000  Uiso   1.00
H1149  H     0.73836   0.89605   0.14048   0.00000  Uiso   1.00
H1150  H     0.75441   0.91116   0.18551   0.00000  Uiso   1.00
H1151  H     0.77325   0.83816   0.14859   0.00000  Uiso   1.00
H1152  H     0.81346   0.87423   0.16496   0.00000  Uiso   1.00
H1153  H     0.84289   0.89637   0.10114   0.00000  Uiso   1.00
H1154  H     0.79805   0.86711   0.08463   0.00000  Uiso   1.00
H1155  H     0.79062   0.69677   0.01851   0.00000  Uiso   1.00
H1156  H     0.91495   0.76351   0.12819   0.00000  Uiso   1.00
H1157  H     0.89194   0.69157   0.13017   0.00000  Uiso   1.00
H1158  H     0.87009   0.69184   0.08944   0.00000  Uiso   1.00
H1159  H     0.84565   0.71888   0.13651   0.00000  Uiso   1.00
H1160  H     0.90344   0.72153   0.44556   0.00000  Uiso   1.00
H1161  H     0.97854   0.73342   0.41950   0.00000  Uiso   1.00
H1162  H     0.97847   0.78288   0.44899   0.00000  Uiso   1.00
H1163  H     0.95522   0.77576   0.40822   0.00000  Uiso   1.00
H1164  H     0.98699   0.87866   0.05638   0.00000  Uiso   1.00
H1165  H     0.95668   0.84569   0.02738   0.00000  Uiso   1.00
H1166  H     0.80801   0.69843   0.06256   0.00000  Uiso   1.00
H1167  H     0.96726   0.90015   0.02141   0.00000  Uiso   1.00
H1168  H     0.68012   0.85676   0.46651   0.00000  Uiso   1.00
H1169  H     0.70042   0.83568   0.00089   0.00000  Uiso   1.00
H1170  H     0.72590   0.90590   0.02458   0.00000  Uiso   1.00
H1171  H     0.71118   0.92842   0.48779   0.00000  Uiso   1.00
H1172  H     0.72584   0.86649   0.38872   0.00000  Uiso   1.00
H1173  H     0.70420   0.93446   0.39371   0.00000  Uiso   1.00
H1174  H     0.76171   0.93810   0.37634   0.00000  Uiso   1.00
H1175  H     0.73592   0.95328   0.42729   0.00000  Uiso   1.00
H1176  H     0.88471   0.75865   0.40477   0.00000  Uiso   1.00
H1177  H     0.84340   0.71763   0.01881   0.00000  Uiso   1.00
H1178  H     0.81414   0.73124   0.40445   0.00000  Uiso   1.00
H1179  H     0.79312   0.76270   0.44983   0.00000  Uiso   1.00
H1180  H     0.82340   0.71965   0.44915   0.00000  Uiso   1.00
H1181  H     0.86050   0.98117   0.02963   0.00000  Uiso   1.00
H1182  H     0.84864   0.98203   0.48343   0.00000  Uiso   1.00
H1183  H     0.77341   0.95797   0.01405   0.00000  Uiso   1.00
N1184  N     0.93179   0.73588   0.02389   0.00000  Uiso   1.00
N1185  N     0.68409   0.88142   0.22724   0.00000  Uiso   1.00
N1186  N     0.90432   0.74778   0.10514   0.00000  Uiso   1.00
N1187  N     0.91937   0.74654   0.45805   0.00000  Uiso   1.00
N1188  N     0.73312   0.88872   0.40990   0.00000  Uiso   1.00
N1189  N     0.85961   0.77225   0.42486   0.00000  Uiso   1.00
O1190  O     0.83333   0.83333   0.25000   0.00000  Uiso   1.00
O1191  O     0.82360   0.79060   0.16625   0.00000  Uiso   1.00
O1192  O     0.79354   0.87313   0.33749   0.00000  Uiso   1.00
O1193  O     0.87755   0.84159   0.15877   0.00000  Uiso   1.00
O1194  O     0.83865   0.82802   0.33749   0.00000  Uiso   1.00
O1195  O     0.84515   0.74768   0.27820   0.00000  Uiso   1.00
O1196  O     0.81247   0.92803   0.26767   0.00000  Uiso   1.00
O1197  O     0.74119   0.79917   0.23607   0.00000  Uiso   1.00
O1198  O     0.93452   0.85845   0.21805   0.00000  Uiso   1.00
O1199  O     0.73656   0.85627   0.27820   0.00000  Uiso   1.00
O1200  O     0.92106   0.81944   0.26767   0.00000  Uiso   1.00
O1201  O     0.80467   0.73570   0.23607   0.00000  Uiso   1.00
O1202  O     0.87104   0.92193   0.21805   0.00000  Uiso   1.00
Zn1203 Zn    0.85910   0.80756   0.28277   0.00000  Uiso   1.00
Zn1204 Zn    0.80125   0.79044   0.22257   0.00000  Uiso   1.00
Zn1205 Zn    0.87833   0.86331   0.21188   0.00000  Uiso   1.00
Zn1206 Zn    0.79465   0.87202   0.28277   0.00000  Uiso   1.00
C1207  C     0.05282   0.15990   0.75886   0.00000  Uiso   1.00
C1208  C     0.20207   0.12882   0.95891   0.00000  Uiso   1.00
C1209  C     0.22712   0.11246   0.97831   0.00000  Uiso   1.00
C1210  C     0.28058   0.17368   0.74224   0.00000  Uiso   1.00
C1211  C     0.22223   0.12474   0.51910   0.00000  Uiso   1.00
C1212  C     0.19834   0.15934   0.53789   0.00000  Uiso   1.00
C1213  C     0.23748   0.10098   0.54196   0.00000  Uiso   1.00
C1214  C     0.22336   0.10675   0.58295   0.00000  Uiso   1.00
C1215  C     0.18424   0.16555   0.58037   0.00000  Uiso   1.00
C1216  C     0.32491   0.18009   0.74427   0.00000  Uiso   1.00
C1217  C     0.00741   0.15519   0.76346   0.00000  Uiso   1.00
C1218  C     0.10069   0.21427   0.92432   0.00000  Uiso   1.00
C1219  C     0.17717   0.32156   0.73888   0.00000  Uiso   1.00
C1220  C     0.15080   0.01363   0.76530   0.00000  Uiso   1.00
C1221  C     0.15703   0.05644   0.75846   0.00000  Uiso   1.00
C1222  C     0.17616   0.27749   0.74179   0.00000  Uiso   1.00
C1223  C     0.18792   0.14567   0.64437   0.00000  Uiso   1.00
C1224  C     0.14490   0.18710   0.85628   0.00000  Uiso   1.00
C1225  C     0.13643   0.19484   0.89932   0.00000  Uiso   1.00
C1226  C     0.19704   0.13844   0.60187   0.00000  Uiso   1.00
C1227  C     0.09807   0.22386   0.96484   0.00000  Uiso   1.00
C1228  C     0.13184   0.28354   0.52620   0.00000  Uiso   1.00
C1229  C     0.16479   0.18018   0.91593   0.00000  Uiso   1.00
C1230  C     0.16820   0.31769   0.51583   0.00000  Uiso   1.00
C1231  C     0.15137   0.02685   0.52998   0.00000  Uiso   1.00
C1232  C     0.30939   0.07986   0.52340   0.00000  Uiso   1.00
C1233  C     0.01353   0.25294   0.75351   0.00000  Uiso   1.00
C1234  C     0.31476   0.11844   0.78446   0.00000  Uiso   1.00
C1235  C     0.00633   0.09195   0.80117   0.00000  Uiso   1.00
C1236  C     0.31010   0.05710   0.82189   0.00000  Uiso   1.00
C1237  C     0.11874   0.00141   0.80337   0.00000  Uiso   1.00
C1238  C     0.09646   0.03805   0.83001   0.00000  Uiso   1.00
C1239  C     0.06593   0.02448   0.86786   0.00000  Uiso   1.00
C1240  C     0.16008   0.18653   0.95622   0.00000  Uiso   1.00
C1241  C     0.15517   0.20038   0.60133   0.00000  Uiso   1.00
C1242  C     0.12713   0.20111   0.64391   0.00000  Uiso   1.00
C1243  C     0.09919   0.23729   0.65332   0.00000  Uiso   1.00
C1244  C     0.20978   0.04407   0.61578   0.00000  Uiso   1.00
C1245  C     0.29327   0.09380   0.93235   0.00000  Uiso   1.00
C1246  C     0.05571   0.23355   0.99426   0.00000  Uiso   1.00
C1247  C     0.02142   0.19692   0.99503   0.00000  Uiso   1.00
C1248  C     0.31395   0.20609   0.52709   0.00000  Uiso   1.00
C1249  C     0.06726   0.26415   0.90140   0.00000  Uiso   1.00
C1250  C     0.15383   0.07840   0.93267   0.00000  Uiso   1.00
C1251  C     0.13318   0.21680   0.97813   0.00000  Uiso   1.00
C1252  C     0.18334   0.16628   0.97527   0.00000  Uiso   1.00
C1253  C     0.18603   0.18376   0.51308   0.00000  Uiso   1.00
C1254  C     0.17590   0.22523   0.52405   0.00000  Uiso   1.00
C1255  C     0.14584   0.24062   0.50979   0.00000  Uiso   1.00
H1256  H     0.20058   0.00067   0.71390   0.00000  Uiso   1.00
H1257  H     0.11878   0.28466   0.55861   0.00000  Uiso   1.00
H1258  H     0.25377   0.04024   0.53266   0.00000  Uiso   1.00
H1259  H     0.32883   0.05520   0.50498   0.00000  Uiso   1.00
H1260  H     0.31334   0.08272   0.55353   0.00000  Uiso   1.00
H1261  H     0.32134   0.10947   0.51066   0.00000  Uiso   1.00
H1262  H     0.01304   0.21871   0.70056   0.00000  Uiso   1.00
H1263  H     0.03591   0.27814   0.73914   0.00000  Uiso   1.00
H1264  H     0.02146   0.24915   0.78098   0.00000  Uiso   1.00
H1265  H     0.31384   0.26229   0.76089   0.00000  Uiso   1.00
H1266  H     0.28358   0.06999   0.84571   0.00000  Uiso   1.00
H1267  H     0.19243   0.16612   0.89689   0.00000  Uiso   1.00
H1268  H     0.29656   0.03556   0.80061   0.00000  Uiso   1.00
H1269  H     0.32828   0.03930   0.83490   0.00000  Uiso   1.00
H1270  H     0.03162   0.07747   0.77710   0.00000  Uiso   1.00
H1271  H     0.02132   0.11174   0.82251   0.00000  Uiso   1.00
H1272  H     0.28937   0.13089   0.80984   0.00000  Uiso   1.00
H1273  H     0.30011   0.09745   0.76354   0.00000  Uiso   1.00
H1274  H     0.04183   0.33284   0.86137   0.00000  Uiso   1.00
H1275  H     0.08404   0.01353   0.88587   0.00000  Uiso   1.00
H1276  H     0.04929   0.05142   0.88501   0.00000  Uiso   1.00
H1277  H     0.12051   0.06200   0.83828   0.00000  Uiso   1.00
H1278  H     0.18982   0.24517   0.54462   0.00000  Uiso   1.00
H1279  H     0.07828   0.05230   0.81407   0.00000  Uiso   1.00
H1280  H     0.09353   0.31172   0.79582   0.00000  Uiso   1.00
H1281  H     0.13577   0.32059   0.82048   0.00000  Uiso   1.00
H1282  H     0.11773   0.26587   0.64169   0.00000  Uiso   1.00
H1283  H     0.07170   0.22938   0.64048   0.00000  Uiso   1.00
H1284  H     0.08775   0.24449   0.68551   0.00000  Uiso   1.00
H1285  H     0.10658   0.17150   0.64859   0.00000  Uiso   1.00
H1286  H     0.14679   0.20757   0.66496   0.00000  Uiso   1.00
H1287  H     0.17622   0.22970   0.60114   0.00000  Uiso   1.00
H1288  H     0.13138   0.20044   0.58463   0.00000  Uiso   1.00
H1289  H     0.12395   0.03010   0.51851   0.00000  Uiso   1.00
H1290  H     0.24828   0.09684   0.62819   0.00000  Uiso   1.00
H1291  H     0.22527   0.02490   0.63017   0.00000  Uiso   1.00
H1292  H     0.20342   0.02517   0.58944   0.00000  Uiso   1.00
H1293  H     0.17899   0.05221   0.63651   0.00000  Uiso   1.00
H1294  H     0.23678   0.05486   0.94556   0.00000  Uiso   1.00
H1295  H     0.31188   0.06675   0.91950   0.00000  Uiso   1.00
H1296  H     0.31181   0.11622   0.94899   0.00000  Uiso   1.00
H1297  H     0.28855   0.10910   0.90822   0.00000  Uiso   1.00
H1298  H     0.32032   0.21199   0.55638   0.00000  Uiso   1.00
H1299  H     0.29001   0.17902   0.52738   0.00000  Uiso   1.00
H1300  H     0.14134   0.03177   0.56256   0.00000  Uiso   1.00
H1301  H     0.30059   0.23348   0.52141   0.00000  Uiso   1.00
H1302  H     0.01345   0.19010   0.96651   0.00000  Uiso   1.00
H1303  H     0.03375   0.16901   0.50089   0.00000  Uiso   1.00
H1304  H     0.05924   0.23923   0.52458   0.00000  Uiso   1.00
H1305  H     0.04451   0.26175   0.98779   0.00000  Uiso   1.00
H1306  H     0.05918   0.19982   0.88872   0.00000  Uiso   1.00
H1307  H     0.03753   0.26780   0.89371   0.00000  Uiso   1.00
H1308  H     0.09504   0.27144   0.87634   0.00000  Uiso   1.00
H1309  H     0.06925   0.28661   0.92729   0.00000  Uiso   1.00
H1310  H     0.21804   0.09198   0.90477   0.00000  Uiso   1.00
H1311  H     0.17673   0.05097   0.51881   0.00000  Uiso   1.00
H1312  H     0.14748   0.06458   0.90445   0.00000  Uiso   1.00
H1313  H     0.12645   0.09603   0.94983   0.00000  Uiso   1.00
H1314  H     0.15673   0.05298   0.94915   0.00000  Uiso   1.00
H1315  H     0.19384   0.31451   0.52963   0.00000  Uiso   1.00
H1316  H     0.18197   0.31537   0.98343   0.00000  Uiso   1.00
H1317  H     0.10674   0.29130   0.51405   0.00000  Uiso   1.00
N1318  N     0.26513   0.06921   0.52389   0.00000  Uiso   1.00
N1319  N     0.01743   0.21475   0.72724   0.00000  Uiso   1.00
N1320  N     0.23765   0.08111   0.60514   0.00000  Uiso   1.00
N1321  N     0.25270   0.07988   0.95805   0.00000  Uiso   1.00
N1322  N     0.06645   0.22205   0.90990   0.00000  Uiso   1.00
N1323  N     0.19294   0.10559   0.92486   0.00000  Uiso   1.00
O1324  O     0.16667   0.16667   0.75000   0.00000  Uiso   1.00
O1325  O     0.15693   0.12393   0.66625   0.00000  Uiso   1.00
O1326  O     0.12687   0.20646   0.83749   0.00000  Uiso   1.00
O1327  O     0.21088   0.17493   0.65877   0.00000  Uiso   1.00
O1328  O     0.17198   0.16135   0.83749   0.00000  Uiso   1.00
O1329  O     0.17849   0.08101   0.77820   0.00000  Uiso   1.00
O1330  O     0.14581   0.26136   0.76767   0.00000  Uiso   1.00
O1331  O     0.07452   0.13251   0.73607   0.00000  Uiso   1.00
O1332  O     0.26785   0.19179   0.71805   0.00000  Uiso   1.00
O1333  O     0.06990   0.18960   0.77820   0.00000  Uiso   1.00
O1334  O     0.25440   0.15277   0.76767   0.00000  Uiso   1.00
O1335  O     0.13800   0.06903   0.73607   0.00000  Uiso   1.00
O1336  O     0.20437   0.25527   0.71805   0.00000  Uiso   1.00
Zn1337 Zn    0.19244   0.14090   0.78277   0.00000  Uiso   1.00
Zn1338 Zn    0.13459   0.12378   0.72257   0.00000  Uiso   1.00
Zn1339 Zn    0.21166   0.19664   0.71188   0.00000  Uiso   1.00
Zn1340 Zn    0.12798   0.20535   0.78277   0.00000  Uiso   1.00
C1341  C     0.38615   0.15990   0.75886   0.00000  Uiso   1.00
C1342  C     0.53540   0.12882   0.95891   0.00000  Uiso   1.00
C1343  C     0.56045   0.11246   0.97831   0.00000  Uiso   1.00
C1344  C     0.61391   0.17368   0.74224   0.00000  Uiso   1.00
C1345  C     0.55556   0.12474   0.51910   0.00000  Uiso   1.00
C1346  C     0.53168   0.15934   0.53789   0.00000  Uiso   1.00
C1347  C     0.57081   0.10098   0.54196   0.00000  Uiso   1.00
C1348  C     0.55669   0.10675   0.58295   0.00000  Uiso   1.00
C1349  C     0.51757   0.16555   0.58037   0.00000  Uiso   1.00
C1350  C     0.65825   0.18009   0.74427   0.00000  Uiso   1.00
C1351  C     0.34075   0.15519   0.76346   0.00000  Uiso   1.00
C1352  C     0.43402   0.21427   0.92432   0.00000  Uiso   1.00
C1353  C     0.51050   0.32156   0.73888   0.00000  Uiso   1.00
C1354  C     0.48414   0.01363   0.76530   0.00000  Uiso   1.00
C1355  C     0.49036   0.05644   0.75846   0.00000  Uiso   1.00
C1356  C     0.50950   0.27749   0.74179   0.00000  Uiso   1.00
C1357  C     0.52125   0.14567   0.64437   0.00000  Uiso   1.00
C1358  C     0.47823   0.18710   0.85628   0.00000  Uiso   1.00
C1359  C     0.46976   0.19484   0.89932   0.00000  Uiso   1.00
C1360  C     0.53037   0.13844   0.60187   0.00000  Uiso   1.00
C1361  C     0.43140   0.22386   0.96484   0.00000  Uiso   1.00
C1362  C     0.46517   0.28354   0.52620   0.00000  Uiso   1.00
C1363  C     0.49812   0.18018   0.91593   0.00000  Uiso   1.00
C1364  C     0.50154   0.31769   0.51583   0.00000  Uiso   1.00
C1365  C     0.48471   0.02685   0.52998   0.00000  Uiso   1.00
C1366  C     0.64273   0.07986   0.52340   0.00000  Uiso   1.00
C1367  C     0.34686   0.25294   0.75351   0.00000  Uiso   1.00
C1368  C     0.64810   0.11844   0.78446   0.00000  Uiso   1.00
C1369  C     0.33966   0.09195   0.80117   0.00000  Uiso   1.00
C1370  C     0.64343   0.05710   0.82189   0.00000  Uiso   1.00
C1371  C     0.45207   0.00141   0.80337   0.00000  Uiso   1.00
C1372  C     0.42980   0.03805   0.83001   0.00000  Uiso   1.00
C1373  C     0.39927   0.02448   0.86786   0.00000  Uiso   1.00
C1374  C     0.49342   0.18653   0.95622   0.00000  Uiso   1.00
C1375  C     0.48850   0.20038   0.60133   0.00000  Uiso   1.00
C1376  C     0.46046   0.20111   0.64391   0.00000  Uiso   1.00
C1377  C     0.43252   0.23729   0.65332   0.00000  Uiso   1.00
C1378  C     0.54312   0.04407   0.61578   0.00000  Uiso   1.00
C1379  C     0.62660   0.09380   0.93235   0.00000  Uiso   1.00
C1380  C     0.38904   0.23355   0.99426   0.00000  Uiso   1.00
C1381  C     0.35476   0.19692   0.99503   0.00000  Uiso   1.00
C1382  C     0.64728   0.20609   0.52709   0.00000  Uiso   1.00
C1383  C     0.40060   0.26415   0.90140   0.00000  Uiso   1.00
C1384  C     0.48717   0.07840   0.93267   0.00000  Uiso   1.00
C1385  C     0.46651   0.21680   0.97813   0.00000  Uiso   1.00
C1386  C     0.51667   0.16628   0.97527   0.00000  Uiso   1.00
C1387  C     0.51936   0.18376   0.51308   0.00000  Uiso   1.00
C1388  C     0.50924   0.22523   0.52405   0.00000  Uiso   1.00
C1389  C     0.47917   0.24062   0.50979   0.00000  Uiso   1.00
H1390  H     0.53391   0.00067   0.71390   0.00000  Uiso   1.00
H1391  H     0.45212   0.28466   0.55861   0.00000  Uiso   1.00
H1392  H     0.58711   0.04024   0.53266   0.00000  Uiso   1.00
H1393  H     0.66216   0.05520   0.50498   0.00000  Uiso   1.00
H1394  H     0.64668   0.08272   0.55353   0.00000  Uiso   1.00
H1395  H     0.65467   0.10947   0.51066   0.00000  Uiso   1.00
H1396  H     0.34637   0.21871   0.70056   0.00000  Uiso   1.00
H1397  H     0.36924   0.27814   0.73914   0.00000  Uiso   1.00
H1398  H     0.35479   0.24915   0.78098   0.00000  Uiso   1.00
H1399  H     0.64717   0.26229   0.76089   0.00000  Uiso   1.00
H1400  H     0.61691   0.06999   0.84571   0.00000  Uiso   1.00
H1401  H     0.52576   0.16612   0.89689   0.00000  Uiso   1.00
H1402  H     0.62989   0.03556   0.80061   0.00000  Uiso   1.00
H1403  H     0.66162   0.03930   0.83490   0.00000  Uiso   1.00
H1404  H     0.36495   0.07747   0.77710   0.00000  Uiso   1.00
H1405  H     0.35466   0.11174   0.82251   0.00000  Uiso   1.00
H1406  H     0.62271   0.13089   0.80984   0.00000  Uiso   1.00
H1407  H     0.63344   0.09745   0.76354   0.00000  Uiso   1.00
H1408  H     0.37517   0.33284   0.86137   0.00000  Uiso   1.00
H1409  H     0.41737   0.01353   0.88587   0.00000  Uiso   1.00
H1410  H     0.38263   0.05142   0.88501   0.00000  Uiso   1.00
H1411  H     0.45385   0.06200   0.83828   0.00000  Uiso   1.00
H1412  H     0.52316   0.24517   0.54462   0.00000  Uiso   1.00
H1413  H     0.41161   0.05230   0.81407   0.00000  Uiso   1.00
H1414  H     0.42686   0.31172   0.79582   0.00000  Uiso   1.00
H1415  H     0.46910   0.32059   0.82048   0.00000  Uiso   1.00
H1416  H     0.45106   0.26587   0.64169   0.00000  Uiso   1.00
H1417  H     0.40503   0.22938   0.64048   0.00000  Uiso   1.00
H1418  H     0.42108   0.24449   0.68551   0.00000  Uiso   1.00
H1419  H     0.43991   0.17150   0.64859   0.00000  Uiso   1.00
H1420  H     0.48013   0.20757   0.66496   0.00000  Uiso   1.00
H1421  H     0.50955   0.22970   0.60114   0.00000  Uiso   1.00
H1422  H     0.46472   0.20044   0.58463   0.00000  Uiso   1.00
H1423  H     0.45729   0.03010   0.51851   0.00000  Uiso   1.00
H1424  H     0.58161   0.09684   0.62819   0.00000  Uiso   1.00
H1425  H     0.55860   0.02490   0.63017   0.00000  Uiso   1.00
H1426  H     0.53676   0.02517   0.58944   0.00000  Uiso   1.00
H1427  H     0.51232   0.05221   0.63651   0.00000  Uiso   1.00
H1428  H     0.57011   0.05486   0.94556   0.00000  Uiso   1.00
H1429  H     0.64521   0.06675   0.91950   0.00000  Uiso   1.00
H1430  H     0.64514   0.11622   0.94899   0.00000  Uiso   1.00
H1431  H     0.62188   0.10910   0.90822   0.00000  Uiso   1.00
H1432  H     0.65365   0.21199   0.55638   0.00000  Uiso   1.00
H1433  H     0.62334   0.17902   0.52738   0.00000  Uiso   1.00
H1434  H     0.47468   0.03177   0.56256   0.00000  Uiso   1.00
H1435  H     0.63393   0.23348   0.52141   0.00000  Uiso   1.00
H1436  H     0.34679   0.19010   0.96651   0.00000  Uiso   1.00
H1437  H     0.36709   0.16901   0.50089   0.00000  Uiso   1.00
H1438  H     0.39257   0.23923   0.52458   0.00000  Uiso   1.00
H1439  H     0.37784   0.26175   0.98779   0.00000  Uiso   1.00
H1440  H     0.39251   0.19982   0.88872   0.00000  Uiso   1.00
H1441  H     0.37087   0.26780   0.89371   0.00000  Uiso   1.00
H1442  H     0.42838   0.27144   0.87634   0.00000  Uiso   1.00
H1443  H     0.40259   0.28661   0.92729   0.00000  Uiso   1.00
H1444  H     0.55137   0.09198   0.90477   0.00000  Uiso   1.00
H1445  H     0.51007   0.05097   0.51881   0.00000  Uiso   1.00
H1446  H     0.48081   0.06458   0.90445   0.00000  Uiso   1.00
H1447  H     0.45979   0.09603   0.94983   0.00000  Uiso   1.00
H1448  H     0.49006   0.05298   0.94915   0.00000  Uiso   1.00
H1449  H     0.52717   0.31451   0.52963   0.00000  Uiso   1.00
H1450  H     0.51530   0.31537   0.98343   0.00000  Uiso   1.00
H1451  H     0.44007   0.29130   0.51405   0.00000  Uiso   1.00
N1452  N     0.59846   0.06921   0.52389   0.00000  Uiso   1.00
N1453  N     0.35076   0.21475   0.72724   0.00000  Uiso   1.00
N1454  N     0.57099   0.08111   0.60514   0.00000  Uiso   1.00
N1455  N     0.58603   0.07988   0.95805   0.00000  Uiso   1.00
N1456  N     0.39979   0.22205   0.90990   0.00000  Uiso   1.00
N1457  N     0.52627   0.10559   0.92486   0.00000  Uiso   1.00
O1458  O     0.50000   0.16667   0.75000   0.00000  Uiso   1.00
O1459  O     0.49027   0.12393   0.66625   0.00000  Uiso   1.00
O1460  O     0.46020   0.20646   0.83749   0.00000  Uiso   1.00
O1461  O     0.54421   0.17493   0.65877   0.00000  Uiso   1.00
O1462  O     0.50532   0.16135   0.83749   0.00000  Uiso   1.00
O1463  O     0.51182   0.08101   0.77820   0.00000  Uiso   1.00
O1464  O     0.47914   0.26136   0.76767   0.00000  Uiso   1.00
O1465  O     0.40785   0.13251   0.73607   0.00000  Uiso   1.00
O1466  O     0.60119   0.19179   0.71805   0.00000  Uiso   1.00
O1467  O     0.40323   0.18960   0.77820   0.00000  Uiso   1.00
O1468  O     0.58773   0.15277   0.76767   0.00000  Uiso   1.00
O1469  O     0.47133   0.06903   0.73607   0.00000  Uiso   1.00
O1470  O     0.53771   0.25527   0.71805   0.00000  Uiso   1.00
Zn1471 Zn    0.52577   0.14090   0.78277   0.00000  Uiso   1.00
Zn1472 Zn    0.46792   0.12378   0.72257   0.00000  Uiso   1.00
Zn1473 Zn    0.54500   0.19664   0.71188   0.00000  Uiso   1.00
Zn1474 Zn    0.46131   0.20535   0.78277   0.00000  Uiso   1.00
C1475  C     0.71948   0.15990   0.75886   0.00000  Uiso   1.00
C1476  C     0.86873   0.12882   0.95891   0.00000  Uiso   1.00
C1477  C     0.89378   0.11246   0.97831   0.00000  Uiso   1.00
C1478  C     0.94725   0.17368   0.74224   0.00000  Uiso   1.00
C1479  C     0.88890   0.12474   0.51910   0.00000  Uiso   1.00
C1480  C     0.86501   0.15934   0.53789   0.00000  Uiso   1.00
C1481  C     0.90414   0.10098   0.54196   0.00000  Uiso   1.00
C1482  C     0.89003   0.10675   0.58295   0.00000  Uiso   1.00
C1483  C     0.85090   0.16555   0.58037   0.00000  Uiso   1.00
C1484  C     0.99158   0.18009   0.74427   0.00000  Uiso   1.00
C1485  C     0.67408   0.15519   0.76346   0.00000  Uiso   1.00
C1486  C     0.76736   0.21427   0.92432   0.00000  Uiso   1.00
C1487  C     0.84384   0.32156   0.73888   0.00000  Uiso   1.00
C1488  C     0.81747   0.01363   0.76530   0.00000  Uiso   1.00
C1489  C     0.82369   0.05644   0.75846   0.00000  Uiso   1.00
C1490  C     0.84283   0.27749   0.74179   0.00000  Uiso   1.00
C1491  C     0.85458   0.14567   0.64437   0.00000  Uiso   1.00
C1492  C     0.81157   0.18710   0.85628   0.00000  Uiso   1.00
C1493  C     0.80309   0.19484   0.89932   0.00000  Uiso   1.00
C1494  C     0.86371   0.13844   0.60187   0.00000  Uiso   1.00
C1495  C     0.76473   0.22386   0.96484   0.00000  Uiso   1.00
C1496  C     0.79851   0.28354   0.52620   0.00000  Uiso   1.00
C1497  C     0.83146   0.18018   0.91593   0.00000  Uiso   1.00
C1498  C     0.83487   0.31769   0.51583   0.00000  Uiso   1.00
C1499  C     0.81804   0.02685   0.52998   0.00000  Uiso   1.00
C1500  C     0.97606   0.07986   0.52340   0.00000  Uiso   1.00
C1501  C     0.68020   0.25294   0.75351   0.00000  Uiso   1.00
C1502  C     0.98143   0.11844   0.78446   0.00000  Uiso   1.00
C1503  C     0.67299   0.09195   0.80117   0.00000  Uiso   1.00
C1504  C     0.97677   0.05710   0.82189   0.00000  Uiso   1.00
C1505  C     0.78541   0.00141   0.80337   0.00000  Uiso   1.00
C1506  C     0.76313   0.03805   0.83001   0.00000  Uiso   1.00
C1507  C     0.73260   0.02448   0.86786   0.00000  Uiso   1.00
C1508  C     0.82675   0.18653   0.95622   0.00000  Uiso   1.00
C1509  C     0.82183   0.20038   0.60133   0.00000  Uiso   1.00
C1510  C     0.79379   0.20111   0.64391   0.00000  Uiso   1.00
C1511  C     0.76585   0.23729   0.65332   0.00000  Uiso   1.00
C1512  C     0.87645   0.04407   0.61578   0.00000  Uiso   1.00
C1513  C     0.95994   0.09380   0.93235   0.00000  Uiso   1.00
C1514  C     0.72238   0.23355   0.99426   0.00000  Uiso   1.00
C1515  C     0.68809   0.19692   0.99503   0.00000  Uiso   1.00
C1516  C     0.98062   0.20609   0.52709   0.00000  Uiso   1.00
C1517  C     0.73393   0.26415   0.90140   0.00000  Uiso   1.00
C1518  C     0.82050   0.07840   0.93267   0.00000  Uiso   1.00
C1519  C     0.79985   0.21680   0.97813   0.00000  Uiso   1.00
C1520  C     0.85001   0.16628   0.97527   0.00000  Uiso   1.00
C1521  C     0.85269   0.18376   0.51308   0.00000  Uiso   1.00
C1522  C     0.84257   0.22523   0.52405   0.00000  Uiso   1.00
C1523  C     0.81251   0.24062   0.50979   0.00000  Uiso   1.00
H1524  H     0.86725   0.00067   0.71390   0.00000  Uiso   1.00
H1525  H     0.78545   0.28466   0.55861   0.00000  Uiso   1.00
H1526  H     0.92044   0.04024   0.53266   0.00000  Uiso   1.00
H1527  H     0.99549   0.05520   0.50498   0.00000  Uiso   1.00
H1528  H     0.98001   0.08272   0.55353   0.00000  Uiso   1.00
H1529  H     0.98800   0.10947   0.51066   0.00000  Uiso   1.00
H1530  H     0.67971   0.21871   0.70056   0.00000  Uiso   1.00
H1531  H     0.70258   0.27814   0.73914   0.00000  Uiso   1.00
H1532  H     0.68813   0.24915   0.78098   0.00000  Uiso   1.00
H1533  H     0.98051   0.26229   0.76089   0.00000  Uiso   1.00
H1534  H     0.95025   0.06999   0.84571   0.00000  Uiso   1.00
H1535  H     0.85910   0.16612   0.89689   0.00000  Uiso   1.00
H1536  H     0.96322   0.03556   0.80061   0.00000  Uiso   1.00
H1537  H     0.99495   0.03930   0.83490   0.00000  Uiso   1.00
H1538  H     0.69828   0.07747   0.77710   0.00000  Uiso   1.00
H1539  H     0.68799   0.11174   0.82251   0.00000  Uiso   1.00
H1540  H     0.95604   0.13089   0.80984   0.00000  Uiso   1.00
H1541  H     0.96677   0.09745   0.76354   0.00000  Uiso   1.00
H1542  H     0.70850   0.33284   0.86137   0.00000  Uiso   1.00
H1543  H     0.75071   0.01353   0.88587   0.00000  Uiso   1.00
H1544  H     0.71596   0.05142   0.88501   0.00000  Uiso   1.00
H1545  H     0.78718   0.06200   0.83828   0.00000  Uiso   1.00
H1546  H     0.85649   0.24517   0.54462   0.00000  Uiso   1.00
H1547  H     0.74495   0.05230   0.81407   0.00000  Uiso   1.00
H1548  H     0.76019   0.31172   0.79582   0.00000  Uiso   1.00
H1549  H     0.80244   0.32059   0.82048   0.00000  Uiso   1.00
H1550  H     0.78440   0.26587   0.64169   0.00000  Uiso   1.00
H1551  H     0.73836   0.22938   0.64048   0.00000  Uiso   1.00
H1552  H     0.75441   0.24449   0.68551   0.00000  Uiso   1.00
H1553  H     0.77325   0.17150   0.64859   0.00000  Uiso   1.00
H1554  H     0.81346   0.20757   0.66496   0.00000  Uiso   1.00
H1555  H     0.84289   0.22970   0.60114   0.00000  Uiso   1.00
H1556  H     0.79805   0.20044   0.58463   0.00000  Uiso   1.00
H1557  H     0.79062   0.03010   0.51851   0.00000  Uiso   1.00
H1558  H     0.91495   0.09684   0.62819   0.00000  Uiso   1.00
H1559  H     0.89194   0.02490   0.63017   0.00000  Uiso   1.00
H1560  H     0.87009   0.02517   0.58944   0.00000  Uiso   1.00
H1561  H     0.84565   0.05221   0.63651   0.00000  Uiso   1.00
H1562  H     0.90344   0.05486   0.94556   0.00000  Uiso   1.00
H1563  H     0.97854   0.06675   0.91950   0.00000  Uiso   1.00
H1564  H     0.97847   0.11622   0.94899   0.00000  Uiso   1.00
H1565  H     0.95522   0.10910   0.90822   0.00000  Uiso   1.00
H1566  H     0.98699   0.21199   0.55638   0.00000  Uiso   1.00
H1567  H     0.95668   0.17902   0.52738   0.00000  Uiso   1.00
H1568  H     0.80801   0.03177   0.56256   0.00000  Uiso   1.00
H1569  H     0.96726   0.23348   0.52141   0.00000  Uiso   1.00
H1570  H     0.68012   0.19010   0.96651   0.00000  Uiso   1.00
H1571  H     0.70042   0.16901   0.50089   0.00000  Uiso   1.00
H1572  H     0.72590   0.23923   0.52458   0.00000  Uiso   1.00
H1573  H     0.71118   0.26175   0.98779   0.00000  Uiso   1.00
H1574  H     0.72584   0.19982   0.88872   0.00000  Uiso   1.00
H1575  H     0.70420   0.26780   0.89371   0.00000  Uiso   1.00
H1576  H     0.76171   0.27144   0.87634   0.00000  Uiso   1.00
H1577  H     0.73592   0.28661   0.92729   0.00000  Uiso   1.00
H1578  H     0.88471   0.09198   0.90477   0.00000  Uiso   1.00
H1579  H     0.84340   0.05097   0.51881   0.00000  Uiso   1.00
H1580  H     0.81414   0.06458   0.90445   0.00000  Uiso   1.00
H1581  H     0.79312   0.09603   0.94983   0.00000  Uiso   1.00
H1582  H     0.82340   0.05298   0.94915   0.00000  Uiso   1.00
H1583  H     0.86050   0.31451   0.52963   0.00000  Uiso   1.00
H1584  H     0.84864   0.31537   0.98343   0.00000  Uiso   1.00
H1585  H     0.77341   0.29130   0.51405   0.00000  Uiso   1.00
N1586  N     0.93179   0.06921   0.52389   0.00000  Uiso   1.00
N1587  N     0.68409   0.21475   0.72724   0.00000  Uiso   1.00
N1588  N     0.90432   0.08111   0.60514   0.00000  Uiso   1.00
N1589  N     0.91937   0.07988   0.95805   0.00000  Uiso   1.00
N1590  N     0.73312   0.22205   0.90990   0.00000  Uiso   1.00
N1591  N     0.85961   0.10559   0.92486   0.00000  Uiso   1.00
O1592  O     0.83333   0.16667   0.75000   0.00000  Uiso   1.00
O1593  O     0.82360   0.12393   0.66625   0.00000  Uiso   1.00
O1594  O     0.79354   0.20646   0.83749   0.00000  Uiso   1.00
O1595  O     0.87755   0.17493   0.65877   0.00000  Uiso   1.00
O1596  O     0.83865   0.16135   0.83749   0.00000  Uiso   1.00
O1597  O     0.84515   0.08101   0.77820   0.00000  Uiso   1.00
O1598  O     0.81247   0.26136   0.76767   0.00000  Uiso   1.00
O1599  O     0.74119   0.13251   0.73607   0.00000  Uiso   1.00
O1600  O     0.93452   0.19179   0.71805   0.00000  Uiso   1.00
O1601  O     0.73656   0.18960   0.77820   0.00000  Uiso   1.00
O1602  O     0.92106   0.15277   0.76767   0.00000  Uiso   1.00
O1603  O     0.80467   0.06903   0.73607   0.00000  Uiso   1.00
O1604  O     0.87104   0.25527   0.71805   0.00000  Uiso   1.00
Zn1605 Zn    0.85910   0.14090   0.78277   0.00000  Uiso   1.00
Zn1606 Zn    0.80125   0.12378   0.72257   0.00000  Uiso   1.00
Zn1607 Zn    0.87833   0.19664   0.71188   0.00000  Uiso   1.00
Zn1608 Zn    0.79465   0.20535   0.78277   0.00000  Uiso   1.00
C1609  C     0.05282   0.49324   0.75886   0.00000  Uiso   1.00
C1610  C     0.20207   0.46215   0.95891   0.00000  Uiso   1.00
C1611  C     0.22712   0.44579   0.97831   0.00000  Uiso   1.00
C1612  C     0.28058   0.50701   0.74224   0.00000  Uiso   1.00
C1613  C     0.22223   0.45808   0.51910   0.00000  Uiso   1.00
C1614  C     0.19834   0.49267   0.53789   0.00000  Uiso   1.00
C1615  C     0.23748   0.43431   0.54196   0.00000  Uiso   1.00
C1616  C     0.22336   0.44008   0.58295   0.00000  Uiso   1.00
C1617  C     0.18424   0.49888   0.58037   0.00000  Uiso   1.00
C1618  C     0.32491   0.51342   0.74427   0.00000  Uiso   1.00
C1619  C     0.00741   0.48853   0.76346   0.00000  Uiso   1.00
C1620  C     0.10069   0.54761   0.92432   0.00000  Uiso   1.00
C1621  C     0.17717   0.65489   0.73888   0.00000  Uiso   1.00
C1622  C     0.15080   0.34697   0.76530   0.00000  Uiso   1.00
C1623  C     0.15703   0.38978   0.75846   0.00000  Uiso   1.00
C1624  C     0.17616   0.61083   0.74179   0.00000  Uiso   1.00
C1625  C     0.18792   0.47900   0.64437   0.00000  Uiso   1.00
C1626  C     0.14490   0.52043   0.85628   0.00000  Uiso   1.00
C1627  C     0.13643   0.52817   0.89932   0.00000  Uiso   1.00
C1628  C     0.19704   0.47177   0.60187   0.00000  Uiso   1.00
C1629  C     0.09807   0.55719   0.96484   0.00000  Uiso   1.00
C1630  C     0.13184   0.61687   0.52620   0.00000  Uiso   1.00
C1631  C     0.16479   0.51352   0.91593   0.00000  Uiso   1.00
C1632  C     0.16820   0.65102   0.51583   0.00000  Uiso   1.00
C1633  C     0.15137   0.36019   0.52998   0.00000  Uiso   1.00
C1634  C     0.30939   0.41319   0.52340   0.00000  Uiso   1.00
C1635  C     0.01353   0.58628   0.75351   0.00000  Uiso   1.00
C1636  C     0.31476   0.45178   0.78446   0.00000  Uiso   1.00
C1637  C     0.00633   0.42528   0.80117   0.00000  Uiso   1.00
C1638  C     0.31010   0.39043   0.82189   0.00000  Uiso   1.00
C1639  C     0.11874   0.33474   0.80337   0.00000  Uiso   1.00
C1640  C     0.09646   0.37139   0.83001   0.00000  Uiso   1.00
C1641  C     0.06593   0.35781   0.86786   0.00000  Uiso   1.00
C1642  C     0.16008   0.51987   0.95622   0.00000  Uiso   1.00
C1643  C     0.15517   0.53371   0.60133   0.00000  Uiso   1.00
C1644  C     0.12713   0.53444   0.64391   0.00000  Uiso   1.00
C1645  C     0.09919   0.57062   0.65332   0.00000  Uiso   1.00
C1646  C     0.20978   0.37740   0.61578   0.00000  Uiso   1.00
C1647  C     0.29327   0.42714   0.93235   0.00000  Uiso   1.00
C1648  C     0.05571   0.56688   0.99426   0.00000  Uiso   1.00
C1649  C     0.02142   0.53025   0.99503   0.00000  Uiso   1.00
C1650  C     0.31395   0.53942   0.52709   0.00000  Uiso   1.00
C1651  C     0.06726   0.59748   0.90140   0.00000  Uiso   1.00
C1652  C     0.15383   0.41173   0.93267   0.00000  Uiso   1.00
C1653  C     0.13318   0.55014   0.97813   0.00000  Uiso   1.00
C1654  C     0.18334   0.49962   0.97527   0.00000  Uiso   1.00
C1655  C     0.18603   0.51709   0.51308   0.00000  Uiso   1.00
C1656  C     0.17590   0.55856   0.52405   0.00000  Uiso   1.00
C1657  C     0.14584   0.57395   0.50979   0.00000  Uiso   1.00
H1658  H     0.20058   0.33400   0.71390   0.00000  Uiso   1.00
H1659  H     0.11878   0.61800   0.55861   0.00000  Uiso   1.00
H1660  H     0.25377   0.37358   0.53266   0.00000  Uiso   1.00
H1661  H     0.32883   0.38854   0.50498   0.00000  Uiso   1.00
H1662  H     0.31334   0.41605   0.55353   0.00000  Uiso   1.00
H1663  H     0.32134   0.44280   0.51066   0.00000  Uiso   1.00
H1664  H     0.01304   0.55204   0.70056   0.00000  Uiso   1.00
H1665  H     0.03591   0.61148   0.73914   0.00000  Uiso   1.00
H1666  H     0.02146   0.58248   0.78098   0.00000  Uiso   1.00
H1667  H     0.31384   0.59562   0.76089   0.00000  Uiso   1.00
H1668  H     0.28358   0.40332   0.84571   0.00000  Uiso   1.00
H1669  H     0.19243   0.49945   0.89689   0.00000  Uiso   1.00
H1670  H     0.29656   0.36889   0.80061   0.00000  Uiso   1.00
H1671  H     0.32828   0.37263   0.83490   0.00000  Uiso   1.00
H1672  H     0.03162   0.41081   0.77710   0.00000  Uiso   1.00
H1673  H     0.02132   0.44507   0.82251   0.00000  Uiso   1.00
H1674  H     0.28937   0.46422   0.80984   0.00000  Uiso   1.00
H1675  H     0.30011   0.43079   0.76354   0.00000  Uiso   1.00
H1676  H     0.04183   0.66617   0.86137   0.00000  Uiso   1.00
H1677  H     0.08404   0.34687   0.88587   0.00000  Uiso   1.00
H1678  H     0.04929   0.38475   0.88501   0.00000  Uiso   1.00
H1679  H     0.12051   0.39534   0.83828   0.00000  Uiso   1.00
H1680  H     0.18982   0.57850   0.54462   0.00000  Uiso   1.00
H1681  H     0.07828   0.38563   0.81407   0.00000  Uiso   1.00
H1682  H     0.09353   0.64505   0.79582   0.00000  Uiso   1.00
H1683  H     0.13577   0.65392   0.82048   0.00000  Uiso   1.00
H1684  H     0.11773   0.59920   0.64169   0.00000  Uiso   1.00
H1685  H     0.07170   0.56271   0.64048   0.00000  Uiso   1.00
H1686  H     0.08775   0.57782   0.68551   0.00000  Uiso   1.00
H1687  H     0.10658   0.50483   0.64859   0.00000  Uiso   1.00
H1688  H     0.14679   0.54090   0.66496   0.00000  Uiso   1.00
H1689  H     0.17622   0.56303   0.60114   0.00000  Uiso   1.00
H1690  H     0.13138   0.53377   0.58463   0.00000  Uiso   1.00
H1691  H     0.12395   0.36343   0.51851   0.00000  Uiso   1.00
H1692  H     0.24828   0.43018   0.62819   0.00000  Uiso   1.00
H1693  H     0.22527   0.35823   0.63017   0.00000  Uiso   1.00
H1694  H     0.20342   0.35851   0.58944   0.00000  Uiso   1.00
H1695  H     0.17899   0.38555   0.63651   0.00000  Uiso   1.00
H1696  H     0.23678   0.38820   0.94556   0.00000  Uiso   1.00
H1697  H     0.31188   0.40009   0.91950   0.00000  Uiso   1.00
H1698  H     0.31181   0.44955   0.94899   0.00000  Uiso   1.00
H1699  H     0.28855   0.44243   0.90822   0.00000  Uiso   1.00
H1700  H     0.32032   0.54532   0.55638   0.00000  Uiso   1.00
H1701  H     0.29001   0.51236   0.52738   0.00000  Uiso   1.00
H1702  H     0.14134   0.36510   0.56256   0.00000  Uiso   1.00
H1703  H     0.30059   0.56681   0.52141   0.00000  Uiso   1.00
H1704  H     0.01345   0.52343   0.96651   0.00000  Uiso   1.00
H1705  H     0.03375   0.50234   0.50089   0.00000  Uiso   1.00
H1706  H     0.05924   0.57256   0.52458   0.00000  Uiso   1.00
H1707  H     0.04451   0.59509   0.98779   0.00000  Uiso   1.00
H1708  H     0.05918   0.53316   0.88872   0.00000  Uiso   1.00
H1709  H     0.03753   0.60113   0.89371   0.00000  Uiso   1.00
H1710  H     0.09504   0.60477   0.87634   0.00000  Uiso   1.00
H1711  H     0.06925   0.61994   0.92729   0.00000  Uiso   1.00
H1712  H     0.21804   0.42532   0.90477   0.00000  Uiso   1.00
H1713  H     0.17673   0.38430   0.51881   0.00000  Uiso   1.00
H1714  H     0.14748   0.39791   0.90445   0.00000  Uiso   1.00
H1715  H     0.12645   0.42937   0.94983   0.00000  Uiso   1.00
H1716  H     0.15673   0.38631   0.94915   0.00000  Uiso   1.00
H1717  H     0.19384   0.64784   0.52963   0.00000  Uiso   1.00
H1718  H     0.18197   0.64870   0.98343   0.00000  Uiso   1.00
H1719  H     0.10674   0.62463   0.51405   0.00000  Uiso   1.00
N1720  N     0.26513   0.40255   0.52389   0.00000  Uiso   1.00
N1721  N     0.01743   0.54809   0.72724   0.00000  Uiso   1.00
N1722  N     0.23765   0.41444   0.60514   0.00000  Uiso   1.00
N1723  N     0.25270   0.41321   0.95805   0.00000  Uiso   1.00
N1724  N     0.06645   0.55538   0.90990   0.00000  Uiso   1.00
N1725  N     0.19294   0.43892   0.92486   0.00000  Uiso   1.00
O1726  O     0.16667   0.50000   0.75000   0.00000  Uiso   1.00
O1727  O     0.15693   0.45726   0.66625   0.00000  Uiso   1.00
O1728  O     0.12687   0.53979   0.83749   0.00000  Uiso   1.00
O1729  O     0.21088   0.50826   0.65877   0.00000  Uiso   1.00
O1730  O     0.17198   0.49468   0.83749   0.00000  Uiso   1.00
O1731  O     0.17849   0.41434   0.77820   0.00000  Uiso   1.00
O1732  O     0.14581   0.59469   0.76767   0.00000  Uiso   1.00
O1733  O     0.07452   0.46584   0.73607   0.00000  Uiso   1.00
O1734  O     0.26785   0.52512   0.71805   0.00000  Uiso   1.00
O1735  O     0.06990   0.52293   0.77820   0.00000  Uiso   1.00
O1736  O     0.25440   0.48610   0.76767   0.00000  Uiso   1.00
O1737  O     0.13800   0.40236   0.73607   0.00000  Uiso   1.00
O1738  O     0.20437   0.58860   0.71805   0.00000  Uiso   1.00
Zn1739 Zn    0.19244   0.47423   0.78277   0.00000  Uiso   1.00
Zn1740 Zn    0.13459   0.45711   0.72257   0.00000  Uiso   1.00
Zn1741 Zn    0.21166   0.52997   0.71188   0.00000  Uiso   1.00
Zn1742 Zn    0.12798   0.53868   0.78277   0.00000  Uiso   1.00
C1743  C     0.38615   0.49324   0.75886   0.00000  Uiso   1.00
C1744  C     0.53540   0.46215   0.95891   0.00000  Uiso   1.00
C1745  C     0.56045   0.44579   0.97831   0.00000  Uiso   1.00
C1746  C     0.61391   0.50701   0.74224   0.00000  Uiso   1.00
C1747  C     0.55556   0.45808   0.51910   0.00000  Uiso   1.00
C1748  C     0.53168   0.49267   0.53789   0.00000  Uiso   1.00
C1749  C     0.57081   0.43431   0.54196   0.00000  Uiso   1.00
C1750  C     0.55669   0.44008   0.58295   0.00000  Uiso   1.00
C1751  C     0.51757   0.49888   0.58037   0.00000  Uiso   1.00
C1752  C     0.65825   0.51342   0.74427   0.00000  Uiso   1.00
C1753  C     0.34075   0.48853   0.76346   0.00000  Uiso   1.00
C1754  C     0.43402   0.54761   0.92432   0.00000  Uiso   1.00
C1755  C     0.51050   0.65489   0.73888   0.00000  Uiso   1.00
C1756  C     0.48414   0.34697   0.76530   0.00000  Uiso   1.00
C1757  C     0.49036   0.38978   0.75846   0.00000  Uiso   1.00
C1758  C     0.50950   0.61083   0.74179   0.00000  Uiso   1.00
C1759  C     0.52125   0.47900   0.64437   0.00000  Uiso   1.00
C1760  C     0.47823   0.52043   0.85628   0.00000  Uiso   1.00
C1761  C     0.46976   0.52817   0.89932   0.00000  Uiso   1.00
C1762  C     0.53037   0.47177   0.60187   0.00000  Uiso   1.00
C1763  C     0.43140   0.55719   0.96484   0.00000  Uiso   1.00
C1764  C     0.46517   0.61687   0.52620   0.00000  Uiso   1.00
C1765  C     0.49812   0.51352   0.91593   0.00000  Uiso   1.00
C1766  C     0.50154   0.65102   0.51583   0.00000  Uiso   1.00
C1767  C     0.48471   0.36019   0.52998   0.00000  Uiso   1.00
C1768  C     0.64273   0.41319   0.52340   0.00000  Uiso   1.00
C1769  C     0.34686   0.58628   0.75351   0.00000  Uiso   1.00
C1770  C     0.64810   0.45178   0.78446   0.00000  Uiso   1.00
C1771  C     0.33966   0.42528   0.80117   0.00000  Uiso   1.00
C1772  C     0.64343   0.39043   0.82189   0.00000  Uiso   1.00
C1773  C     0.45207   0.33474   0.80337   0.00000  Uiso   1.00
C1774  C     0.42980   0.37139   0.83001   0.00000  Uiso   1.00
C1775  C     0.39927   0.35781   0.86786   0.00000  Uiso   1.00
C1776  C     0.49342   0.51987   0.95622   0.00000  Uiso   1.00
C1777  C     0.48850   0.53371   0.60133   0.00000  Uiso   1.00
C1778  C     0.46046   0.53444   0.64391   0.00000  Uiso   1.00
C1779  C     0.43252   0.57062   0.65332   0.00000  Uiso   1.00
C1780  C     0.54312   0.37740   0.61578   0.00000  Uiso   1.00
C1781  C     0.62660   0.42714   0.93235   0.00000  Uiso   1.00
C1782  C     0.38904   0.56688   0.99426   0.00000  Uiso   1.00
C1783  C     0.35476   0.53025   0.99503   0.00000  Uiso   1.00
C1784  C     0.64728   0.53942   0.52709   0.00000  Uiso   1.00
C1785  C     0.40060   0.59748   0.90140   0.00000  Uiso   1.00
C1786  C     0.48717   0.41173   0.93267   0.00000  Uiso   1.00
C1787  C     0.46651   0.55014   0.97813   0.00000  Uiso   1.00
C1788  C     0.51667   0.49962   0.97527   0.00000  Uiso   1.00
C1789  C     0.51936   0.51709   0.51308   0.00000  Uiso   1.00
C1790  C     0.50924   0.55856   0.52405   0.00000  Uiso   1.00
C1791  C     0.47917   0.57395   0.50979   0.00000  Uiso   1.00
H1792  H     0.53391   0.33400   0.71390   0.00000  Uiso   1.00
H1793  H     0.45212   0.61800   0.55861   0.00000  Uiso   1.00
H1794  H     0.58711   0.37358   0.53266   0.00000  Uiso   1.00
H1795  H     0.66216   0.38854   0.50498   0.00000  Uiso   1.00
H1796  H     0.64668   0.41605   0.55353   0.00000  Uiso   1.00
H1797  H     0.65467   0.44280   0.51066   0.00000  Uiso   1.00
H1798  H     0.34637   0.55204   0.70056   0.00000  Uiso   1.00
H1799  H     0.36924   0.61148   0.73914   0.00000  Uiso   1.00
H1800  H     0.35479   0.58248   0.78098   0.00000  Uiso   1.00
H1801  H     0.64717   0.59562   0.76089   0.00000  Uiso   1.00
H1802  H     0.61691   0.40332   0.84571   0.00000  Uiso   1.00
H1803  H     0.52576   0.49945   0.89689   0.00000  Uiso   1.00
H1804  H     0.62989   0.36889   0.80061   0.00000  Uiso   1.00
H1805  H     0.66162   0.37263   0.83490   0.00000  Uiso   1.00
H1806  H     0.36495   0.41081   0.77710   0.00000  Uiso   1.00
H1807  H     0.35466   0.44507   0.82251   0.00000  Uiso   1.00
H1808  H     0.62271   0.46422   0.80984   0.00000  Uiso   1.00
H1809  H     0.63344   0.43079   0.76354   0.00000  Uiso   1.00
H1810  H     0.37517   0.66617   0.86137   0.00000  Uiso   1.00
H1811  H     0.41737   0.34687   0.88587   0.00000  Uiso   1.00
H1812  H     0.38263   0.38475   0.88501   0.00000  Uiso   1.00
H1813  H     0.45385   0.39534   0.83828   0.00000  Uiso   1.00
H1814  H     0.52316   0.57850   0.54462   0.00000  Uiso   1.00
H1815  H     0.41161   0.38563   0.81407   0.00000  Uiso   1.00
H1816  H     0.42686   0.64505   0.79582   0.00000  Uiso   1.00
H1817  H     0.46910   0.65392   0.82048   0.00000  Uiso   1.00
H1818  H     0.45106   0.59920   0.64169   0.00000  Uiso   1.00
H1819  H     0.40503   0.56271   0.64048   0.00000  Uiso   1.00
H1820  H     0.42108   0.57782   0.68551   0.00000  Uiso   1.00
H1821  H     0.43991   0.50483   0.64859   0.00000  Uiso   1.00
H1822  H     0.48013   0.54090   0.66496   0.00000  Uiso   1.00
H1823  H     0.50955   0.56303   0.60114   0.00000  Uiso   1.00
H1824  H     0.46472   0.53377   0.58463   0.00000  Uiso   1.00
H1825  H     0.45729   0.36343   0.51851   0.00000  Uiso   1.00
H1826  H     0.58161   0.43018   0.62819   0.00000  Uiso   1.00
H1827  H     0.55860   0.35823   0.63017   0.00000  Uiso   1.00
H1828  H     0.53676   0.35851   0.58944   0.00000  Uiso   1.00
H1829  H     0.51232   0.38555   0.63651   0.00000  Uiso   1.00
H1830  H     0.57011   0.38820   0.94556   0.00000  Uiso   1.00
H1831  H     0.64521   0.40009   0.91950   0.00000  Uiso   1.00
H1832  H     0.64514   0.44955   0.94899   0.00000  Uiso   1.00
H1833  H     0.62188   0.44243   0.90822   0.00000  Uiso   1.00
H1834  H     0.65365   0.54532   0.55638   0.00000  Uiso   1.00
H1835  H     0.62334   0.51236   0.52738   0.00000  Uiso   1.00
H1836  H     0.47468   0.36510   0.56256   0.00000  Uiso   1.00
H1837  H     0.63393   0.56681   0.52141   0.00000  Uiso   1.00
H1838  H     0.34679   0.52343   0.96651   0.00000  Uiso   1.00
H1839  H     0.36709   0.50234   0.50089   0.00000  Uiso   1.00
H1840  H     0.39257   0.57256   0.52458   0.00000  Uiso   1.00
H1841  H     0.37784   0.59509   0.98779   0.00000  Uiso   1.00
H1842  H     0.39251   0.53316   0.88872   0.00000  Uiso   1.00
H1843  H     0.37087   0.60113   0.89371   0.00000  Uiso   1.00
H1844  H     0.42838   0.60477   0.87634   0.00000  Uiso   1.00
H1845  H     0.40259   0.61994   0.92729   0.00000  Uiso   1.00
H1846  H     0.55137   0.42532   0.90477   0.00000  Uiso   1.00
H1847  H     0.51007   0.38430   0.51881   0.00000  Uiso   1.00
H1848  H     0.48081   0.39791   0.90445   0.00000  Uiso   1.00
H1849  H     0.45979   0.42937   0.94983   0.00000  Uiso   1.00
H1850  H     0.49006   0.38631   0.94915   0.00000  Uiso   1.00
H1851  H     0.52717   0.64784   0.52963   0.00000  Uiso   1.00
H1852  H     0.51530   0.64870   0.98343   0.00000  Uiso   1.00
H1853  H     0.44007   0.62463   0.51405   0.00000  Uiso   1.00
N1854  N     0.59846   0.40255   0.52389   0.00000  Uiso   1.00
N1855  N     0.35076   0.54809   0.72724   0.00000  Uiso   1.00
N1856  N     0.57099   0.41444   0.60514   0.00000  Uiso   1.00
N1857  N     0.58603   0.41321   0.95805   0.00000  Uiso   1.00
N1858  N     0.39979   0.55538   0.90990   0.00000  Uiso   1.00
N1859  N     0.52627   0.43892   0.92486   0.00000  Uiso   1.00
O1860  O     0.50000   0.50000   0.75000   0.00000  Uiso   1.00
O1861  O     0.49027   0.45726   0.66625   0.00000  Uiso   1.00
O1862  O     0.46020   0.53979   0.83749   0.00000  Uiso   1.00
O1863  O     0.54421   0.50826   0.65877   0.00000  Uiso   1.00
O1864  O     0.50532   0.49468   0.83749   0.00000  Uiso   1.00
O1865  O     0.51182   0.41434   0.77820   0.00000  Uiso   1.00
O1866  O     0.47914   0.59469   0.76767   0.00000  Uiso   1.00
O1867  O     0.40785   0.46584   0.73607   0.00000  Uiso   1.00
O1868  O     0.60119   0.52512   0.71805   0.00000  Uiso   1.00
O1869  O     0.40323   0.52293   0.77820   0.00000  Uiso   1.00
O1870  O     0.58773   0.48610   0.76767   0.00000  Uiso   1.00
O1871  O     0.47133   0.40236   0.73607   0.00000  Uiso   1.00
O1872  O     0.53771   0.58860   0.71805   0.00000  Uiso   1.00
Zn1873 Zn    0.52577   0.47423   0.78277   0.00000  Uiso   1.00
Zn1874 Zn    0.46792   0.45711   0.72257   0.00000  Uiso   1.00
Zn1875 Zn    0.54500   0.52997   0.71188   0.00000  Uiso   1.00
Zn1876 Zn    0.46131   0.53868   0.78277   0.00000  Uiso   1.00
C1877  C     0.71948   0.49324   0.75886   0.00000  Uiso   1.00
C1878  C     0.86873   0.46215   0.95891   0.00000  Uiso   1.00
C1879  C     0.89378   0.44579   0.97831   0.00000  Uiso   1.00
C1880  C     0.94725   0.50701   0.74224   0.00000  Uiso   1.00
C1881  C     0.88890   0.45808   0.51910   0.00000  Uiso   1.00
C1882  C     0.86501   0.49267   0.53789   0.00000  Uiso   1.00
C1883  C     0.90414   0.43431   0.54196   0.00000  Uiso   1.00
C1884  C     0.89003   0.44008   0.58295   0.00000  Uiso   1.00
C1885  C     0.85090   0.49888   0.58037   0.00000  Uiso   1.00
C1886  C     0.99158   0.51342   0.74427   0.00000  Uiso   1.00
C1887  C     0.67408   0.48853   0.76346   0.00000  Uiso   1.00
C1888  C     0.76736   0.54761   0.92432   0.00000  Uiso   1.00
C1889  C     0.84384   0.65489   0.73888   0.00000  Uiso   1.00
C1890  C     0.81747   0.34697   0.76530   0.00000  Uiso   1.00
C1891  C     0.82369   0.38978   0.75846   0.00000  Uiso   1.00
C1892  C     0.84283   0.61083   0.74179   0.00000  Uiso   1.00
C1893  C     0.85458   0.47900   0.64437   0.00000  Uiso   1.00
C1894  C     0.81157   0.52043   0.85628   0.00000  Uiso   1.00
C1895  C     0.80309   0.52817   0.89932   0.00000  Uiso   1.00
C1896  C     0.86371   0.47177   0.60187   0.00000  Uiso   1.00
C1897  C     0.76473   0.55719   0.96484   0.00000  Uiso   1.00
C1898  C     0.79851   0.61687   0.52620   0.00000  Uiso   1.00
C1899  C     0.83146   0.51352   0.91593   0.00000  Uiso   1.00
C1900  C     0.83487   0.65102   0.51583   0.00000  Uiso   1.00
C1901  C     0.81804   0.36019   0.52998   0.00000  Uiso   1.00
C1902  C     0.97606   0.41319   0.52340   0.00000  Uiso   1.00
C1903  C     0.68020   0.58628   0.75351   0.00000  Uiso   1.00
C1904  C     0.98143   0.45178   0.78446   0.00000  Uiso   1.00
C1905  C     0.67299   0.42528   0.80117   0.00000  Uiso   1.00
C1906  C     0.97677   0.39043   0.82189   0.00000  Uiso   1.00
C1907  C     0.78541   0.33474   0.80337   0.00000  Uiso   1.00
C1908  C     0.76313   0.37139   0.83001   0.00000  Uiso   1.00
C1909  C     0.73260   0.35781   0.86786   0.00000  Uiso   1.00
C1910  C     0.82675   0.51987   0.95622   0.00000  Uiso   1.00
C1911  C     0.82183   0.53371   0.60133   0.00000  Uiso   1.00
C1912  C     0.79379   0.53444   0.64391   0.00000  Uiso   1.00
C1913  C     0.76585   0.57062   0.65332   0.00000  Uiso   1.00
C1914  C     0.87645   0.37740   0.61578   0.00000  Uiso   1.00
C1915  C     0.95994   0.42714   0.93235   0.00000  Uiso   1.00
C1916  C     0.72238   0.56688   0.99426   0.00000  Uiso   1.00
C1917  C     0.68809   0.53025   0.99503   0.00000  Uiso   1.00
C1918  C     0.98062   0.53942   0.52709   0.00000  Uiso   1.00
C1919  C     0.73393   0.59748   0.90140   0.00000  Uiso   1.00
C1920  C     0.82050   0.41173   0.93267   0.00000  Uiso   1.00
C1921  C     0.79985   0.55014   0.97813   0.00000  Uiso   1.00
C1922  C     0.85001   0.49962   0.97527   0.00000  Uiso   1.00
C1923  C     0.85269   0.51709   0.51308   0.00000  Uiso   1.00
C1924  C     0.84257   0.55856   0.52405   0.00000  Uiso   1.00
C1925  C     0.81251   0.57395   0.50979   0.00000  Uiso   1.00
H1926  H     0.86725   0.33400   0.71390   0.00000  Uiso   1.00
H1927  H     0.78545   0.61800   0.55861   0.00000  Uiso   1.00
H1928  H     0.92044   0.37358   0.53266   0.00000  Uiso   1.00
H1929  H     0.99549   0.38854   0.50498   0.00000  Uiso   1.00
H1930  H     0.98001   0.41605   0.55353   0.00000  Uiso   1.00
H1931  H     0.98800   0.44280   0.51066   0.00000  Uiso   1.00
H1932  H     0.67971   0.55204   0.70056   0.00000  Uiso   1.00
H1933  H     0.70258   0.61148   0.73914   0.00000  Uiso   1.00
H1934  H     0.68813   0.58248   0.78098   0.00000  Uiso   1.00
H1935  H     0.98051   0.59562   0.76089   0.00000  Uiso   1.00
H1936  H     0.95025   0.40332   0.84571   0.00000  Uiso   1.00
H1937  H     0.85910   0.49945   0.89689   0.00000  Uiso   1.00
H1938  H     0.96322   0.36889   0.80061   0.00000  Uiso   1.00
H1939  H     0.99495   0.37263   0.83490   0.00000  Uiso   1.00
H1940  H     0.69828   0.41081   0.77710   0.00000  Uiso   1.00
H1941  H     0.68799   0.44507   0.82251   0.00000  Uiso   1.00
H1942  H     0.95604   0.46422   0.80984   0.00000  Uiso   1.00
H1943  H     0.96677   0.43079   0.76354   0.00000  Uiso   1.00
H1944  H     0.70850   0.66617   0.86137   0.00000  Uiso   1.00
H1945  H     0.75071   0.34687   0.88587   0.00000  Uiso   1.00
H1946  H     0.71596   0.38475   0.88501   0.00000  Uiso   1.00
H1947  H     0.78718   0.39534   0.83828   0.00000  Uiso   1.00
H1948  H     0.85649   0.57850   0.54462   0.00000  Uiso   1.00
H1949  H     0.74495   0.38563   0.81407   0.00000  Uiso   1.00
H1950  H     0.76019   0.64505   0.79582   0.00000  Uiso   1.00
H1951  H     0.80244   0.65392   0.82048   0.00000  Uiso   1.00
H1952  H     0.78440   0.59920   0.64169   0.00000  Uiso   1.00
H1953  H     0.73836   0.56271   0.64048   0.00000  Uiso   1.00
H1954  H     0.75441   0.57782   0.68551   0.00000  Uiso   1.00
H1955  H     0.77325   0.50483   0.64859   0.00000  Uiso   1.00
H1956  H     0.81346   0.54090   0.66496   0.00000  Uiso   1.00
H1957  H     0.84289   0.56303   0.60114   0.00000  Uiso   1.00
H1958  H     0.79805   0.53377   0.58463   0.00000  Uiso   1.00
H1959  H     0.79062   0.36343   0.51851   0.00000  Uiso   1.00
H1960  H     0.91495   0.43018   0.62819   0.00000  Uiso   1.00
H1961  H     0.89194   0.35823   0.63017   0.00000  Uiso   1.00
H1962  H     0.87009   0.35851   0.58944   0.00000  Uiso   1.00
H1963  H     0.84565   0.38555   0.63651   0.00000  Uiso   1.00
H1964  H     0.90344   0.38820   0.94556   0.00000  Uiso   1.00
H1965  H     0.97854   0.40009   0.91950   0.00000  Uiso   1.00
H1966  H     0.97847   0.44955   0.94899   0.00000  Uiso   1.00
H1967  H     0.95522   0.44243   0.90822   0.00000  Uiso   1.00
H1968  H     0.98699   0.54532   0.55638   0.00000  Uiso   1.00
H1969  H     0.95668   0.51236   0.52738   0.00000  Uiso   1.00
H1970  H     0.80801   0.36510   0.56256   0.00000  Uiso   1.00
H1971  H     0.96726   0.56681   0.52141   0.00000  Uiso   1.00
H1972  H     0.68012   0.52343   0.96651   0.00000  Uiso   1.00
H1973  H     0.70042   0.50234   0.50089   0.00000  Uiso   1.00
H1974  H     0.72590   0.57256   0.52458   0.00000  Uiso   1.00
H1975  H     0.71118   0.59509   0.98779   0.00000  Uiso   1.00
H1976  H     0.72584   0.53316   0.88872   0.00000  Uiso   1.00
H1977  H     0.70420   0.60113   0.89371   0.00000  Uiso   1.00
H1978  H     0.76171   0.60477   0.87634   0.00000  Uiso   1.00
H1979  H     0.73592   0.61994   0.92729   0.00000  Uiso   1.00
H1980  H     0.88471   0.42532   0.90477   0.00000  Uiso   1.00
H1981  H     0.84340   0.38430   0.51881   0.00000  Uiso   1.00
H1982  H     0.81414   0.39791   0.90445   0.00000  Uiso   1.00
H1983  H     0.79312   0.42937   0.94983   0.00000  Uiso   1.00
H1984  H     0.82340   0.38631   0.94915   0.00000  Uiso   1.00
H1985  H     0.86050   0.64784   0.52963   0.00000  Uiso   1.00
H1986  H     0.84864   0.64870   0.98343   0.00000  Uiso   1.00
H1987  H     0.77341   0.62463   0.51405   0.00000  Uiso   1.00
N1988  N     0.93179   0.40255   0.52389   0.00000  Uiso   1.00
N1989  N     0.68409   0.54809   0.72724   0.00000  Uiso   1.00
N1990  N     0.90432   0.41444   0.60514   0.00000  Uiso   1.00
N1991  N     0.91937   0.41321   0.95805   0.00000  Uiso   1.00
N1992  N     0.73312   0.55538   0.90990   0.00000  Uiso   1.00
N1993  N     0.85961   0.43892   0.92486   0.00000  Uiso   1.00
O1994  O     0.83333   0.50000   0.75000   0.00000  Uiso   1.00
O1995  O     0.82360   0.45726   0.66625   0.00000  Uiso   1.00
O1996  O     0.79354   0.53979   0.83749   0.00000  Uiso   1.00
O1997  O     0.87755   0.50826   0.65877   0.00000  Uiso   1.00
O1998  O     0.83865   0.49468   0.83749   0.00000  Uiso   1.00
O1999  O     0.84515   0.41434   0.77820   0.00000  Uiso   1.00
O2000  O     0.81247   0.59469   0.76767   0.00000  Uiso   1.00
O2001  O     0.74119   0.46584   0.73607   0.00000  Uiso   1.00
O2002  O     0.93452   0.52512   0.71805   0.00000  Uiso   1.00
O2003  O     0.73656   0.52293   0.77820   0.00000  Uiso   1.00
O2004  O     0.92106   0.48610   0.76767   0.00000  Uiso   1.00
O2005  O     0.80467   0.40236   0.73607   0.00000  Uiso   1.00
O2006  O     0.87104   0.58860   0.71805   0.00000  Uiso   1.00
Zn2007 Zn    0.85910   0.47423   0.78277   0.00000  Uiso   1.00
Zn2008 Zn    0.80125   0.45711   0.72257   0.00000  Uiso   1.00
Zn2009 Zn    0.87833   0.52997   0.71188   0.00000  Uiso   1.00
Zn2010 Zn    0.79465   0.53868   0.78277   0.00000  Uiso   1.00
C2011  C     0.05282   0.82657   0.75886   0.00000  Uiso   1.00
C2012  C     0.20207   0.79549   0.95891   0.00000  Uiso   1.00
C2013  C     0.22712   0.77913   0.97831   0.00000  Uiso   1.00
C2014  C     0.28058   0.84035   0.74224   0.00000  Uiso   1.00
C2015  C     0.22223   0.79141   0.51910   0.00000  Uiso   1.00
C2016  C     0.19834   0.82600   0.53789   0.00000  Uiso   1.00
C2017  C     0.23748   0.76765   0.54196   0.00000  Uiso   1.00
C2018  C     0.22336   0.77342   0.58295   0.00000  Uiso   1.00
C2019  C     0.18424   0.83222   0.58037   0.00000  Uiso   1.00
C2020  C     0.32491   0.84675   0.74427   0.00000  Uiso   1.00
C2021  C     0.00741   0.82186   0.76346   0.00000  Uiso   1.00
C2022  C     0.10069   0.88094   0.92432   0.00000  Uiso   1.00
C2023  C     0.17717   0.98823   0.73888   0.00000  Uiso   1.00
C2024  C     0.15080   0.68030   0.76530   0.00000  Uiso   1.00
C2025  C     0.15703   0.72311   0.75846   0.00000  Uiso   1.00
C2026  C     0.17616   0.94416   0.74179   0.00000  Uiso   1.00
C2027  C     0.18792   0.81234   0.64437   0.00000  Uiso   1.00
C2028  C     0.14490   0.85377   0.85628   0.00000  Uiso   1.00
C2029  C     0.13643   0.86151   0.89932   0.00000  Uiso   1.00
C2030  C     0.19704   0.80511   0.60187   0.00000  Uiso   1.00
C2031  C     0.09807   0.89052   0.96484   0.00000  Uiso   1.00
C2032  C     0.13184   0.95021   0.52620   0.00000  Uiso   1.00
C2033  C     0.16479   0.84685   0.91593   0.00000  Uiso   1.00
C2034  C     0.16820   0.98435   0.51583   0.00000  Uiso   1.00
C2035  C     0.15137   0.69352   0.52998   0.00000  Uiso   1.00
C2036  C     0.30939   0.74652   0.52340   0.00000  Uiso   1.00
C2037  C     0.01353   0.91961   0.75351   0.00000  Uiso   1.00
C2038  C     0.31476   0.78511   0.78446   0.00000  Uiso   1.00
C2039  C     0.00633   0.75861   0.80117   0.00000  Uiso   1.00
C2040  C     0.31010   0.72377   0.82189   0.00000  Uiso   1.00
C2041  C     0.11874   0.66807   0.80337   0.00000  Uiso   1.00
C2042  C     0.09646   0.70472   0.83001   0.00000  Uiso   1.00
C2043  C     0.06593   0.69114   0.86786   0.00000  Uiso   1.00
C2044  C     0.16008   0.85320   0.95622   0.00000  Uiso   1.00
C2045  C     0.15517   0.86704   0.60133   0.00000  Uiso   1.00
C2046  C     0.12713   0.86777   0.64391   0.00000  Uiso   1.00
C2047  C     0.09919   0.90396   0.65332   0.00000  Uiso   1.00
C2048  C     0.20978   0.71074   0.61578   0.00000  Uiso   1.00
C2049  C     0.29327   0.76047   0.93235   0.00000  Uiso   1.00
C2050  C     0.05571   0.90021   0.99426   0.00000  Uiso   1.00
C2051  C     0.02142   0.86359   0.99503   0.00000  Uiso   1.00
C2052  C     0.31395   0.87275   0.52709   0.00000  Uiso   1.00
C2053  C     0.06726   0.93082   0.90140   0.00000  Uiso   1.00
C2054  C     0.15383   0.74507   0.93267   0.00000  Uiso   1.00
C2055  C     0.13318   0.88347   0.97813   0.00000  Uiso   1.00
C2056  C     0.18334   0.83295   0.97527   0.00000  Uiso   1.00
C2057  C     0.18603   0.85042   0.51308   0.00000  Uiso   1.00
C2058  C     0.17590   0.89189   0.52405   0.00000  Uiso   1.00
C2059  C     0.14584   0.90728   0.50979   0.00000  Uiso   1.00
H2060  H     0.20058   0.66733   0.71390   0.00000  Uiso   1.00
H2061  H     0.11878   0.95133   0.55861   0.00000  Uiso   1.00
H2062  H     0.25377   0.70691   0.53266   0.00000  Uiso   1.00
H2063  H     0.32883   0.72187   0.50498   0.00000  Uiso   1.00
H2064  H     0.31334   0.74939   0.55353   0.00000  Uiso   1.00
H2065  H     0.32134   0.77613   0.51066   0.00000  Uiso   1.00
H2066  H     0.01304   0.88538   0.70056   0.00000  Uiso   1.00
H2067  H     0.03591   0.94481   0.73914   0.00000  Uiso   1.00
H2068  H     0.02146   0.91581   0.78098   0.00000  Uiso   1.00
H2069  H     0.31384   0.92895   0.76089   0.00000  Uiso   1.00
H2070  H     0.28358   0.73665   0.84571   0.00000  Uiso   1.00
H2071  H     0.19243   0.83278   0.89689   0.00000  Uiso   1.00
H2072  H     0.29656   0.70223   0.80061   0.00000  Uiso   1.00
H2073  H     0.32828   0.70597   0.83490   0.00000  Uiso   1.00
H2074  H     0.03162   0.74414   0.77710   0.00000  Uiso   1.00
H2075  H     0.02132   0.77841   0.82251   0.00000  Uiso   1.00
H2076  H     0.28937   0.79756   0.80984   0.00000  Uiso   1.00
H2077  H     0.30011   0.76412   0.76354   0.00000  Uiso   1.00
H2078  H     0.04183   0.99951   0.86137   0.00000  Uiso   1.00
H2079  H     0.08404   0.68020   0.88587   0.00000  Uiso   1.00
H2080  H     0.04929   0.71808   0.88501   0.00000  Uiso   1.00
H2081  H     0.12051   0.72867   0.83828   0.00000  Uiso   1.00
H2082  H     0.18982   0.91184   0.54462   0.00000  Uiso   1.00
H2083  H     0.07828   0.71896   0.81407   0.00000  Uiso   1.00
H2084  H     0.09353   0.97838   0.79582   0.00000  Uiso   1.00
H2085  H     0.13577   0.98725   0.82048   0.00000  Uiso   1.00
H2086  H     0.11773   0.93253   0.64169   0.00000  Uiso   1.00
H2087  H     0.07170   0.89605   0.64048   0.00000  Uiso   1.00
H2088  H     0.08775   0.91116   0.68551   0.00000  Uiso   1.00
H2089  H     0.10658   0.83816   0.64859   0.00000  Uiso   1.00
H2090  H     0.14679   0.87423   0.66496   0.00000  Uiso   1.00
H2091  H     0.17622   0.89637   0.60114   0.00000  Uiso   1.00
H2092  H     0.13138   0.86711   0.58463   0.00000  Uiso   1.00
H2093  H     0.12395   0.69677   0.51851   0.00000  Uiso   1.00
H2094  H     0.24828   0.76351   0.62819   0.00000  Uiso   1.00
H2095  H     0.22527   0.69157   0.63017   0.00000  Uiso   1.00
H2096  H     0.20342   0.69184   0.58944   0.00000  Uiso   1.00
H2097  H     0.17899   0.71888   0.63651   0.00000  Uiso   1.00
H2098  H     0.23678   0.72153   0.94556   0.00000  Uiso   1.00
H2099  H     0.31188   0.73342   0.91950   0.00000  Uiso   1.00
H2100  H     0.31181   0.78288   0.94899   0.00000  Uiso   1.00
H2101  H     0.28855   0.77576   0.90822   0.00000  Uiso   1.00
H2102  H     0.32032   0.87866   0.55638   0.00000  Uiso   1.00
H2103  H     0.29001   0.84569   0.52738   0.00000  Uiso   1.00
H2104  H     0.14134   0.69843   0.56256   0.00000  Uiso   1.00
H2105  H     0.30059   0.90015   0.52141   0.00000  Uiso   1.00
H2106  H     0.01345   0.85676   0.96651   0.00000  Uiso   1.00
H2107  H     0.03375   0.83568   0.50089   0.00000  Uiso   1.00
H2108  H     0.05924   0.90590   0.52458   0.00000  Uiso   1.00
H2109  H     0.04451   0.92842   0.98779   0.00000  Uiso   1.00
H2110  H     0.05918   0.86649   0.88872   0.00000  Uiso   1.00
H2111  H     0.03753   0.93446   0.89371   0.00000  Uiso   1.00
H2112  H     0.09504   0.93810   0.87634   0.00000  Uiso   1.00
H2113  H     0.06925   0.95328   0.92729   0.00000  Uiso   1.00
H2114  H     0.21804   0.75865   0.90477   0.00000  Uiso   1.00
H2115  H     0.17673   0.71763   0.51881   0.00000  Uiso   1.00
H2116  H     0.14748   0.73124   0.90445   0.00000  Uiso   1.00
H2117  H     0.12645   0.76270   0.94983   0.00000  Uiso   1.00
H2118  H     0.15673   0.71965   0.94915   0.00000  Uiso   1.00
H2119  H     0.19384   0.98117   0.52963   0.00000  Uiso   1.00
H2120  H     0.18197   0.98203   0.98343   0.00000  Uiso   1.00
H2121  H     0.10674   0.95797   0.51405   0.00000  Uiso   1.00
N2122  N     0.26513   0.73588   0.52389   0.00000  Uiso   1.00
N2123  N     0.01743   0.88142   0.72724   0.00000  Uiso   1.00
N2124  N     0.23765   0.74778   0.60514   0.00000  Uiso   1.00
N2125  N     0.25270   0.74654   0.95805   0.00000  Uiso   1.00
N2126  N     0.06645   0.88872   0.90990   0.00000  Uiso   1.00
N2127  N     0.19294   0.77225   0.92486   0.00000  Uiso   1.00
O2128  O     0.16667   0.83333   0.75000   0.00000  Uiso   1.00
O2129  O     0.15693   0.79060   0.66625   0.00000  Uiso   1.00
O2130  O     0.12687   0.87313   0.83749   0.00000  Uiso   1.00
O2131  O     0.21088   0.84159   0.65877   0.00000  Uiso   1.00
O2132  O     0.17198   0.82802   0.83749   0.00000  Uiso   1.00
O2133  O     0.17849   0.74768   0.77820   0.00000  Uiso   1.00
O2134  O     0.14581   0.92803   0.76767   0.00000  Uiso   1.00
O2135  O     0.07452   0.79917   0.73607   0.00000  Uiso   1.00
O2136  O     0.26785   0.85845   0.71805   0.00000  Uiso   1.00
O2137  O     0.06990   0.85627   0.77820   0.00000  Uiso   1.00
O2138  O     0.25440   0.81944   0.76767   0.00000  Uiso   1.00
O2139  O     0.13800   0.73570   0.73607   0.00000  Uiso   1.00
O2140  O     0.20437   0.92193   0.71805   0.00000  Uiso   1.00
Zn2141 Zn    0.19244   0.80756   0.78277   0.00000  Uiso   1.00
Zn2142 Zn    0.13459   0.79044   0.72257   0.00000  Uiso   1.00
Zn2143 Zn    0.21166   0.86331   0.71188   0.00000  Uiso   1.00
Zn2144 Zn    0.12798   0.87202   0.78277   0.00000  Uiso   1.00
C2145  C     0.38615   0.82657   0.75886   0.00000  Uiso   1.00
C2146  C     0.53540   0.79549   0.95891   0.00000  Uiso   1.00
C2147  C     0.56045   0.77913   0.97831   0.00000  Uiso   1.00
C2148  C     0.61391   0.84035   0.74224   0.00000  Uiso   1.00
C2149  C     0.55556   0.79141   0.51910   0.00000  Uiso   1.00
C2150  C     0.53168   0.82600   0.53789   0.00000  Uiso   1.00
C2151  C     0.57081   0.76765   0.54196   0.00000  Uiso   1.00
C2152  C     0.55669   0.77342   0.58295   0.00000  Uiso   1.00
C2153  C     0.51757   0.83222   0.58037   0.00000  Uiso   1.00
C2154  C     0.65825   0.84675   0.74427   0.00000  Uiso   1.00
C2155  C     0.34075   0.82186   0.76346   0.00000  Uiso   1.00
C2156  C     0.43402   0.88094   0.92432   0.00000  Uiso   1.00
C2157  C     0.51050   0.98823   0.73888   0.00000  Uiso   1.00
C2158  C     0.48414   0.68030   0.76530   0.00000  Uiso   1.00
C2159  C     0.49036   0.72311   0.75846   0.00000  Uiso   1.00
C2160  C     0.50950   0.94416   0.74179   0.00000  Uiso   1.00
C2161  C     0.52125   0.81234   0.64437   0.00000  Uiso   1.00
C2162  C     0.47823   0.85377   0.85628   0.00000  Uiso   1.00
C2163  C     0.46976   0.86151   0.89932   0.00000  Uiso   1.00
C2164  C     0.53037   0.80511   0.60187   0.00000  Uiso   1.00
C2165  C     0.43140   0.89052   0.96484   0.00000  Uiso   1.00
C2166  C     0.46517   0.95021   0.52620   0.00000  Uiso   1.00
C2167  C     0.49812   0.84685   0.91593   0.00000  Uiso   1.00
C2168  C     0.50154   0.98435   0.51583   0.00000  Uiso   1.00
C2169  C     0.48471   0.69352   0.52998   0.00000  Uiso   1.00
C2170  C     0.64273   0.74652   0.52340   0.00000  Uiso   1.00
C2171  C     0.34686   0.91961   0.75351   0.00000  Uiso   1.00
C2172  C     0.64810   0.78511   0.78446   0.00000  Uiso   1.00
C2173  C     0.33966   0.75861   0.80117   0.00000  Uiso   1.00
C2174  C     0.64343   0.72377   0.82189   0.00000  Uiso   1.00
C2175  C     0.45207   0.66807   0.80337   0.00000  Uiso   1.00
C2176  C     0.42980   0.70472   0.83001   0.00000  Uiso   1.00
C2177  C     0.39927   0.69114   0.86786   0.00000  Uiso   1.00
C2178  C     0.49342   0.85320   0.95622   0.00000  Uiso   1.00
C2179  C     0.48850   0.86704   0.60133   0.00000  Uiso   1.00
C2180  C     0.46046   0.86777   0.64391   0.00000  Uiso   1.00
C2181  C     0.43252   0.90396   0.65332   0.00000  Uiso   1.00
C2182  C     0.54312   0.71074   0.61578   0.00000  Uiso   1.00
C2183  C     0.62660   0.76047   0.93235   0.00000  Uiso   1.00
C2184  C     0.38904   0.90021   0.99426   0.00000  Uiso   1.00
C2185  C     0.35476   0.86359   0.99503   0.00000  Uiso   1.00
C2186  C     0.64728   0.87275   0.52709   0.00000  Uiso   1.00
C2187  C     0.40060   0.93082   0.90140   0.00000  Uiso   1.00
C2188  C     0.48717   0.74507   0.93267   0.00000  Uiso   1.00
C2189  C     0.46651   0.88347   0.97813   0.00000  Uiso   1.00
C2190  C     0.51667   0.83295   0.97527   0.00000  Uiso   1.00
C2191  C     0.51936   0.85042   0.51308   0.00000  Uiso   1.00
C2192  C     0.50924   0.89189   0.52405   0.00000  Uiso   1.00
C2193  C     0.47917   0.90728   0.50979   0.00000  Uiso   1.00
H2194  H     0.53391   0.66733   0.71390   0.00000  Uiso   1.00
H2195  H     0.45212   0.95133   0.55861   0.00000  Uiso   1.00
H2196  H     0.58711   0.70691   0.53266   0.00000  Uiso   1.00
H2197  H     0.66216   0.72187   0.50498   0.00000  Uiso   1.00
H2198  H     0.64668   0.74939   0.55353   0.00000  Uiso   1.00
H2199  H     0.65467   0.77613   0.51066   0.00000  Uiso   1.00
H2200  H     0.34637   0.88538   0.70056   0.00000  Uiso   1.00
H2201  H     0.36924   0.94481   0.73914   0.00000  Uiso   1.00
H2202  H     0.35479   0.91581   0.78098   0.00000  Uiso   1.00
H2203  H     0.64717   0.92895   0.76089   0.00000  Uiso   1.00
H2204  H     0.61691   0.73665   0.84571   0.00000  Uiso   1.00
H2205  H     0.52576   0.83278   0.89689   0.00000  Uiso   1.00
H2206  H     0.62989   0.70223   0.80061   0.00000  Uiso   1.00
H2207  H     0.66162   0.70597   0.83490   0.00000  Uiso   1.00
H2208  H     0.36495   0.74414   0.77710   0.00000  Uiso   1.00
H2209  H     0.35466   0.77841   0.82251   0.00000  Uiso   1.00
H2210  H     0.62271   0.79756   0.80984   0.00000  Uiso   1.00
H2211  H     0.63344   0.76412   0.76354   0.00000  Uiso   1.00
H2212  H     0.37517   0.99951   0.86137   0.00000  Uiso   1.00
H2213  H     0.41737   0.68020   0.88587   0.00000  Uiso   1.00
H2214  H     0.38263   0.71808   0.88501   0.00000  Uiso   1.00
H2215  H     0.45385   0.72867   0.83828   0.00000  Uiso   1.00
H2216  H     0.52316   0.91184   0.54462   0.00000  Uiso   1.00
H2217  H     0.41161   0.71896   0.81407   0.00000  Uiso   1.00
H2218  H     0.42686   0.97838   0.79582   0.00000  Uiso   1.00
H2219  H     0.46910   0.98725   0.82048   0.00000  Uiso   1.00
H2220  H     0.45106   0.93253   0.64169   0.00000  Uiso   1.00
H2221  H     0.40503   0.89605   0.64048   0.00000  Uiso   1.00
H2222  H     0.42108   0.91116   0.68551   0.00000  Uiso   1.00
H2223  H     0.43991   0.83816   0.64859   0.00000  Uiso   1.00
H2224  H     0.48013   0.87423   0.66496   0.00000  Uiso   1.00
H2225  H     0.50955   0.89637   0.60114   0.00000  Uiso   1.00
H2226  H     0.46472   0.86711   0.58463   0.00000  Uiso   1.00
H2227  H     0.45729   0.69677   0.51851   0.00000  Uiso   1.00
H2228  H     0.58161   0.76351   0.62819   0.00000  Uiso   1.00
H2229  H     0.55860   0.69157   0.63017   0.00000  Uiso   1.00
H2230  H     0.53676   0.69184   0.58944   0.00000  Uiso   1.00
H2231  H     0.51232   0.71888   0.63651   0.00000  Uiso   1.00
H2232  H     0.57011   0.72153   0.94556   0.00000  Uiso   1.00
H2233  H     0.64521   0.73342   0.91950   0.00000  Uiso   1.00
H2234  H     0.64514   0.78288   0.94899   0.00000  Uiso   1.00
H2235  H     0.62188   0.77576   0.90822   0.00000  Uiso   1.00
H2236  H     0.65365   0.87866   0.55638   0.00000  Uiso   1.00
H2237  H     0.62334   0.84569   0.52738   0.00000  Uiso   1.00
H2238  H     0.47468   0.69843   0.56256   0.00000  Uiso   1.00
H2239  H     0.63393   0.90015   0.52141   0.00000  Uiso   1.00
H2240  H     0.34679   0.85676   0.96651   0.00000  Uiso   1.00
H2241  H     0.36709   0.83568   0.50089   0.00000  Uiso   1.00
H2242  H     0.39257   0.90590   0.52458   0.00000  Uiso   1.00
H2243  H     0.37784   0.92842   0.98779   0.00000  Uiso   1.00
H2244  H     0.39251   0.86649   0.88872   0.00000  Uiso   1.00
H2245  H     0.37087   0.93446   0.89371   0.00000  Uiso   1.00
H2246  H     0.42838   0.93810   0.87634   0.00000  Uiso   1.00
H2247  H     0.40259   0.95328   0.92729   0.00000  Uiso   1.00
H2248  H     0.55137   0.75865   0.90477   0.00000  Uiso   1.00
H2249  H     0.51007   0.71763   0.51881   0.00000  Uiso   1.00
H2250  H     0.48081   0.73124   0.90445   0.00000  Uiso   1.00
H2251  H     0.45979   0.76270   0.94983   0.00000  Uiso   1.00
H2252  H     0.49006   0.71965   0.94915   0.00000  Uiso   1.00
H2253  H     0.52717   0.98117   0.52963   0.00000  Uiso   1.00
H2254  H     0.51530   0.98203   0.98343   0.00000  Uiso   1.00
H2255  H     0.44007   0.95797   0.51405   0.00000  Uiso   1.00
N2256  N     0.59846   0.73588   0.52389   0.00000  Uiso   1.00
N2257  N     0.35076   0.88142   0.72724   0.00000  Uiso   1.00
N2258  N     0.57099   0.74778   0.60514   0.00000  Uiso   1.00
N2259  N     0.58603   0.74654   0.95805   0.00000  Uiso   1.00
N2260  N     0.39979   0.88872   0.90990   0.00000  Uiso   1.00
N2261  N     0.52627   0.77225   0.92486   0.00000  Uiso   1.00
O2262  O     0.50000   0.83333   0.75000   0.00000  Uiso   1.00
O2263  O     0.49027   0.79060   0.66625   0.00000  Uiso   1.00
O2264  O     0.46020   0.87313   0.83749   0.00000  Uiso   1.00
O2265  O     0.54421   0.84159   0.65877   0.00000  Uiso   1.00
O2266  O     0.50532   0.82802   0.83749   0.00000  Uiso   1.00
O2267  O     0.51182   0.74768   0.77820   0.00000  Uiso   1.00
O2268  O     0.47914   0.92803   0.76767   0.00000  Uiso   1.00
O2269  O     0.40785   0.79917   0.73607   0.00000  Uiso   1.00
O2270  O     0.60119   0.85845   0.71805   0.00000  Uiso   1.00
O2271  O     0.40323   0.85627   0.77820   0.00000  Uiso   1.00
O2272  O     0.58773   0.81944   0.76767   0.00000  Uiso   1.00
O2273  O     0.47133   0.73570   0.73607   0.00000  Uiso   1.00
O2274  O     0.53771   0.92193   0.71805   0.00000  Uiso   1.00
Zn2275 Zn    0.52577   0.80756   0.78277   0.00000  Uiso   1.00
Zn2276 Zn    0.46792   0.79044   0.72257   0.00000  Uiso   1.00
Zn2277 Zn    0.54500   0.86331   0.71188   0.00000  Uiso   1.00
Zn2278 Zn    0.46131   0.87202   0.78277   0.00000  Uiso   1.00
C2279  C     0.71948   0.82657   0.75886   0.00000  Uiso   1.00
C2280  C     0.86873   0.79549   0.95891   0.00000  Uiso   1.00
C2281  C     0.89378   0.77913   0.97831   0.00000  Uiso   1.00
C2282  C     0.94725   0.84035   0.74224   0.00000  Uiso   1.00
C2283  C     0.88890   0.79141   0.51910   0.00000  Uiso   1.00
C2284  C     0.86501   0.82600   0.53789   0.00000  Uiso   1.00
C2285  C     0.90414   0.76765   0.54196   0.00000  Uiso   1.00
C2286  C     0.89003   0.77342   0.58295   0.00000  Uiso   1.00
C2287  C     0.85090   0.83222   0.58037   0.00000  Uiso   1.00
C2288  C     0.99158   0.84675   0.74427   0.00000  Uiso   1.00
C2289  C     0.67408   0.82186   0.76346   0.00000  Uiso   1.00
C2290  C     0.76736   0.88094   0.92432   0.00000  Uiso   1.00
C2291  C     0.84384   0.98823   0.73888   0.00000  Uiso   1.00
C2292  C     0.81747   0.68030   0.76530   0.00000  Uiso   1.00
C2293  C     0.82369   0.72311   0.75846   0.00000  Uiso   1.00
C2294  C     0.84283   0.94416   0.74179   0.00000  Uiso   1.00
C2295  C     0.85458   0.81234   0.64437   0.00000  Uiso   1.00
C2296  C     0.81157   0.85377   0.85628   0.00000  Uiso   1.00
C2297  C     0.80309   0.86151   0.89932   0.00000  Uiso   1.00
C2298  C     0.86371   0.80511   0.60187   0.00000  Uiso   1.00
C2299  C     0.76473   0.89052   0.96484   0.00000  Uiso   1.00
C2300  C     0.79851   0.95021   0.52620   0.00000  Uiso   1.00
C2301  C     0.83146   0.84685   0.91593   0.00000  Uiso   1.00
C2302  C     0.83487   0.98435   0.51583   0.00000  Uiso   1.00
C2303  C     0.81804   0.69352   0.52998   0.00000  Uiso   1.00
C2304  C     0.97606   0.74652   0.52340   0.00000  Uiso   1.00
C2305  C     0.68020   0.91961   0.75351   0.00000  Uiso   1.00
C2306  C     0.98143   0.78511   0.78446   0.00000  Uiso   1.00
C2307  C     0.67299   0.75861   0.80117   0.00000  Uiso   1.00
C2308  C     0.97677   0.72377   0.82189   0.00000  Uiso   1.00
C2309  C     0.78541   0.66807   0.80337   0.00000  Uiso   1.00
C2310  C     0.76313   0.70472   0.83001   0.00000  Uiso   1.00
C2311  C     0.73260   0.69114   0.86786   0.00000  Uiso   1.00
C2312  C     0.82675   0.85320   0.95622   0.00000  Uiso   1.00
C2313  C     0.82183   0.86704   0.60133   0.00000  Uiso   1.00
C2314  C     0.79379   0.86777   0.64391   0.00000  Uiso   1.00
C2315  C     0.76585   0.90396   0.65332   0.00000  Uiso   1.00
C2316  C     0.87645   0.71074   0.61578   0.00000  Uiso   1.00
C2317  C     0.95994   0.76047   0.93235   0.00000  Uiso   1.00
C2318  C     0.72238   0.90021   0.99426   0.00000  Uiso   1.00
C2319  C     0.68809   0.86359   0.99503   0.00000  Uiso   1.00
C2320  C     0.98062   0.87275   0.52709   0.00000  Uiso   1.00
C2321  C     0.73393   0.93082   0.90140   0.00000  Uiso   1.00
C2322  C     0.82050   0.74507   0.93267   0.00000  Uiso   1.00
C2323  C     0.79985   0.88347   0.97813   0.00000  Uiso   1.00
C2324  C     0.85001   0.83295   0.97527   0.00000  Uiso   1.00
C2325  C     0.85269   0.85042   0.51308   0.00000  Uiso   1.00
C2326  C     0.84257   0.89189   0.52405   0.00000  Uiso   1.00
C2327  C     0.81251   0.90728   0.50979   0.00000  Uiso   1.00
H2328  H     0.86725   0.66733   0.71390   0.00000  Uiso   1.00
H2329  H     0.78545   0.95133   0.55861   0.00000  Uiso   1.00
H2330  H     0.92044   0.70691   0.53266   0.00000  Uiso   1.00
H2331  H     0.99549   0.72187   0.50498   0.00000  Uiso   1.00
H2332  H     0.98001   0.74939   0.55353   0.00000  Uiso   1.00
H2333  H     0.98800   0.77613   0.51066   0.00000  Uiso   1.00
H2334  H     0.67971   0.88538   0.70056   0.00000  Uiso   1.00
H2335  H     0.70258   0.94481   0.73914   0.00000  Uiso   1.00
H2336  H     0.68813   0.91581   0.78098   0.00000  Uiso   1.00
H2337  H     0.98051   0.92895   0.76089   0.00000  Uiso   1.00
H2338  H     0.95025   0.73665   0.84571   0.00000  Uiso   1.00
H2339  H     0.85910   0.83278   0.89689   0.00000  Uiso   1.00
H2340  H     0.96322   0.70223   0.80061   0.00000  Uiso   1.00
H2341  H     0.99495   0.70597   0.83490   0.00000  Uiso   1.00
H2342  H     0.69828   0.74414   0.77710   0.00000  Uiso   1.00
H2343  H     0.68799   0.77841   0.82251   0.00000  Uiso   1.00
H2344  H     0.95604   0.79756   0.80984   0.00000  Uiso   1.00
H2345  H     0.96677   0.76412   0.76354   0.00000  Uiso   1.00
H2346  H     0.70850   0.99951   0.86137   0.00000  Uiso   1.00
H2347  H     0.75071   0.68020   0.88587   0.00000  Uiso   1.00
H2348  H     0.71596   0.71808   0.88501   0.00000  Uiso   1.00
H2349  H     0.78718   0.72867   0.83828   0.00000  Uiso   1.00
H2350  H     0.85649   0.91184   0.54462   0.00000  Uiso   1.00
H2351  H     0.74495   0.71896   0.81407   0.00000  Uiso   1.00
H2352  H     0.76019   0.97838   0.79582   0.00000  Uiso   1.00
H2353  H     0.80244   0.98725   0.82048   0.00000  Uiso   1.00
H2354  H     0.78440   0.93253   0.64169   0.00000  Uiso   1.00
H2355  H     0.73836   0.89605   0.64048   0.00000  Uiso   1.00
H2356  H     0.75441   0.91116   0.68551   0.00000  Uiso   1.00
H2357  H     0.77325   0.83816   0.64859   0.00000  Uiso   1.00
H2358  H     0.81346   0.87423   0.66496   0.00000  Uiso   1.00
H2359  H     0.84289   0.89637   0.60114   0.00000  Uiso   1.00
H2360  H     0.79805   0.86711   0.58463   0.00000  Uiso   1.00
H2361  H     0.79062   0.69677   0.51851   0.00000  Uiso   1.00
H2362  H     0.91495   0.76351   0.62819   0.00000  Uiso   1.00
H2363  H     0.89194   0.69157   0.63017   0.00000  Uiso   1.00
H2364  H     0.87009   0.69184   0.58944   0.00000  Uiso   1.00
H2365  H     0.84565   0.71888   0.63651   0.00000  Uiso   1.00
H2366  H     0.90344   0.72153   0.94556   0.00000  Uiso   1.00
H2367  H     0.97854   0.73342   0.91950   0.00000  Uiso   1.00
H2368  H     0.97847   0.78288   0.94899   0.00000  Uiso   1.00
H2369  H     0.95522   0.77576   0.90822   0.00000  Uiso   1.00
H2370  H     0.98699   0.87866   0.55638   0.00000  Uiso   1.00
H2371  H     0.95668   0.84569   0.52738   0.00000  Uiso   1.00
H2372  H     0.80801   0.69843   0.56256   0.00000  Uiso   1.00
H2373  H     0.96726   0.90015   0.52141   0.00000  Uiso   1.00
H2374  H     0.68012   0.85676   0.96651   0.00000  Uiso   1.00
H2375  H     0.70042   0.83568   0.50089   0.00000  Uiso   1.00
H2376  H     0.72590   0.90590   0.52458   0.00000  Uiso   1.00
H2377  H     0.71118   0.92842   0.98779   0.00000  Uiso   1.00
H2378  H     0.72584   0.86649   0.88872   0.00000  Uiso   1.00
H2379  H     0.70420   0.93446   0.89371   0.00000  Uiso   1.00
H2380  H     0.76171   0.93810   0.87634   0.00000  Uiso   1.00
H2381  H     0.73592   0.95328   0.92729   0.00000  Uiso   1.00
H2382  H     0.88471   0.75865   0.90477   0.00000  Uiso   1.00
H2383  H     0.84340   0.71763   0.51881   0.00000  Uiso   1.00
H2384  H     0.81414   0.73124   0.90445   0.00000  Uiso   1.00
H2385  H     0.79312   0.76270   0.94983   0.00000  Uiso   1.00
H2386  H     0.82340   0.71965   0.94915   0.00000  Uiso   1.00
H2387  H     0.86050   0.98117   0.52963   0.00000  Uiso   1.00
H2388  H     0.84864   0.98203   0.98343   0.00000  Uiso   1.00
H2389  H     0.77341   0.95797   0.51405   0.00000  Uiso   1.00
N2390  N     0.93179   0.73588   0.52389   0.00000  Uiso   1.00
N2391  N     0.68409   0.88142   0.72724   0.00000  Uiso   1.00
N2392  N     0.90432   0.74778   0.60514   0.00000  Uiso   1.00
N2393  N     0.91937   0.74654   0.95805   0.00000  Uiso   1.00
N2394  N     0.73312   0.88872   0.90990   0.00000  Uiso   1.00
N2395  N     0.85961   0.77225   0.92486   0.00000  Uiso   1.00
O2396  O     0.83333   0.83333   0.75000   0.00000  Uiso   1.00
O2397  O     0.82360   0.79060   0.66625   0.00000  Uiso   1.00
O2398  O     0.79354   0.87313   0.83749   0.00000  Uiso   1.00
O2399  O     0.87755   0.84159   0.65877   0.00000  Uiso   1.00
O2400  O     0.83865   0.82802   0.83749   0.00000  Uiso   1.00
O2401  O     0.84515   0.74768   0.77820   0.00000  Uiso   1.00
O2402  O     0.81247   0.92803   0.76767   0.00000  Uiso   1.00
O2403  O     0.74119   0.79917   0.73607   0.00000  Uiso   1.00
O2404  O     0.93452   0.85845   0.71805   0.00000  Uiso   1.00
O2405  O     0.73656   0.85627   0.77820   0.00000  Uiso   1.00
O2406  O     0.92106   0.81944   0.76767   0.00000  Uiso   1.00
O2407  O     0.80467   0.73570   0.73607   0.00000  Uiso   1.00
O2408  O     0.87104   0.92193   0.71805   0.00000  Uiso   1.00
Zn2409 Zn    0.85910   0.80756   0.78277   0.00000  Uiso   1.00
Zn2410 Zn    0.80125   0.79044   0.72257   0.00000  Uiso   1.00
Zn2411 Zn    0.87833   0.86331   0.71188   0.00000  Uiso   1.00
Zn2412 Zn    0.79465   0.87202   0.78277   0.00000  Uiso   1.00
loop_
_geom_bond_atom_site_label_1
_geom_bond_atom_site_label_2
_geom_bond_distance
_geom_bond_site_symmetry_2
_ccdc_geom_bond_type
C1     O127    1.276   .     A
C1     O125    1.265   .     A
C1     C11     1.442   .     S
C2     C46     1.416   .     A
C2     N117    1.427   .     S
C2     C3      1.407   .     A
C3     N115    1.424   .     S
C3     C1211   1.425   .     S
C4     O126    1.296   .     A
C4     O128    1.270   .     A
C4     C10     1.464   .     S
C5     C6      1.434   .     A
C5     C7      1.424   .     A
C5     C1209   1.425   1_554 S
C6     C9      1.449   .     A
C6     C47     1.438   .     A
C7     C8      1.398   .     A
C7     N112    1.427   .     S
C8     C20     1.405   .     A
C8     N114    1.430   .     S
C9     C20     1.420   .     A
C9     C35     1.548   .     S
C10    C145    1.366   .     S
C10    N247    1.424   .     S
C11    C278    1.366   1_455 S
C11    C296    1.537   1_455 S
C12    C21     1.418   .     A
C12    C19     1.419   .     A
C12    N116    1.424   .     S
C13    C16     1.453   .     S
C13    C416    1.352   .     S
C13    H452    1.089   .     S
C14    C31     1.533   .     S
C14    C15     1.433   .     S
C14    C817    1.352   1_545 S
C15    O123    1.272   .     A
C15    O129    1.280   .     A
C16    O130    1.287   .     A
C16    O124    1.267   .     A
C17    C20     1.453   .     S
C17    O121    1.283   .     A
C17    O119    1.293   .     A
C18    O120    1.280   .     A
C18    C19     1.474   .     S
C18    O122    1.281   .     A
C19    C23     1.397   .     A
C21    C45     1.419   .     A
C21    C40     1.526   .     S
C22    C49     1.517   .     S
C22    C24     1.528   .     S
C22    H111    1.103   .     S
C22    H51     1.112   .     S
C23    C34     1.392   .     A
C23    H61     1.079   .     S
C24    H109    1.110   .     S
C24    C427    1.526   .     S
C24    H1316   1.112   1_554 S
C25    H105    1.098   .     S
C25    H94     1.111   .     S
C25    H83     1.111   .     S
C25    C828    1.526   1_545 S
C26    H55     1.106   .     S
C26    H54     1.110   .     S
C26    H53     1.110   .     S
C26    N112    1.446   .     S
C27    H57     1.110   .     S
C27    N113    1.449   .     S
C27    H58     1.111   .     S
C27    H327    1.112   1_455 S
C28    H67     1.112   .     S
C28    H66     1.112   .     S
C28    C145    1.537   .     S
C28    C163    1.540   .     S
C29    H64     1.110   .     S
C29    H65     1.112   .     S
C29    C296    1.540   1_455 S
C29    C298    1.528   1_455 S
C30    H60     1.110   .     S
C30    H62     1.111   .     S
C30    H63     1.109   .     S
C30    C163    1.528   .     S
C31    C32     1.544   .     S
C31    H878    1.112   1_545 S
C31    H879    1.112   1_545 S
C32    H71     1.111   .     S
C32    H73     1.111   .     S
C32    C33     1.522   .     S
C33    H69     1.109   .     S
C33    H70     1.109   .     S
C33    H872    1.110   1_545 S
C34    C46     1.425   .     A
C34    C45     1.408   .     A
C35    C36     1.537   .     S
C35    H81     1.108   .     S
C35    H82     1.109   .     S
C36    C37     1.530   .     S
C36    H79     1.111   .     S
C36    H80     1.106   .     S
C37    H77     1.111   .     S
C37    H76     1.112   .     S
C37    H78     1.105   .     S
C38    H86     1.108   .     S
C38    N114    1.448   .     S
C38    H85     1.110   .     S
C38    H87     1.109   .     S
C39    H90     1.109   .     S
C39    H91     1.110   .     S
C39    N115    1.447   .     S
C39    H89     1.109   .     S
C40    H99     1.109   .     S
C40    C41     1.533   .     S
C40    H1304   1.109   .     S
C41    H96     1.109   .     S
C41    C1516   1.527   1_455 S
C41    H1303   1.111   .     S
C42    H93     1.105   .     S
C42    H95     1.111   .     S
C42    H92     1.111   .     S
C42    C1381   1.527   1_554 S
C43    H101    1.110   .     S
C43    N116    1.445   .     S
C43    H102    1.110   .     S
C43    H103    1.110   .     S
C44    H108    1.110   .     S
C44    H107    1.111   .     S
C44    H106    1.110   .     S
C44    N117    1.446   .     S
C45    C1255   1.413   .     S
C46    C1253   1.414   .     S
C47    C48     1.411   .     A
C47    C1252   1.414   1_554 S
C48    H72     1.075   .     S
C48    C49     1.403   .     A
C49    C1251   1.413   1_554 S
H50    C817    1.089   1_545 S
H52    N112    1.030   .     S
H56    N113    1.031   .     S
H59    C161    1.112   .     S
H68    C435    1.110   .     S
H74    C433    1.112   .     S
H75    C433    1.112   .     S
H84    N114    1.031   .     S
H88    N115    1.031   .     S
H97    C1247   1.111   1_554 S
H98    C1246   1.109   1_554 S
H100   N116    1.031   .     S
H104   N117    1.029   .     S
H110   C1230   1.112   .     S
N113   C278    1.424   1_455 S
O118   Zn131   1.952   .     S
O118   Zn134   1.931   .     S
O118   Zn133   1.965   .     S
O118   Zn132   1.965   .     S
O119   Zn132   1.937   .     S
O120   Zn134   1.940   .     S
O121   Zn133   1.937   .     S
O122   Zn131   1.930   .     S
O123   Zn131   1.947   .     S
O124   Zn134   1.951   .     S
O125   Zn132   1.940   .     S
O126   Zn133   1.946   .     S
O127   Zn134   1.957   .     S
O128   Zn131   1.953   .     S
O129   Zn132   1.940   .     S
O130   Zn133   1.935   .     S
C135   O261    1.276   .     A
C135   O259    1.265   .     A
C135   C145    1.442   .     S
C136   C180    1.416   .     A
C136   N251    1.427   .     S
C136   C137    1.407   .     A
C137   N249    1.424   .     S
C137   C1345   1.425   .     S
C138   O260    1.296   .     A
C138   O262    1.270   .     A
C138   C144    1.464   .     S
C139   C140    1.434   .     A
C139   C141    1.424   .     A
C139   C1343   1.425   1_554 S
C140   C143    1.449   .     A
C140   C181    1.438   .     A
C141   C142    1.398   .     A
C141   N246    1.427   .     S
C142   C154    1.405   .     A
C142   N248    1.430   .     S
C143   C154    1.420   .     A
C143   C169    1.548   .     S
C144   C279    1.366   .     S
C144   N381    1.424   .     S
C146   C155    1.418   .     A
C146   C153    1.419   .     A
C146   N250    1.424   .     S
C147   C150    1.453   .     S
C147   C550    1.352   .     S
C147   H586    1.089   .     S
C148   C165    1.533   .     S
C148   C149    1.433   .     S
C148   C951    1.352   1_545 S
C149   O257    1.272   .     A
C149   O263    1.280   .     A
C150   O264    1.287   .     A
C150   O258    1.267   .     A
C151   C154    1.453   .     S
C151   O255    1.283   .     A
C151   O253    1.293   .     A
C152   O254    1.280   .     A
C152   C153    1.474   .     S
C152   O256    1.281   .     A
C153   C157    1.397   .     A
C155   C179    1.419   .     A
C155   C174    1.526   .     S
C156   C183    1.517   .     S
C156   C158    1.528   .     S
C156   H245    1.103   .     S
C156   H185    1.112   .     S
C157   C168    1.392   .     A
C157   H195    1.079   .     S
C158   H243    1.110   .     S
C158   C561    1.526   .     S
C158   H1450   1.112   1_554 S
C159   H239    1.098   .     S
C159   H228    1.111   .     S
C159   H217    1.111   .     S
C159   C962    1.526   1_545 S
C160   H189    1.106   .     S
C160   H188    1.110   .     S
C160   H187    1.110   .     S
C160   N246    1.446   .     S
C161   H191    1.110   .     S
C161   N247    1.449   .     S
C161   H192    1.111   .     S
C162   H201    1.112   .     S
C162   H200    1.112   .     S
C162   C279    1.537   .     S
C162   C297    1.540   .     S
C163   H198    1.110   .     S
C163   H199    1.112   .     S
C164   H194    1.110   .     S
C164   H196    1.111   .     S
C164   H197    1.109   .     S
C164   C297    1.528   .     S
C165   C166    1.544   .     S
C165   H1012   1.112   1_545 S
C165   H1013   1.112   1_545 S
C166   H205    1.111   .     S
C166   H207    1.111   .     S
C166   C167    1.522   .     S
C167   H203    1.109   .     S
C167   H204    1.109   .     S
C167   H1006   1.110   1_545 S
C168   C180    1.425   .     A
C168   C179    1.408   .     A
C169   C170    1.537   .     S
C169   H215    1.108   .     S
C169   H216    1.109   .     S
C170   C171    1.530   .     S
C170   H213    1.111   .     S
C170   H214    1.106   .     S
C171   H211    1.111   .     S
C171   H210    1.112   .     S
C171   H212    1.105   .     S
C172   H220    1.108   .     S
C172   N248    1.448   .     S
C172   H219    1.110   .     S
C172   H221    1.109   .     S
C173   H224    1.109   .     S
C173   H225    1.110   .     S
C173   N249    1.447   .     S
C173   H223    1.109   .     S
C174   H233    1.109   .     S
C174   C175    1.533   .     S
C174   H1438   1.109   .     S
C175   H230    1.109   .     S
C175   C1248   1.527   .     S
C175   H1437   1.111   .     S
C176   H227    1.105   .     S
C176   H229    1.111   .     S
C176   H226    1.111   .     S
C176   C1515   1.527   1_554 S
C177   H235    1.110   .     S
C177   N250    1.445   .     S
C177   H236    1.110   .     S
C177   H237    1.110   .     S
C178   H242    1.110   .     S
C178   H241    1.111   .     S
C178   H240    1.110   .     S
C178   N251    1.446   .     S
C179   C1389   1.413   .     S
C180   C1387   1.414   .     S
C181   C182    1.411   .     A
C181   C1386   1.414   1_554 S
C182   H206    1.075   .     S
C182   C183    1.403   .     A
C183   C1385   1.413   1_554 S
H184   C951    1.089   1_545 S
H186   N246    1.030   .     S
H190   N247    1.031   .     S
H193   C295    1.112   .     S
H202   C569    1.110   .     S
H208   C567    1.112   .     S
H209   C567    1.112   .     S
H218   N248    1.031   .     S
H222   N249    1.031   .     S
H231   C1381   1.111   1_554 S
H232   C1380   1.109   1_554 S
H234   N250    1.031   .     S
H238   N251    1.029   .     S
H244   C1364   1.112   .     S
O252   Zn265   1.952   .     S
O252   Zn268   1.931   .     S
O252   Zn267   1.965   .     S
O252   Zn266   1.965   .     S
O253   Zn266   1.937   .     S
O254   Zn268   1.940   .     S
O255   Zn267   1.937   .     S
O256   Zn265   1.930   .     S
O257   Zn265   1.947   .     S
O258   Zn268   1.951   .     S
O259   Zn266   1.940   .     S
O260   Zn267   1.946   .     S
O261   Zn268   1.957   .     S
O262   Zn265   1.953   .     S
O263   Zn266   1.940   .     S
O264   Zn267   1.935   .     S
C269   O395    1.276   .     A
C269   O393    1.265   .     A
C269   C279    1.442   .     S
C270   C314    1.416   .     A
C270   N385    1.427   .     S
C270   C271    1.407   .     A
C271   N383    1.424   .     S
C271   C1479   1.425   .     S
C272   O394    1.296   .     A
C272   O396    1.270   .     A
C272   C278    1.464   .     S
C273   C274    1.434   .     A
C273   C275    1.424   .     A
C273   C1477   1.425   1_554 S
C274   C277    1.449   .     A
C274   C315    1.438   .     A
C275   C276    1.398   .     A
C275   N380    1.427   .     S
C276   C288    1.405   .     A
C276   N382    1.430   .     S
C277   C288    1.420   .     A
C277   C303    1.548   .     S
C278   C11     1.366   1_655 S
C278   N113    1.424   1_655 S
C280   C289    1.418   .     A
C280   C287    1.419   .     A
C280   N384    1.424   .     S
C281   C284    1.453   .     S
C281   C684    1.352   .     S
C281   H720    1.089   .     S
C282   C299    1.533   .     S
C282   C283    1.433   .     S
C282   C1085   1.352   1_545 S
C283   O391    1.272   .     A
C283   O397    1.280   .     A
C284   O398    1.287   .     A
C284   O392    1.267   .     A
C285   C288    1.453   .     S
C285   O389    1.283   .     A
C285   O387    1.293   .     A
C286   O388    1.280   .     A
C286   C287    1.474   .     S
C286   O390    1.281   .     A
C287   C291    1.397   .     A
C289   C313    1.419   .     A
C289   C308    1.526   .     S
C290   C317    1.517   .     S
C290   C292    1.528   .     S
C290   H379    1.103   .     S
C290   H319    1.112   .     S
C291   C302    1.392   .     A
C291   H329    1.079   .     S
C292   H377    1.110   .     S
C292   C695    1.526   .     S
C292   H1584   1.112   1_554 S
C293   H373    1.098   .     S
C293   H362    1.111   .     S
C293   H351    1.111   .     S
C293   C1096   1.526   1_545 S
C294   H323    1.106   .     S
C294   H322    1.110   .     S
C294   H321    1.110   .     S
C294   N380    1.446   .     S
C295   H325    1.110   .     S
C295   N381    1.449   .     S
C295   H326    1.111   .     S
C296   H335    1.112   .     S
C296   H334    1.112   .     S
C296   C11     1.537   1_655 S
C296   C29     1.540   1_655 S
C297   H332    1.110   .     S
C297   H333    1.112   .     S
C298   H328    1.110   .     S
C298   H330    1.111   .     S
C298   H331    1.109   .     S
C298   C29     1.528   1_655 S
C299   C300    1.544   .     S
C299   H1146   1.112   1_545 S
C299   H1147   1.112   1_545 S
C300   H339    1.111   .     S
C300   H341    1.111   .     S
C300   C301    1.522   .     S
C301   H337    1.109   .     S
C301   H338    1.109   .     S
C301   H1140   1.110   1_545 S
C302   C314    1.425   .     A
C302   C313    1.408   .     A
C303   C304    1.537   .     S
C303   H349    1.108   .     S
C303   H350    1.109   .     S
C304   C305    1.530   .     S
C304   H347    1.111   .     S
C304   H348    1.106   .     S
C305   H345    1.111   .     S
C305   H344    1.112   .     S
C305   H346    1.105   .     S
C306   H354    1.108   .     S
C306   N382    1.448   .     S
C306   H353    1.110   .     S
C306   H355    1.109   .     S
C307   H358    1.109   .     S
C307   H359    1.110   .     S
C307   N383    1.447   .     S
C307   H357    1.109   .     S
C308   H367    1.109   .     S
C308   C309    1.533   .     S
C308   H1572   1.109   .     S
C309   H364    1.109   .     S
C309   C1382   1.527   .     S
C309   H1571   1.111   .     S
C310   H361    1.105   .     S
C310   H363    1.111   .     S
C310   H360    1.111   .     S
C310   C1247   1.527   1_654 S
C311   H369    1.110   .     S
C311   N384    1.445   .     S
C311   H370    1.110   .     S
C311   H371    1.110   .     S
C312   H376    1.110   .     S
C312   H375    1.111   .     S
C312   H374    1.110   .     S
C312   N385    1.446   .     S
C313   C1523   1.413   .     S
C314   C1521   1.414   .     S
C315   C316    1.411   .     A
C315   C1520   1.414   1_554 S
C316   H340    1.075   .     S
C316   C317    1.403   .     A
C317   C1519   1.413   1_554 S
H318   C1085   1.089   1_545 S
H320   N380    1.030   .     S
H324   N381    1.031   .     S
H327   C27     1.112   1_655 S
H336   C703    1.110   .     S
H342   C701    1.112   .     S
H343   C701    1.112   .     S
H352   N382    1.031   .     S
H356   N383    1.031   .     S
H365   C1515   1.111   1_554 S
H366   C1514   1.109   1_554 S
H368   N384    1.031   .     S
H372   N385    1.029   .     S
H378   C1498   1.112   .     S
O386   Zn399   1.952   .     S
O386   Zn402   1.931   .     S
O386   Zn401   1.965   .     S
O386   Zn400   1.965   .     S
O387   Zn400   1.937   .     S
O388   Zn402   1.940   .     S
O389   Zn401   1.937   .     S
O390   Zn399   1.930   .     S
O391   Zn399   1.947   .     S
O392   Zn402   1.951   .     S
O393   Zn400   1.940   .     S
O394   Zn401   1.946   .     S
O395   Zn402   1.957   .     S
O396   Zn399   1.953   .     S
O397   Zn400   1.940   .     S
O398   Zn401   1.935   .     S
C403   O529    1.276   .     A
C403   O527    1.265   .     A
C403   C413    1.442   .     S
C404   C448    1.416   .     A
C404   N519    1.427   .     S
C404   C405    1.407   .     A
C405   N517    1.424   .     S
C405   C1613   1.425   .     S
C406   O528    1.296   .     A
C406   O530    1.270   .     A
C406   C412    1.464   .     S
C407   C408    1.434   .     A
C407   C409    1.424   .     A
C407   C1611   1.425   1_554 S
C408   C411    1.449   .     A
C408   C449    1.438   .     A
C409   C410    1.398   .     A
C409   N514    1.427   .     S
C410   C422    1.405   .     A
C410   N516    1.430   .     S
C411   C422    1.420   .     A
C411   C437    1.548   .     S
C412   C547    1.366   .     S
C412   N649    1.424   .     S
C413   C680    1.366   1_455 S
C413   C698    1.537   1_455 S
C414   C423    1.418   .     A
C414   C421    1.419   .     A
C414   N518    1.424   .     S
C415   C418    1.453   .     S
C415   C818    1.352   .     S
C415   H854    1.089   .     S
C416   C433    1.533   .     S
C416   C417    1.433   .     S
C417   O525    1.272   .     A
C417   O531    1.280   .     A
C418   O532    1.287   .     A
C418   O526    1.267   .     A
C419   C422    1.453   .     S
C419   O523    1.283   .     A
C419   O521    1.293   .     A
C420   O522    1.280   .     A
C420   C421    1.474   .     S
C420   O524    1.281   .     A
C421   C425    1.397   .     A
C423   C447    1.419   .     A
C423   C442    1.526   .     S
C424   C451    1.517   .     S
C424   C426    1.528   .     S
C424   H513    1.103   .     S
C424   H453    1.112   .     S
C425   C436    1.392   .     A
C425   H463    1.079   .     S
C426   H511    1.110   .     S
C426   C829    1.526   .     S
C426   H1718   1.112   1_554 S
C427   H507    1.098   .     S
C427   H496    1.111   .     S
C427   H485    1.111   .     S
C428   H457    1.106   .     S
C428   H456    1.110   .     S
C428   H455    1.110   .     S
C428   N514    1.446   .     S
C429   H459    1.110   .     S
C429   N515    1.449   .     S
C429   H460    1.111   .     S
C429   H729    1.112   1_455 S
C430   H469    1.112   .     S
C430   H468    1.112   .     S
C430   C547    1.537   .     S
C430   C565    1.540   .     S
C431   H466    1.110   .     S
C431   H467    1.112   .     S
C431   C698    1.540   1_455 S
C431   C700    1.528   1_455 S
C432   H462    1.110   .     S
C432   H464    1.111   .     S
C432   H465    1.109   .     S
C432   C565    1.528   .     S
C433   C434    1.544   .     S
C434   H473    1.111   .     S
C434   H475    1.111   .     S
C434   C435    1.522   .     S
C435   H471    1.109   .     S
C435   H472    1.109   .     S
C436   C448    1.425   .     A
C436   C447    1.408   .     A
C437   C438    1.537   .     S
C437   H483    1.108   .     S
C437   H484    1.109   .     S
C438   C439    1.530   .     S
C438   H481    1.111   .     S
C438   H482    1.106   .     S
C439   H479    1.111   .     S
C439   H478    1.112   .     S
C439   H480    1.105   .     S
C440   H488    1.108   .     S
C440   N516    1.448   .     S
C440   H487    1.110   .     S
C440   H489    1.109   .     S
C441   H492    1.109   .     S
C441   H493    1.110   .     S
C441   N517    1.447   .     S
C441   H491    1.109   .     S
C442   H501    1.109   .     S
C442   C443    1.533   .     S
C442   H1706   1.109   .     S
C443   H498    1.109   .     S
C443   C1918   1.527   1_455 S
C443   H1705   1.111   .     S
C444   H495    1.105   .     S
C444   H497    1.111   .     S
C444   H494    1.111   .     S
C444   C1783   1.527   1_554 S
C445   H503    1.110   .     S
C445   N518    1.445   .     S
C445   H504    1.110   .     S
C445   H505    1.110   .     S
C446   H510    1.110   .     S
C446   H509    1.111   .     S
C446   H508    1.110   .     S
C446   N519    1.446   .     S
C447   C1657   1.413   .     S
C448   C1655   1.414   .     S
C449   C450    1.411   .     A
C449   C1654   1.414   1_554 S
C450   H474    1.075   .     S
C450   C451    1.403   .     A
C451   C1653   1.413   1_554 S
H454   N514    1.030   .     S
H458   N515    1.031   .     S
H461   C563    1.112   .     S
H470   C837    1.110   .     S
H476   C835    1.112   .     S
H477   C835    1.112   .     S
H486   N516    1.031   .     S
H490   N517    1.031   .     S
H499   C1649   1.111   1_554 S
H500   C1648   1.109   1_554 S
H502   N518    1.031   .     S
H506   N519    1.029   .     S
H512   C1632   1.112   .     S
N515   C680    1.424   1_455 S
O520   Zn533   1.952   .     S
O520   Zn536   1.931   .     S
O520   Zn535   1.965   .     S
O520   Zn534   1.965   .     S
O521   Zn534   1.937   .     S
O522   Zn536   1.940   .     S
O523   Zn535   1.937   .     S
O524   Zn533   1.930   .     S
O525   Zn533   1.947   .     S
O526   Zn536   1.951   .     S
O527   Zn534   1.940   .     S
O528   Zn535   1.946   .     S
O529   Zn536   1.957   .     S
O530   Zn533   1.953   .     S
O531   Zn534   1.940   .     S
O532   Zn535   1.935   .     S
C537   O663    1.276   .     A
C537   O661    1.265   .     A
C537   C547    1.442   .     S
C538   C582    1.416   .     A
C538   N653    1.427   .     S
C538   C539    1.407   .     A
C539   N651    1.424   .     S
C539   C1747   1.425   .     S
C540   O662    1.296   .     A
C540   O664    1.270   .     A
C540   C546    1.464   .     S
C541   C542    1.434   .     A
C541   C543    1.424   .     A
C541   C1745   1.425   1_554 S
C542   C545    1.449   .     A
C542   C583    1.438   .     A
C543   C544    1.398   .     A
C543   N648    1.427   .     S
C544   C556    1.405   .     A
C544   N650    1.430   .     S
C545   C556    1.420   .     A
C545   C571    1.548   .     S
C546   C681    1.366   .     S
C546   N783    1.424   .     S
C548   C557    1.418   .     A
C548   C555    1.419   .     A
C548   N652    1.424   .     S
C549   C552    1.453   .     S
C549   C952    1.352   .     S
C549   H988    1.089   .     S
C550   C567    1.533   .     S
C550   C551    1.433   .     S
C551   O659    1.272   .     A
C551   O665    1.280   .     A
C552   O666    1.287   .     A
C552   O660    1.267   .     A
C553   C556    1.453   .     S
C553   O657    1.283   .     A
C553   O655    1.293   .     A
C554   O656    1.280   .     A
C554   C555    1.474   .     S
C554   O658    1.281   .     A
C555   C559    1.397   .     A
C557   C581    1.419   .     A
C557   C576    1.526   .     S
C558   C585    1.517   .     S
C558   C560    1.528   .     S
C558   H647    1.103   .     S
C558   H587    1.112   .     S
C559   C570    1.392   .     A
C559   H597    1.079   .     S
C560   H645    1.110   .     S
C560   C963    1.526   .     S
C560   H1852   1.112   1_554 S
C561   H641    1.098   .     S
C561   H630    1.111   .     S
C561   H619    1.111   .     S
C562   H591    1.106   .     S
C562   H590    1.110   .     S
C562   H589    1.110   .     S
C562   N648    1.446   .     S
C563   H593    1.110   .     S
C563   N649    1.449   .     S
C563   H594    1.111   .     S
C564   H603    1.112   .     S
C564   H602    1.112   .     S
C564   C681    1.537   .     S
C564   C699    1.540   .     S
C565   H600    1.110   .     S
C565   H601    1.112   .     S
C566   H596    1.110   .     S
C566   H598    1.111   .     S
C566   H599    1.109   .     S
C566   C699    1.528   .     S
C567   C568    1.544   .     S
C568   H607    1.111   .     S
C568   H609    1.111   .     S
C568   C569    1.522   .     S
C569   H605    1.109   .     S
C569   H606    1.109   .     S
C570   C582    1.425   .     A
C570   C581    1.408   .     A
C571   C572    1.537   .     S
C571   H617    1.108   .     S
C571   H618    1.109   .     S
C572   C573    1.530   .     S
C572   H615    1.111   .     S
C572   H616    1.106   .     S
C573   H613    1.111   .     S
C573   H612    1.112   .     S
C573   H614    1.105   .     S
C574   H622    1.108   .     S
C574   N650    1.448   .     S
C574   H621    1.110   .     S
C574   H623    1.109   .     S
C575   H626    1.109   .     S
C575   H627    1.110   .     S
C575   N651    1.447   .     S
C575   H625    1.109   .     S
C576   H635    1.109   .     S
C576   C577    1.533   .     S
C576   H1840   1.109   .     S
C577   H632    1.109   .     S
C577   C1650   1.527   .     S
C577   H1839   1.111   .     S
C578   H629    1.105   .     S
C578   H631    1.111   .     S
C578   H628    1.111   .     S
C578   C1917   1.527   1_554 S
C579   H637    1.110   .     S
C579   N652    1.445   .     S
C579   H638    1.110   .     S
C579   H639    1.110   .     S
C580   H644    1.110   .     S
C580   H643    1.111   .     S
C580   H642    1.110   .     S
C580   N653    1.446   .     S
C581   C1791   1.413   .     S
C582   C1789   1.414   .     S
C583   C584    1.411   .     A
C583   C1788   1.414   1_554 S
C584   H608    1.075   .     S
C584   C585    1.403   .     A
C585   C1787   1.413   1_554 S
H588   N648    1.030   .     S
H592   N649    1.031   .     S
H595   C697    1.112   .     S
H604   C971    1.110   .     S
H610   C969    1.112   .     S
H611   C969    1.112   .     S
H620   N650    1.031   .     S
H624   N651    1.031   .     S
H633   C1783   1.111   1_554 S
H634   C1782   1.109   1_554 S
H636   N652    1.031   .     S
H640   N653    1.029   .     S
H646   C1766   1.112   .     S
O654   Zn667   1.952   .     S
O654   Zn670   1.931   .     S
O654   Zn669   1.965   .     S
O654   Zn668   1.965   .     S
O655   Zn668   1.937   .     S
O656   Zn670   1.940   .     S
O657   Zn669   1.937   .     S
O658   Zn667   1.930   .     S
O659   Zn667   1.947   .     S
O660   Zn670   1.951   .     S
O661   Zn668   1.940   .     S
O662   Zn669   1.946   .     S
O663   Zn670   1.957   .     S
O664   Zn667   1.953   .     S
O665   Zn668   1.940   .     S
O666   Zn669   1.935   .     S
C671   O797    1.276   .     A
C671   O795    1.265   .     A
C671   C681    1.442   .     S
C672   C716    1.416   .     A
C672   N787    1.427   .     S
C672   C673    1.407   .     A
C673   N785    1.424   .     S
C673   C1881   1.425   .     S
C674   O796    1.296   .     A
C674   O798    1.270   .     A
C674   C680    1.464   .     S
C675   C676    1.434   .     A
C675   C677    1.424   .     A
C675   C1879   1.425   1_554 S
C676   C679    1.449   .     A
C676   C717    1.438   .     A
C677   C678    1.398   .     A
C677   N782    1.427   .     S
C678   C690    1.405   .     A
C678   N784    1.430   .     S
C679   C690    1.420   .     A
C679   C705    1.548   .     S
C680   C413    1.366   1_655 S
C680   N515    1.424   1_655 S
C682   C691    1.418   .     A
C682   C689    1.419   .     A
C682   N786    1.424   .     S
C683   C686    1.453   .     S
C683   C1086   1.352   .     S
C683   H1122   1.089   .     S
C684   C701    1.533   .     S
C684   C685    1.433   .     S
C685   O793    1.272   .     A
C685   O799    1.280   .     A
C686   O800    1.287   .     A
C686   O794    1.267   .     A
C687   C690    1.453   .     S
C687   O791    1.283   .     A
C687   O789    1.293   .     A
C688   O790    1.280   .     A
C688   C689    1.474   .     S
C688   O792    1.281   .     A
C689   C693    1.397   .     A
C691   C715    1.419   .     A
C691   C710    1.526   .     S
C692   C719    1.517   .     S
C692   C694    1.528   .     S
C692   H781    1.103   .     S
C692   H721    1.112   .     S
C693   C704    1.392   .     A
C693   H731    1.079   .     S
C694   H779    1.110   .     S
C694   C1097   1.526   .     S
C694   H1986   1.112   1_554 S
C695   H775    1.098   .     S
C695   H764    1.111   .     S
C695   H753    1.111   .     S
C696   H725    1.106   .     S
C696   H724    1.110   .     S
C696   H723    1.110   .     S
C696   N782    1.446   .     S
C697   H727    1.110   .     S
C697   N783    1.449   .     S
C697   H728    1.111   .     S
C698   H737    1.112   .     S
C698   H736    1.112   .     S
C698   C413    1.537   1_655 S
C698   C431    1.540   1_655 S
C699   H734    1.110   .     S
C699   H735    1.112   .     S
C700   H730    1.110   .     S
C700   H732    1.111   .     S
C700   H733    1.109   .     S
C700   C431    1.528   1_655 S
C701   C702    1.544   .     S
C702   H741    1.111   .     S
C702   H743    1.111   .     S
C702   C703    1.522   .     S
C703   H739    1.109   .     S
C703   H740    1.109   .     S
C704   C716    1.425   .     A
C704   C715    1.408   .     A
C705   C706    1.537   .     S
C705   H751    1.108   .     S
C705   H752    1.109   .     S
C706   C707    1.530   .     S
C706   H749    1.111   .     S
C706   H750    1.106   .     S
C707   H747    1.111   .     S
C707   H746    1.112   .     S
C707   H748    1.105   .     S
C708   H756    1.108   .     S
C708   N784    1.448   .     S
C708   H755    1.110   .     S
C708   H757    1.109   .     S
C709   H760    1.109   .     S
C709   H761    1.110   .     S
C709   N785    1.447   .     S
C709   H759    1.109   .     S
C710   H769    1.109   .     S
C710   C711    1.533   .     S
C710   H1974   1.109   .     S
C711   H766    1.109   .     S
C711   C1784   1.527   .     S
C711   H1973   1.111   .     S
C712   H763    1.105   .     S
C712   H765    1.111   .     S
C712   H762    1.111   .     S
C712   C1649   1.527   1_654 S
C713   H771    1.110   .     S
C713   N786    1.445   .     S
C713   H772    1.110   .     S
C713   H773    1.110   .     S
C714   H778    1.110   .     S
C714   H777    1.111   .     S
C714   H776    1.110   .     S
C714   N787    1.446   .     S
C715   C1925   1.413   .     S
C716   C1923   1.414   .     S
C717   C718    1.411   .     A
C717   C1922   1.414   1_554 S
C718   H742    1.075   .     S
C718   C719    1.403   .     A
C719   C1921   1.413   1_554 S
H722   N782    1.030   .     S
H726   N783    1.031   .     S
H729   C429    1.112   1_655 S
H738   C1105   1.110   .     S
H744   C1103   1.112   .     S
H745   C1103   1.112   .     S
H754   N784    1.031   .     S
H758   N785    1.031   .     S
H767   C1917   1.111   1_554 S
H768   C1916   1.109   1_554 S
H770   N786    1.031   .     S
H774   N787    1.029   .     S
H780   C1900   1.112   .     S
O788   Zn801   1.952   .     S
O788   Zn804   1.931   .     S
O788   Zn803   1.965   .     S
O788   Zn802   1.965   .     S
O789   Zn802   1.937   .     S
O790   Zn804   1.940   .     S
O791   Zn803   1.937   .     S
O792   Zn801   1.930   .     S
O793   Zn801   1.947   .     S
O794   Zn804   1.951   .     S
O795   Zn802   1.940   .     S
O796   Zn803   1.946   .     S
O797   Zn804   1.957   .     S
O798   Zn801   1.953   .     S
O799   Zn802   1.940   .     S
O800   Zn803   1.935   .     S
C805   O931    1.276   .     A
C805   O929    1.265   .     A
C805   C815    1.442   .     S
C806   C850    1.416   .     A
C806   N921    1.427   .     S
C806   C807    1.407   .     A
C807   N919    1.424   .     S
C807   C2015   1.425   .     S
C808   O930    1.296   .     A
C808   O932    1.270   .     A
C808   C814    1.464   .     S
C809   C810    1.434   .     A
C809   C811    1.424   .     A
C809   C2013   1.425   1_554 S
C810   C813    1.449   .     A
C810   C851    1.438   .     A
C811   C812    1.398   .     A
C811   N916    1.427   .     S
C812   C824    1.405   .     A
C812   N918    1.430   .     S
C813   C824    1.420   .     A
C813   C839    1.548   .     S
C814   C949    1.366   .     S
C814   N1051   1.424   .     S
C815   C1082   1.366   1_455 S
C815   C1100   1.537   1_455 S
C816   C825    1.418   .     A
C816   C823    1.419   .     A
C816   N920    1.424   .     S
C817   C820    1.453   .     S
C817   C14     1.352   1_565 S
C817   H50     1.089   1_565 S
C818   C835    1.533   .     S
C818   C819    1.433   .     S
C819   O927    1.272   .     A
C819   O933    1.280   .     A
C820   O934    1.287   .     A
C820   O928    1.267   .     A
C821   C824    1.453   .     S
C821   O925    1.283   .     A
C821   O923    1.293   .     A
C822   O924    1.280   .     A
C822   C823    1.474   .     S
C822   O926    1.281   .     A
C823   C827    1.397   .     A
C825   C849    1.419   .     A
C825   C844    1.526   .     S
C826   C853    1.517   .     S
C826   C828    1.528   .     S
C826   H915    1.103   .     S
C826   H855    1.112   .     S
C827   C838    1.392   .     A
C827   H865    1.079   .     S
C828   H913    1.110   .     S
C828   C25     1.526   1_565 S
C828   H2120   1.112   1_554 S
C829   H909    1.098   .     S
C829   H898    1.111   .     S
C829   H887    1.111   .     S
C830   H859    1.106   .     S
C830   H858    1.110   .     S
C830   H857    1.110   .     S
C830   N916    1.446   .     S
C831   H861    1.110   .     S
C831   N917    1.449   .     S
C831   H862    1.111   .     S
C831   H1131   1.112   1_455 S
C832   H871    1.112   .     S
C832   H870    1.112   .     S
C832   C949    1.537   .     S
C832   C967    1.540   .     S
C833   H868    1.110   .     S
C833   H869    1.112   .     S
C833   C1100   1.540   1_455 S
C833   C1102   1.528   1_455 S
C834   H864    1.110   .     S
C834   H866    1.111   .     S
C834   H867    1.109   .     S
C834   C967    1.528   .     S
C835   C836    1.544   .     S
C836   H875    1.111   .     S
C836   H877    1.111   .     S
C836   C837    1.522   .     S
C837   H873    1.109   .     S
C837   H874    1.109   .     S
C838   C850    1.425   .     A
C838   C849    1.408   .     A
C839   C840    1.537   .     S
C839   H885    1.108   .     S
C839   H886    1.109   .     S
C840   C841    1.530   .     S
C840   H883    1.111   .     S
C840   H884    1.106   .     S
C841   H881    1.111   .     S
C841   H880    1.112   .     S
C841   H882    1.105   .     S
C842   H890    1.108   .     S
C842   N918    1.448   .     S
C842   H889    1.110   .     S
C842   H891    1.109   .     S
C843   H894    1.109   .     S
C843   H895    1.110   .     S
C843   N919    1.447   .     S
C843   H893    1.109   .     S
C844   H903    1.109   .     S
C844   C845    1.533   .     S
C844   H2108   1.109   .     S
C845   H900    1.109   .     S
C845   C2320   1.527   1_455 S
C845   H2107   1.111   .     S
C846   H897    1.105   .     S
C846   H899    1.111   .     S
C846   H896    1.111   .     S
C846   C2185   1.527   1_554 S
C847   H905    1.110   .     S
C847   N920    1.445   .     S
C847   H906    1.110   .     S
C847   H907    1.110   .     S
C848   H912    1.110   .     S
C848   H911    1.111   .     S
C848   H910    1.110   .     S
C848   N921    1.446   .     S
C849   C2059   1.413   .     S
C850   C2057   1.414   .     S
C851   C852    1.411   .     A
C851   C2056   1.414   1_554 S
C852   H876    1.075   .     S
C852   C853    1.403   .     A
C853   C2055   1.413   1_554 S
H856   N916    1.030   .     S
H860   N917    1.031   .     S
H863   C965    1.112   .     S
H872   C33     1.110   1_565 S
H878   C31     1.112   1_565 S
H879   C31     1.112   1_565 S
H888   N918    1.031   .     S
H892   N919    1.031   .     S
H901   C2051   1.111   1_554 S
H902   C2050   1.109   1_554 S
H904   N920    1.031   .     S
H908   N921    1.029   .     S
H914   C2034   1.112   .     S
N917   C1082   1.424   1_455 S
O922   Zn935   1.952   .     S
O922   Zn938   1.931   .     S
O922   Zn937   1.965   .     S
O922   Zn936   1.965   .     S
O923   Zn936   1.937   .     S
O924   Zn938   1.940   .     S
O925   Zn937   1.937   .     S
O926   Zn935   1.930   .     S
O927   Zn935   1.947   .     S
O928   Zn938   1.951   .     S
O929   Zn936   1.940   .     S
O930   Zn937   1.946   .     S
O931   Zn938   1.957   .     S
O932   Zn935   1.953   .     S
O933   Zn936   1.940   .     S
O934   Zn937   1.935   .     S
C939   O1065   1.276   .     A
C939   O1063   1.265   .     A
C939   C949    1.442   .     S
C940   C984    1.416   .     A
C940   N1055   1.427   .     S
C940   C941    1.407   .     A
C941   N1053   1.424   .     S
C941   C2149   1.425   .     S
C942   O1064   1.296   .     A
C942   O1066   1.270   .     A
C942   C948    1.464   .     S
C943   C944    1.434   .     A
C943   C945    1.424   .     A
C943   C2147   1.425   1_554 S
C944   C947    1.449   .     A
C944   C985    1.438   .     A
C945   C946    1.398   .     A
C945   N1050   1.427   .     S
C946   C958    1.405   .     A
C946   N1052   1.430   .     S
C947   C958    1.420   .     A
C947   C973    1.548   .     S
C948   C1083   1.366   .     S
C948   N1185   1.424   .     S
C950   C959    1.418   .     A
C950   C957    1.419   .     A
C950   N1054   1.424   .     S
C951   C954    1.453   .     S
C951   C148    1.352   1_565 S
C951   H184    1.089   1_565 S
C952   C969    1.533   .     S
C952   C953    1.433   .     S
C953   O1061   1.272   .     A
C953   O1067   1.280   .     A
C954   O1068   1.287   .     A
C954   O1062   1.267   .     A
C955   C958    1.453   .     S
C955   O1059   1.283   .     A
C955   O1057   1.293   .     A
C956   O1058   1.280   .     A
C956   C957    1.474   .     S
C956   O1060   1.281   .     A
C957   C961    1.397   .     A
C959   C983    1.419   .     A
C959   C978    1.526   .     S
C960   C987    1.517   .     S
C960   C962    1.528   .     S
C960   H1049   1.103   .     S
C960   H989    1.112   .     S
C961   C972    1.392   .     A
C961   H999    1.079   .     S
C962   H1047   1.110   .     S
C962   C159    1.526   1_565 S
C962   H2254   1.112   1_554 S
C963   H1043   1.098   .     S
C963   H1032   1.111   .     S
C963   H1021   1.111   .     S
C964   H993    1.106   .     S
C964   H992    1.110   .     S
C964   H991    1.110   .     S
C964   N1050   1.446   .     S
C965   H995    1.110   .     S
C965   N1051   1.449   .     S
C965   H996    1.111   .     S
C966   H1005   1.112   .     S
C966   H1004   1.112   .     S
C966   C1083   1.537   .     S
C966   C1101   1.540   .     S
C967   H1002   1.110   .     S
C967   H1003   1.112   .     S
C968   H998    1.110   .     S
C968   H1000   1.111   .     S
C968   H1001   1.109   .     S
C968   C1101   1.528   .     S
C969   C970    1.544   .     S
C970   H1009   1.111   .     S
C970   H1011   1.111   .     S
C970   C971    1.522   .     S
C971   H1007   1.109   .     S
C971   H1008   1.109   .     S
C972   C984    1.425   .     A
C972   C983    1.408   .     A
C973   C974    1.537   .     S
C973   H1019   1.108   .     S
C973   H1020   1.109   .     S
C974   C975    1.530   .     S
C974   H1017   1.111   .     S
C974   H1018   1.106   .     S
C975   H1015   1.111   .     S
C975   H1014   1.112   .     S
C975   H1016   1.105   .     S
C976   H1024   1.108   .     S
C976   N1052   1.448   .     S
C976   H1023   1.110   .     S
C976   H1025   1.109   .     S
C977   H1028   1.109   .     S
C977   H1029   1.110   .     S
C977   N1053   1.447   .     S
C977   H1027   1.109   .     S
C978   H1037   1.109   .     S
C978   C979    1.533   .     S
C978   H2242   1.109   .     S
C979   H1034   1.109   .     S
C979   C2052   1.527   .     S
C979   H2241   1.111   .     S
C980   H1031   1.105   .     S
C980   H1033   1.111   .     S
C980   H1030   1.111   .     S
C980   C2319   1.527   1_554 S
C981   H1039   1.110   .     S
C981   N1054   1.445   .     S
C981   H1040   1.110   .     S
C981   H1041   1.110   .     S
C982   H1046   1.110   .     S
C982   H1045   1.111   .     S
C982   H1044   1.110   .     S
C982   N1055   1.446   .     S
C983   C2193   1.413   .     S
C984   C2191   1.414   .     S
C985   C986    1.411   .     A
C985   C2190   1.414   1_554 S
C986   H1010   1.075   .     S
C986   C987    1.403   .     A
C987   C2189   1.413   1_554 S
H990   N1050   1.030   .     S
H994   N1051   1.031   .     S
H997   C1099   1.112   .     S
H1006  C167    1.110   1_565 S
H1012  C165    1.112   1_565 S
H1013  C165    1.112   1_565 S
H1022  N1052   1.031   .     S
H1026  N1053   1.031   .     S
H1035  C2185   1.111   1_554 S
H1036  C2184   1.109   1_554 S
H1038  N1054   1.031   .     S
H1042  N1055   1.029   .     S
H1048  C2168   1.112   .     S
O1056  Zn1069  1.952   .     S
O1056  Zn1072  1.931   .     S
O1056  Zn1071  1.965   .     S
O1056  Zn1070  1.965   .     S
O1057  Zn1070  1.937   .     S
O1058  Zn1072  1.940   .     S
O1059  Zn1071  1.937   .     S
O1060  Zn1069  1.930   .     S
O1061  Zn1069  1.947   .     S
O1062  Zn1072  1.951   .     S
O1063  Zn1070  1.940   .     S
O1064  Zn1071  1.946   .     S
O1065  Zn1072  1.957   .     S
O1066  Zn1069  1.953   .     S
O1067  Zn1070  1.940   .     S
O1068  Zn1071  1.935   .     S
C1073  O1199   1.276   .     A
C1073  O1197   1.265   .     A
C1073  C1083   1.442   .     S
C1074  C1118   1.416   .     A
C1074  N1189   1.427   .     S
C1074  C1075   1.407   .     A
C1075  N1187   1.424   .     S
C1075  C2283   1.425   .     S
C1076  O1198   1.296   .     A
C1076  O1200   1.270   .     A
C1076  C1082   1.464   .     S
C1077  C1078   1.434   .     A
C1077  C1079   1.424   .     A
C1077  C2281   1.425   1_554 S
C1078  C1081   1.449   .     A
C1078  C1119   1.438   .     A
C1079  C1080   1.398   .     A
C1079  N1184   1.427   .     S
C1080  C1092   1.405   .     A
C1080  N1186   1.430   .     S
C1081  C1092   1.420   .     A
C1081  C1107   1.548   .     S
C1082  C815    1.366   1_655 S
C1082  N917    1.424   1_655 S
C1084  C1093   1.418   .     A
C1084  C1091   1.419   .     A
C1084  N1188   1.424   .     S
C1085  C1088   1.453   .     S
C1085  C282    1.352   1_565 S
C1085  H318    1.089   1_565 S
C1086  C1103   1.533   .     S
C1086  C1087   1.433   .     S
C1087  O1195   1.272   .     A
C1087  O1201   1.280   .     A
C1088  O1202   1.287   .     A
C1088  O1196   1.267   .     A
C1089  C1092   1.453   .     S
C1089  O1193   1.283   .     A
C1089  O1191   1.293   .     A
C1090  O1192   1.280   .     A
C1090  C1091   1.474   .     S
C1090  O1194   1.281   .     A
C1091  C1095   1.397   .     A
C1093  C1117   1.419   .     A
C1093  C1112   1.526   .     S
C1094  C1121   1.517   .     S
C1094  C1096   1.528   .     S
C1094  H1183   1.103   .     S
C1094  H1123   1.112   .     S
C1095  C1106   1.392   .     A
C1095  H1133   1.079   .     S
C1096  H1181   1.110   .     S
C1096  C293    1.526   1_565 S
C1096  H2388   1.112   1_554 S
C1097  H1177   1.098   .     S
C1097  H1166   1.111   .     S
C1097  H1155   1.111   .     S
C1098  H1127   1.106   .     S
C1098  H1126   1.110   .     S
C1098  H1125   1.110   .     S
C1098  N1184   1.446   .     S
C1099  H1129   1.110   .     S
C1099  N1185   1.449   .     S
C1099  H1130   1.111   .     S
C1100  H1139   1.112   .     S
C1100  H1138   1.112   .     S
C1100  C815    1.537   1_655 S
C1100  C833    1.540   1_655 S
C1101  H1136   1.110   .     S
C1101  H1137   1.112   .     S
C1102  H1132   1.110   .     S
C1102  H1134   1.111   .     S
C1102  H1135   1.109   .     S
C1102  C833    1.528   1_655 S
C1103  C1104   1.544   .     S
C1104  H1143   1.111   .     S
C1104  H1145   1.111   .     S
C1104  C1105   1.522   .     S
C1105  H1141   1.109   .     S
C1105  H1142   1.109   .     S
C1106  C1118   1.425   .     A
C1106  C1117   1.408   .     A
C1107  C1108   1.537   .     S
C1107  H1153   1.108   .     S
C1107  H1154   1.109   .     S
C1108  C1109   1.530   .     S
C1108  H1151   1.111   .     S
C1108  H1152   1.106   .     S
C1109  H1149   1.111   .     S
C1109  H1148   1.112   .     S
C1109  H1150   1.105   .     S
C1110  H1158   1.108   .     S
C1110  N1186   1.448   .     S
C1110  H1157   1.110   .     S
C1110  H1159   1.109   .     S
C1111  H1162   1.109   .     S
C1111  H1163   1.110   .     S
C1111  N1187   1.447   .     S
C1111  H1161   1.109   .     S
C1112  H1171   1.109   .     S
C1112  C1113   1.533   .     S
C1112  H2376   1.109   .     S
C1113  H1168   1.109   .     S
C1113  C2186   1.527   .     S
C1113  H2375   1.111   .     S
C1114  H1165   1.105   .     S
C1114  H1167   1.111   .     S
C1114  H1164   1.111   .     S
C1114  C2051   1.527   1_654 S
C1115  H1173   1.110   .     S
C1115  N1188   1.445   .     S
C1115  H1174   1.110   .     S
C1115  H1175   1.110   .     S
C1116  H1180   1.110   .     S
C1116  H1179   1.111   .     S
C1116  H1178   1.110   .     S
C1116  N1189   1.446   .     S
C1117  C2327   1.413   .     S
C1118  C2325   1.414   .     S
C1119  C1120   1.411   .     A
C1119  C2324   1.414   1_554 S
C1120  H1144   1.075   .     S
C1120  C1121   1.403   .     A
C1121  C2323   1.413   1_554 S
H1124  N1184   1.030   .     S
H1128  N1185   1.031   .     S
H1131  C831    1.112   1_655 S
H1140  C301    1.110   1_565 S
H1146  C299    1.112   1_565 S
H1147  C299    1.112   1_565 S
H1156  N1186   1.031   .     S
H1160  N1187   1.031   .     S
H1169  C2319   1.111   1_554 S
H1170  C2318   1.109   1_554 S
H1172  N1188   1.031   .     S
H1176  N1189   1.029   .     S
H1182  C2302   1.112   .     S
O1190  Zn1203  1.952   .     S
O1190  Zn1206  1.931   .     S
O1190  Zn1205  1.965   .     S
O1190  Zn1204  1.965   .     S
O1191  Zn1204  1.937   .     S
O1192  Zn1206  1.940   .     S
O1193  Zn1205  1.937   .     S
O1194  Zn1203  1.930   .     S
O1195  Zn1203  1.947   .     S
O1196  Zn1206  1.951   .     S
O1197  Zn1204  1.940   .     S
O1198  Zn1205  1.946   .     S
O1199  Zn1206  1.957   .     S
O1200  Zn1203  1.953   .     S
O1201  Zn1204  1.940   .     S
O1202  Zn1205  1.935   .     S
C1207  O1333   1.276   .     A
C1207  O1331   1.265   .     A
C1207  C1217   1.442   .     S
C1208  C1252   1.416   .     A
C1208  N1323   1.427   .     S
C1208  C1209   1.407   .     A
C1209  N1321   1.424   .     S
C1209  C5      1.425   1_556 S
C1210  O1332   1.296   .     A
C1210  O1334   1.270   .     A
C1210  C1216   1.464   .     S
C1211  C1212   1.434   .     A
C1211  C1213   1.424   .     A
C1212  C1215   1.449   .     A
C1212  C1253   1.438   .     A
C1213  C1214   1.398   .     A
C1213  N1318   1.427   .     S
C1214  C1226   1.405   .     A
C1214  N1320   1.430   .     S
C1215  C1226   1.420   .     A
C1215  C1241   1.548   .     S
C1216  C1351   1.366   .     S
C1216  N1453   1.424   .     S
C1217  C1484   1.366   1_455 S
C1217  C1502   1.537   1_455 S
C1218  C1227   1.418   .     A
C1218  C1225   1.419   .     A
C1218  N1322   1.424   .     S
C1219  C1222   1.453   .     S
C1219  C1622   1.352   .     S
C1219  H1658   1.089   .     S
C1220  C1237   1.533   .     S
C1220  C1221   1.433   .     S
C1220  C2023   1.352   1_545 S
C1221  O1329   1.272   .     A
C1221  O1335   1.280   .     A
C1222  O1336   1.287   .     A
C1222  O1330   1.267   .     A
C1223  C1226   1.453   .     S
C1223  O1327   1.283   .     A
C1223  O1325   1.293   .     A
C1224  O1326   1.280   .     A
C1224  C1225   1.474   .     S
C1224  O1328   1.281   .     A
C1225  C1229   1.397   .     A
C1227  C1251   1.419   .     A
C1227  C1246   1.526   .     S
C1228  C1255   1.517   .     S
C1228  C1230   1.528   .     S
C1228  H1317   1.103   .     S
C1228  H1257   1.112   .     S
C1229  C1240   1.392   .     A
C1229  H1267   1.079   .     S
C1230  H1315   1.110   .     S
C1230  C1633   1.526   .     S
C1231  H1311   1.098   .     S
C1231  H1300   1.111   .     S
C1231  H1289   1.111   .     S
C1231  C2034   1.526   1_545 S
C1232  H1261   1.106   .     S
C1232  H1260   1.110   .     S
C1232  H1259   1.110   .     S
C1232  N1318   1.446   .     S
C1233  H1263   1.110   .     S
C1233  N1319   1.449   .     S
C1233  H1264   1.111   .     S
C1233  H1533   1.112   1_455 S
C1234  H1273   1.112   .     S
C1234  H1272   1.112   .     S
C1234  C1351   1.537   .     S
C1234  C1369   1.540   .     S
C1235  H1270   1.110   .     S
C1235  H1271   1.112   .     S
C1235  C1502   1.540   1_455 S
C1235  C1504   1.528   1_455 S
C1236  H1266   1.110   .     S
C1236  H1268   1.111   .     S
C1236  H1269   1.109   .     S
C1236  C1369   1.528   .     S
C1237  C1238   1.544   .     S
C1237  H2084   1.112   1_545 S
C1237  H2085   1.112   1_545 S
C1238  H1277   1.111   .     S
C1238  H1279   1.111   .     S
C1238  C1239   1.522   .     S
C1239  H1275   1.109   .     S
C1239  H1276   1.109   .     S
C1239  H2078   1.110   1_545 S
C1240  C1252   1.425   .     A
C1240  C1251   1.408   .     A
C1241  C1242   1.537   .     S
C1241  H1287   1.108   .     S
C1241  H1288   1.109   .     S
C1242  C1243   1.530   .     S
C1242  H1285   1.111   .     S
C1242  H1286   1.106   .     S
C1243  H1283   1.111   .     S
C1243  H1282   1.112   .     S
C1243  H1284   1.105   .     S
C1244  H1292   1.108   .     S
C1244  N1320   1.448   .     S
C1244  H1291   1.110   .     S
C1244  H1293   1.109   .     S
C1245  H1296   1.109   .     S
C1245  H1297   1.110   .     S
C1245  N1321   1.447   .     S
C1245  H1295   1.109   .     S
C1246  H1305   1.109   .     S
C1246  C1247   1.533   .     S
C1246  H98     1.109   1_556 S
C1247  H1302   1.109   .     S
C1247  C310    1.527   1_456 S
C1247  H97     1.111   1_556 S
C1248  H1299   1.105   .     S
C1248  H1301   1.111   .     S
C1248  H1298   1.111   .     S
C1249  H1307   1.110   .     S
C1249  N1322   1.445   .     S
C1249  H1308   1.110   .     S
C1249  H1309   1.110   .     S
C1250  H1314   1.110   .     S
C1250  H1313   1.111   .     S
C1250  H1312   1.110   .     S
C1250  N1323   1.446   .     S
C1251  C49     1.413   1_556 S
C1252  C47     1.414   1_556 S
C1253  C1254   1.411   .     A
C1254  H1278   1.075   .     S
C1254  C1255   1.403   .     A
H1256  C2023   1.089   1_545 S
H1258  N1318   1.030   .     S
H1262  N1319   1.031   .     S
H1265  C1367   1.112   .     S
H1274  C1641   1.110   .     S
H1280  C1639   1.112   .     S
H1281  C1639   1.112   .     S
H1290  N1320   1.031   .     S
H1294  N1321   1.031   .     S
H1306  N1322   1.031   .     S
H1310  N1323   1.029   .     S
H1316  C24     1.112   1_556 S
N1319  C1484   1.424   1_455 S
O1324  Zn1337  1.952   .     S
O1324  Zn1340  1.931   .     S
O1324  Zn1339  1.965   .     S
O1324  Zn1338  1.965   .     S
O1325  Zn1338  1.937   .     S
O1326  Zn1340  1.940   .     S
O1327  Zn1339  1.937   .     S
O1328  Zn1337  1.930   .     S
O1329  Zn1337  1.947   .     S
O1330  Zn1340  1.951   .     S
O1331  Zn1338  1.940   .     S
O1332  Zn1339  1.946   .     S
O1333  Zn1340  1.957   .     S
O1334  Zn1337  1.953   .     S
O1335  Zn1338  1.940   .     S
O1336  Zn1339  1.935   .     S
C1341  O1467   1.276   .     A
C1341  O1465   1.265   .     A
C1341  C1351   1.442   .     S
C1342  C1386   1.416   .     A
C1342  N1457   1.427   .     S
C1342  C1343   1.407   .     A
C1343  N1455   1.424   .     S
C1343  C139    1.425   1_556 S
C1344  O1466   1.296   .     A
C1344  O1468   1.270   .     A
C1344  C1350   1.464   .     S
C1345  C1346   1.434   .     A
C1345  C1347   1.424   .     A
C1346  C1349   1.449   .     A
C1346  C1387   1.438   .     A
C1347  C1348   1.398   .     A
C1347  N1452   1.427   .     S
C1348  C1360   1.405   .     A
C1348  N1454   1.430   .     S
C1349  C1360   1.420   .     A
C1349  C1375   1.548   .     S
C1350  C1485   1.366   .     S
C1350  N1587   1.424   .     S
C1352  C1361   1.418   .     A
C1352  C1359   1.419   .     A
C1352  N1456   1.424   .     S
C1353  C1356   1.453   .     S
C1353  C1756   1.352   .     S
C1353  H1792   1.089   .     S
C1354  C1371   1.533   .     S
C1354  C1355   1.433   .     S
C1354  C2157   1.352   1_545 S
C1355  O1463   1.272   .     A
C1355  O1469   1.280   .     A
C1356  O1470   1.287   .     A
C1356  O1464   1.267   .     A
C1357  C1360   1.453   .     S
C1357  O1461   1.283   .     A
C1357  O1459   1.293   .     A
C1358  O1460   1.280   .     A
C1358  C1359   1.474   .     S
C1358  O1462   1.281   .     A
C1359  C1363   1.397   .     A
C1361  C1385   1.419   .     A
C1361  C1380   1.526   .     S
C1362  C1389   1.517   .     S
C1362  C1364   1.528   .     S
C1362  H1451   1.103   .     S
C1362  H1391   1.112   .     S
C1363  C1374   1.392   .     A
C1363  H1401   1.079   .     S
C1364  H1449   1.110   .     S
C1364  C1767   1.526   .     S
C1365  H1445   1.098   .     S
C1365  H1434   1.111   .     S
C1365  H1423   1.111   .     S
C1365  C2168   1.526   1_545 S
C1366  H1395   1.106   .     S
C1366  H1394   1.110   .     S
C1366  H1393   1.110   .     S
C1366  N1452   1.446   .     S
C1367  H1397   1.110   .     S
C1367  N1453   1.449   .     S
C1367  H1398   1.111   .     S
C1368  H1407   1.112   .     S
C1368  H1406   1.112   .     S
C1368  C1485   1.537   .     S
C1368  C1503   1.540   .     S
C1369  H1404   1.110   .     S
C1369  H1405   1.112   .     S
C1370  H1400   1.110   .     S
C1370  H1402   1.111   .     S
C1370  H1403   1.109   .     S
C1370  C1503   1.528   .     S
C1371  C1372   1.544   .     S
C1371  H2218   1.112   1_545 S
C1371  H2219   1.112   1_545 S
C1372  H1411   1.111   .     S
C1372  H1413   1.111   .     S
C1372  C1373   1.522   .     S
C1373  H1409   1.109   .     S
C1373  H1410   1.109   .     S
C1373  H2212   1.110   1_545 S
C1374  C1386   1.425   .     A
C1374  C1385   1.408   .     A
C1375  C1376   1.537   .     S
C1375  H1421   1.108   .     S
C1375  H1422   1.109   .     S
C1376  C1377   1.530   .     S
C1376  H1419   1.111   .     S
C1376  H1420   1.106   .     S
C1377  H1417   1.111   .     S
C1377  H1416   1.112   .     S
C1377  H1418   1.105   .     S
C1378  H1426   1.108   .     S
C1378  N1454   1.448   .     S
C1378  H1425   1.110   .     S
C1378  H1427   1.109   .     S
C1379  H1430   1.109   .     S
C1379  H1431   1.110   .     S
C1379  N1455   1.447   .     S
C1379  H1429   1.109   .     S
C1380  H1439   1.109   .     S
C1380  C1381   1.533   .     S
C1380  H232    1.109   1_556 S
C1381  H1436   1.109   .     S
C1381  C42     1.527   1_556 S
C1381  H231    1.111   1_556 S
C1382  H1433   1.105   .     S
C1382  H1435   1.111   .     S
C1382  H1432   1.111   .     S
C1383  H1441   1.110   .     S
C1383  N1456   1.445   .     S
C1383  H1442   1.110   .     S
C1383  H1443   1.110   .     S
C1384  H1448   1.110   .     S
C1384  H1447   1.111   .     S
C1384  H1446   1.110   .     S
C1384  N1457   1.446   .     S
C1385  C183    1.413   1_556 S
C1386  C181    1.414   1_556 S
C1387  C1388   1.411   .     A
C1388  H1412   1.075   .     S
C1388  C1389   1.403   .     A
H1390  C2157   1.089   1_545 S
H1392  N1452   1.030   .     S
H1396  N1453   1.031   .     S
H1399  C1501   1.112   .     S
H1408  C1775   1.110   .     S
H1414  C1773   1.112   .     S
H1415  C1773   1.112   .     S
H1424  N1454   1.031   .     S
H1428  N1455   1.031   .     S
H1440  N1456   1.031   .     S
H1444  N1457   1.029   .     S
H1450  C158    1.112   1_556 S
O1458  Zn1471  1.952   .     S
O1458  Zn1474  1.931   .     S
O1458  Zn1473  1.965   .     S
O1458  Zn1472  1.965   .     S
O1459  Zn1472  1.937   .     S
O1460  Zn1474  1.940   .     S
O1461  Zn1473  1.937   .     S
O1462  Zn1471  1.930   .     S
O1463  Zn1471  1.947   .     S
O1464  Zn1474  1.951   .     S
O1465  Zn1472  1.940   .     S
O1466  Zn1473  1.946   .     S
O1467  Zn1474  1.957   .     S
O1468  Zn1471  1.953   .     S
O1469  Zn1472  1.940   .     S
O1470  Zn1473  1.935   .     S
C1475  O1601   1.276   .     A
C1475  O1599   1.265   .     A
C1475  C1485   1.442   .     S
C1476  C1520   1.416   .     A
C1476  N1591   1.427   .     S
C1476  C1477   1.407   .     A
C1477  N1589   1.424   .     S
C1477  C273    1.425   1_556 S
C1478  O1600   1.296   .     A
C1478  O1602   1.270   .     A
C1478  C1484   1.464   .     S
C1479  C1480   1.434   .     A
C1479  C1481   1.424   .     A
C1480  C1483   1.449   .     A
C1480  C1521   1.438   .     A
C1481  C1482   1.398   .     A
C1481  N1586   1.427   .     S
C1482  C1494   1.405   .     A
C1482  N1588   1.430   .     S
C1483  C1494   1.420   .     A
C1483  C1509   1.548   .     S
C1484  C1217   1.366   1_655 S
C1484  N1319   1.424   1_655 S
C1486  C1495   1.418   .     A
C1486  C1493   1.419   .     A
C1486  N1590   1.424   .     S
C1487  C1490   1.453   .     S
C1487  C1890   1.352   .     S
C1487  H1926   1.089   .     S
C1488  C1505   1.533   .     S
C1488  C1489   1.433   .     S
C1488  C2291   1.352   1_545 S
C1489  O1597   1.272   .     A
C1489  O1603   1.280   .     A
C1490  O1604   1.287   .     A
C1490  O1598   1.267   .     A
C1491  C1494   1.453   .     S
C1491  O1595   1.283   .     A
C1491  O1593   1.293   .     A
C1492  O1594   1.280   .     A
C1492  C1493   1.474   .     S
C1492  O1596   1.281   .     A
C1493  C1497   1.397   .     A
C1495  C1519   1.419   .     A
C1495  C1514   1.526   .     S
C1496  C1523   1.517   .     S
C1496  C1498   1.528   .     S
C1496  H1585   1.103   .     S
C1496  H1525   1.112   .     S
C1497  C1508   1.392   .     A
C1497  H1535   1.079   .     S
C1498  H1583   1.110   .     S
C1498  C1901   1.526   .     S
C1499  H1579   1.098   .     S
C1499  H1568   1.111   .     S
C1499  H1557   1.111   .     S
C1499  C2302   1.526   1_545 S
C1500  H1529   1.106   .     S
C1500  H1528   1.110   .     S
C1500  H1527   1.110   .     S
C1500  N1586   1.446   .     S
C1501  H1531   1.110   .     S
C1501  N1587   1.449   .     S
C1501  H1532   1.111   .     S
C1502  H1541   1.112   .     S
C1502  H1540   1.112   .     S
C1502  C1217   1.537   1_655 S
C1502  C1235   1.540   1_655 S
C1503  H1538   1.110   .     S
C1503  H1539   1.112   .     S
C1504  H1534   1.110   .     S
C1504  H1536   1.111   .     S
C1504  H1537   1.109   .     S
C1504  C1235   1.528   1_655 S
C1505  C1506   1.544   .     S
C1505  H2352   1.112   1_545 S
C1505  H2353   1.112   1_545 S
C1506  H1545   1.111   .     S
C1506  H1547   1.111   .     S
C1506  C1507   1.522   .     S
C1507  H1543   1.109   .     S
C1507  H1544   1.109   .     S
C1507  H2346   1.110   1_545 S
C1508  C1520   1.425   .     A
C1508  C1519   1.408   .     A
C1509  C1510   1.537   .     S
C1509  H1555   1.108   .     S
C1509  H1556   1.109   .     S
C1510  C1511   1.530   .     S
C1510  H1553   1.111   .     S
C1510  H1554   1.106   .     S
C1511  H1551   1.111   .     S
C1511  H1550   1.112   .     S
C1511  H1552   1.105   .     S
C1512  H1560   1.108   .     S
C1512  N1588   1.448   .     S
C1512  H1559   1.110   .     S
C1512  H1561   1.109   .     S
C1513  H1564   1.109   .     S
C1513  H1565   1.110   .     S
C1513  N1589   1.447   .     S
C1513  H1563   1.109   .     S
C1514  H1573   1.109   .     S
C1514  C1515   1.533   .     S
C1514  H366    1.109   1_556 S
C1515  H1570   1.109   .     S
C1515  C176    1.527   1_556 S
C1515  H365    1.111   1_556 S
C1516  H1567   1.105   .     S
C1516  H1569   1.111   .     S
C1516  H1566   1.111   .     S
C1516  C41     1.527   1_655 S
C1517  H1575   1.110   .     S
C1517  N1590   1.445   .     S
C1517  H1576   1.110   .     S
C1517  H1577   1.110   .     S
C1518  H1582   1.110   .     S
C1518  H1581   1.111   .     S
C1518  H1580   1.110   .     S
C1518  N1591   1.446   .     S
C1519  C317    1.413   1_556 S
C1520  C315    1.414   1_556 S
C1521  C1522   1.411   .     A
C1522  H1546   1.075   .     S
C1522  C1523   1.403   .     A
H1524  C2291   1.089   1_545 S
H1526  N1586   1.030   .     S
H1530  N1587   1.031   .     S
H1533  C1233   1.112   1_655 S
H1542  C1909   1.110   .     S
H1548  C1907   1.112   .     S
H1549  C1907   1.112   .     S
H1558  N1588   1.031   .     S
H1562  N1589   1.031   .     S
H1574  N1590   1.031   .     S
H1578  N1591   1.029   .     S
H1584  C292    1.112   1_556 S
O1592  Zn1605  1.952   .     S
O1592  Zn1608  1.931   .     S
O1592  Zn1607  1.965   .     S
O1592  Zn1606  1.965   .     S
O1593  Zn1606  1.937   .     S
O1594  Zn1608  1.940   .     S
O1595  Zn1607  1.937   .     S
O1596  Zn1605  1.930   .     S
O1597  Zn1605  1.947   .     S
O1598  Zn1608  1.951   .     S
O1599  Zn1606  1.940   .     S
O1600  Zn1607  1.946   .     S
O1601  Zn1608  1.957   .     S
O1602  Zn1605  1.953   .     S
O1603  Zn1606  1.940   .     S
O1604  Zn1607  1.935   .     S
C1609  O1735   1.276   .     A
C1609  O1733   1.265   .     A
C1609  C1619   1.442   .     S
C1610  C1654   1.416   .     A
C1610  N1725   1.427   .     S
C1610  C1611   1.407   .     A
C1611  N1723   1.424   .     S
C1611  C407    1.425   1_556 S
C1612  O1734   1.296   .     A
C1612  O1736   1.270   .     A
C1612  C1618   1.464   .     S
C1613  C1614   1.434   .     A
C1613  C1615   1.424   .     A
C1614  C1617   1.449   .     A
C1614  C1655   1.438   .     A
C1615  C1616   1.398   .     A
C1615  N1720   1.427   .     S
C1616  C1628   1.405   .     A
C1616  N1722   1.430   .     S
C1617  C1628   1.420   .     A
C1617  C1643   1.548   .     S
C1618  C1753   1.366   .     S
C1618  N1855   1.424   .     S
C1619  C1886   1.366   1_455 S
C1619  C1904   1.537   1_455 S
C1620  C1629   1.418   .     A
C1620  C1627   1.419   .     A
C1620  N1724   1.424   .     S
C1621  C1624   1.453   .     S
C1621  C2024   1.352   .     S
C1621  H2060   1.089   .     S
C1622  C1639   1.533   .     S
C1622  C1623   1.433   .     S
C1623  O1731   1.272   .     A
C1623  O1737   1.280   .     A
C1624  O1738   1.287   .     A
C1624  O1732   1.267   .     A
C1625  C1628   1.453   .     S
C1625  O1729   1.283   .     A
C1625  O1727   1.293   .     A
C1626  O1728   1.280   .     A
C1626  C1627   1.474   .     S
C1626  O1730   1.281   .     A
C1627  C1631   1.397   .     A
C1629  C1653   1.419   .     A
C1629  C1648   1.526   .     S
C1630  C1657   1.517   .     S
C1630  C1632   1.528   .     S
C1630  H1719   1.103   .     S
C1630  H1659   1.112   .     S
C1631  C1642   1.392   .     A
C1631  H1669   1.079   .     S
C1632  H1717   1.110   .     S
C1632  C2035   1.526   .     S
C1633  H1713   1.098   .     S
C1633  H1702   1.111   .     S
C1633  H1691   1.111   .     S
C1634  H1663   1.106   .     S
C1634  H1662   1.110   .     S
C1634  H1661   1.110   .     S
C1634  N1720   1.446   .     S
C1635  H1665   1.110   .     S
C1635  N1721   1.449   .     S
C1635  H1666   1.111   .     S
C1635  H1935   1.112   1_455 S
C1636  H1675   1.112   .     S
C1636  H1674   1.112   .     S
C1636  C1753   1.537   .     S
C1636  C1771   1.540   .     S
C1637  H1672   1.110   .     S
C1637  H1673   1.112   .     S
C1637  C1904   1.540   1_455 S
C1637  C1906   1.528   1_455 S
C1638  H1668   1.110   .     S
C1638  H1670   1.111   .     S
C1638  H1671   1.109   .     S
C1638  C1771   1.528   .     S
C1639  C1640   1.544   .     S
C1640  H1679   1.111   .     S
C1640  H1681   1.111   .     S
C1640  C1641   1.522   .     S
C1641  H1677   1.109   .     S
C1641  H1678   1.109   .     S
C1642  C1654   1.425   .     A
C1642  C1653   1.408   .     A
C1643  C1644   1.537   .     S
C1643  H1689   1.108   .     S
C1643  H1690   1.109   .     S
C1644  C1645   1.530   .     S
C1644  H1687   1.111   .     S
C1644  H1688   1.106   .     S
C1645  H1685   1.111   .     S
C1645  H1684   1.112   .     S
C1645  H1686   1.105   .     S
C1646  H1694   1.108   .     S
C1646  N1722   1.448   .     S
C1646  H1693   1.110   .     S
C1646  H1695   1.109   .     S
C1647  H1698   1.109   .     S
C1647  H1699   1.110   .     S
C1647  N1723   1.447   .     S
C1647  H1697   1.109   .     S
C1648  H1707   1.109   .     S
C1648  C1649   1.533   .     S
C1648  H500    1.109   1_556 S
C1649  H1704   1.109   .     S
C1649  C712    1.527   1_456 S
C1649  H499    1.111   1_556 S
C1650  H1701   1.105   .     S
C1650  H1703   1.111   .     S
C1650  H1700   1.111   .     S
C1651  H1709   1.110   .     S
C1651  N1724   1.445   .     S
C1651  H1710   1.110   .     S
C1651  H1711   1.110   .     S
C1652  H1716   1.110   .     S
C1652  H1715   1.111   .     S
C1652  H1714   1.110   .     S
C1652  N1725   1.446   .     S
C1653  C451    1.413   1_556 S
C1654  C449    1.414   1_556 S
C1655  C1656   1.411   .     A
C1656  H1680   1.075   .     S
C1656  C1657   1.403   .     A
H1660  N1720   1.030   .     S
H1664  N1721   1.031   .     S
H1667  C1769   1.112   .     S
H1676  C2043   1.110   .     S
H1682  C2041   1.112   .     S
H1683  C2041   1.112   .     S
H1692  N1722   1.031   .     S
H1696  N1723   1.031   .     S
H1708  N1724   1.031   .     S
H1712  N1725   1.029   .     S
H1718  C426    1.112   1_556 S
N1721  C1886   1.424   1_455 S
O1726  Zn1739  1.952   .     S
O1726  Zn1742  1.931   .     S
O1726  Zn1741  1.965   .     S
O1726  Zn1740  1.965   .     S
O1727  Zn1740  1.937   .     S
O1728  Zn1742  1.940   .     S
O1729  Zn1741  1.937   .     S
O1730  Zn1739  1.930   .     S
O1731  Zn1739  1.947   .     S
O1732  Zn1742  1.951   .     S
O1733  Zn1740  1.940   .     S
O1734  Zn1741  1.946   .     S
O1735  Zn1742  1.957   .     S
O1736  Zn1739  1.953   .     S
O1737  Zn1740  1.940   .     S
O1738  Zn1741  1.935   .     S
C1743  O1869   1.276   .     A
C1743  O1867   1.265   .     A
C1743  C1753   1.442   .     S
C1744  C1788   1.416   .     A
C1744  N1859   1.427   .     S
C1744  C1745   1.407   .     A
C1745  N1857   1.424   .     S
C1745  C541    1.425   1_556 S
C1746  O1868   1.296   .     A
C1746  O1870   1.270   .     A
C1746  C1752   1.464   .     S
C1747  C1748   1.434   .     A
C1747  C1749   1.424   .     A
C1748  C1751   1.449   .     A
C1748  C1789   1.438   .     A
C1749  C1750   1.398   .     A
C1749  N1854   1.427   .     S
C1750  C1762   1.405   .     A
C1750  N1856   1.430   .     S
C1751  C1762   1.420   .     A
C1751  C1777   1.548   .     S
C1752  C1887   1.366   .     S
C1752  N1989   1.424   .     S
C1754  C1763   1.418   .     A
C1754  C1761   1.419   .     A
C1754  N1858   1.424   .     S
C1755  C1758   1.453   .     S
C1755  C2158   1.352   .     S
C1755  H2194   1.089   .     S
C1756  C1773   1.533   .     S
C1756  C1757   1.433   .     S
C1757  O1865   1.272   .     A
C1757  O1871   1.280   .     A
C1758  O1872   1.287   .     A
C1758  O1866   1.267   .     A
C1759  C1762   1.453   .     S
C1759  O1863   1.283   .     A
C1759  O1861   1.293   .     A
C1760  O1862   1.280   .     A
C1760  C1761   1.474   .     S
C1760  O1864   1.281   .     A
C1761  C1765   1.397   .     A
C1763  C1787   1.419   .     A
C1763  C1782   1.526   .     S
C1764  C1791   1.517   .     S
C1764  C1766   1.528   .     S
C1764  H1853   1.103   .     S
C1764  H1793   1.112   .     S
C1765  C1776   1.392   .     A
C1765  H1803   1.079   .     S
C1766  H1851   1.110   .     S
C1766  C2169   1.526   .     S
C1767  H1847   1.098   .     S
C1767  H1836   1.111   .     S
C1767  H1825   1.111   .     S
C1768  H1797   1.106   .     S
C1768  H1796   1.110   .     S
C1768  H1795   1.110   .     S
C1768  N1854   1.446   .     S
C1769  H1799   1.110   .     S
C1769  N1855   1.449   .     S
C1769  H1800   1.111   .     S
C1770  H1809   1.112   .     S
C1770  H1808   1.112   .     S
C1770  C1887   1.537   .     S
C1770  C1905   1.540   .     S
C1771  H1806   1.110   .     S
C1771  H1807   1.112   .     S
C1772  H1802   1.110   .     S
C1772  H1804   1.111   .     S
C1772  H1805   1.109   .     S
C1772  C1905   1.528   .     S
C1773  C1774   1.544   .     S
C1774  H1813   1.111   .     S
C1774  H1815   1.111   .     S
C1774  C1775   1.522   .     S
C1775  H1811   1.109   .     S
C1775  H1812   1.109   .     S
C1776  C1788   1.425   .     A
C1776  C1787   1.408   .     A
C1777  C1778   1.537   .     S
C1777  H1823   1.108   .     S
C1777  H1824   1.109   .     S
C1778  C1779   1.530   .     S
C1778  H1821   1.111   .     S
C1778  H1822   1.106   .     S
C1779  H1819   1.111   .     S
C1779  H1818   1.112   .     S
C1779  H1820   1.105   .     S
C1780  H1828   1.108   .     S
C1780  N1856   1.448   .     S
C1780  H1827   1.110   .     S
C1780  H1829   1.109   .     S
C1781  H1832   1.109   .     S
C1781  H1833   1.110   .     S
C1781  N1857   1.447   .     S
C1781  H1831   1.109   .     S
C1782  H1841   1.109   .     S
C1782  C1783   1.533   .     S
C1782  H634    1.109   1_556 S
C1783  H1838   1.109   .     S
C1783  C444    1.527   1_556 S
C1783  H633    1.111   1_556 S
C1784  H1835   1.105   .     S
C1784  H1837   1.111   .     S
C1784  H1834   1.111   .     S
C1785  H1843   1.110   .     S
C1785  N1858   1.445   .     S
C1785  H1844   1.110   .     S
C1785  H1845   1.110   .     S
C1786  H1850   1.110   .     S
C1786  H1849   1.111   .     S
C1786  H1848   1.110   .     S
C1786  N1859   1.446   .     S
C1787  C585    1.413   1_556 S
C1788  C583    1.414   1_556 S
C1789  C1790   1.411   .     A
C1790  H1814   1.075   .     S
C1790  C1791   1.403   .     A
H1794  N1854   1.030   .     S
H1798  N1855   1.031   .     S
H1801  C1903   1.112   .     S
H1810  C2177   1.110   .     S
H1816  C2175   1.112   .     S
H1817  C2175   1.112   .     S
H1826  N1856   1.031   .     S
H1830  N1857   1.031   .     S
H1842  N1858   1.031   .     S
H1846  N1859   1.029   .     S
H1852  C560    1.112   1_556 S
O1860  Zn1873  1.952   .     S
O1860  Zn1876  1.931   .     S
O1860  Zn1875  1.965   .     S
O1860  Zn1874  1.965   .     S
O1861  Zn1874  1.937   .     S
O1862  Zn1876  1.940   .     S
O1863  Zn1875  1.937   .     S
O1864  Zn1873  1.930   .     S
O1865  Zn1873  1.947   .     S
O1866  Zn1876  1.951   .     S
O1867  Zn1874  1.940   .     S
O1868  Zn1875  1.946   .     S
O1869  Zn1876  1.957   .     S
O1870  Zn1873  1.953   .     S
O1871  Zn1874  1.940   .     S
O1872  Zn1875  1.935   .     S
C1877  O2003   1.276   .     A
C1877  O2001   1.265   .     A
C1877  C1887   1.442   .     S
C1878  C1922   1.416   .     A
C1878  N1993   1.427   .     S
C1878  C1879   1.407   .     A
C1879  N1991   1.424   .     S
C1879  C675    1.425   1_556 S
C1880  O2002   1.296   .     A
C1880  O2004   1.270   .     A
C1880  C1886   1.464   .     S
C1881  C1882   1.434   .     A
C1881  C1883   1.424   .     A
C1882  C1885   1.449   .     A
C1882  C1923   1.438   .     A
C1883  C1884   1.398   .     A
C1883  N1988   1.427   .     S
C1884  C1896   1.405   .     A
C1884  N1990   1.430   .     S
C1885  C1896   1.420   .     A
C1885  C1911   1.548   .     S
C1886  C1619   1.366   1_655 S
C1886  N1721   1.424   1_655 S
C1888  C1897   1.418   .     A
C1888  C1895   1.419   .     A
C1888  N1992   1.424   .     S
C1889  C1892   1.453   .     S
C1889  C2292   1.352   .     S
C1889  H2328   1.089   .     S
C1890  C1907   1.533   .     S
C1890  C1891   1.433   .     S
C1891  O1999   1.272   .     A
C1891  O2005   1.280   .     A
C1892  O2006   1.287   .     A
C1892  O2000   1.267   .     A
C1893  C1896   1.453   .     S
C1893  O1997   1.283   .     A
C1893  O1995   1.293   .     A
C1894  O1996   1.280   .     A
C1894  C1895   1.474   .     S
C1894  O1998   1.281   .     A
C1895  C1899   1.397   .     A
C1897  C1921   1.419   .     A
C1897  C1916   1.526   .     S
C1898  C1925   1.517   .     S
C1898  C1900   1.528   .     S
C1898  H1987   1.103   .     S
C1898  H1927   1.112   .     S
C1899  C1910   1.392   .     A
C1899  H1937   1.079   .     S
C1900  H1985   1.110   .     S
C1900  C2303   1.526   .     S
C1901  H1981   1.098   .     S
C1901  H1970   1.111   .     S
C1901  H1959   1.111   .     S
C1902  H1931   1.106   .     S
C1902  H1930   1.110   .     S
C1902  H1929   1.110   .     S
C1902  N1988   1.446   .     S
C1903  H1933   1.110   .     S
C1903  N1989   1.449   .     S
C1903  H1934   1.111   .     S
C1904  H1943   1.112   .     S
C1904  H1942   1.112   .     S
C1904  C1619   1.537   1_655 S
C1904  C1637   1.540   1_655 S
C1905  H1940   1.110   .     S
C1905  H1941   1.112   .     S
C1906  H1936   1.110   .     S
C1906  H1938   1.111   .     S
C1906  H1939   1.109   .     S
C1906  C1637   1.528   1_655 S
C1907  C1908   1.544   .     S
C1908  H1947   1.111   .     S
C1908  H1949   1.111   .     S
C1908  C1909   1.522   .     S
C1909  H1945   1.109   .     S
C1909  H1946   1.109   .     S
C1910  C1922   1.425   .     A
C1910  C1921   1.408   .     A
C1911  C1912   1.537   .     S
C1911  H1957   1.108   .     S
C1911  H1958   1.109   .     S
C1912  C1913   1.530   .     S
C1912  H1955   1.111   .     S
C1912  H1956   1.106   .     S
C1913  H1953   1.111   .     S
C1913  H1952   1.112   .     S
C1913  H1954   1.105   .     S
C1914  H1962   1.108   .     S
C1914  N1990   1.448   .     S
C1914  H1961   1.110   .     S
C1914  H1963   1.109   .     S
C1915  H1966   1.109   .     S
C1915  H1967   1.110   .     S
C1915  N1991   1.447   .     S
C1915  H1965   1.109   .     S
C1916  H1975   1.109   .     S
C1916  C1917   1.533   .     S
C1916  H768    1.109   1_556 S
C1917  H1972   1.109   .     S
C1917  C578    1.527   1_556 S
C1917  H767    1.111   1_556 S
C1918  H1969   1.105   .     S
C1918  H1971   1.111   .     S
C1918  H1968   1.111   .     S
C1918  C443    1.527   1_655 S
C1919  H1977   1.110   .     S
C1919  N1992   1.445   .     S
C1919  H1978   1.110   .     S
C1919  H1979   1.110   .     S
C1920  H1984   1.110   .     S
C1920  H1983   1.111   .     S
C1920  H1982   1.110   .     S
C1920  N1993   1.446   .     S
C1921  C719    1.413   1_556 S
C1922  C717    1.414   1_556 S
C1923  C1924   1.411   .     A
C1924  H1948   1.075   .     S
C1924  C1925   1.403   .     A
H1928  N1988   1.030   .     S
H1932  N1989   1.031   .     S
H1935  C1635   1.112   1_655 S
H1944  C2311   1.110   .     S
H1950  C2309   1.112   .     S
H1951  C2309   1.112   .     S
H1960  N1990   1.031   .     S
H1964  N1991   1.031   .     S
H1976  N1992   1.031   .     S
H1980  N1993   1.029   .     S
H1986  C694    1.112   1_556 S
O1994  Zn2007  1.952   .     S
O1994  Zn2010  1.931   .     S
O1994  Zn2009  1.965   .     S
O1994  Zn2008  1.965   .     S
O1995  Zn2008  1.937   .     S
O1996  Zn2010  1.940   .     S
O1997  Zn2009  1.937   .     S
O1998  Zn2007  1.930   .     S
O1999  Zn2007  1.947   .     S
O2000  Zn2010  1.951   .     S
O2001  Zn2008  1.940   .     S
O2002  Zn2009  1.946   .     S
O2003  Zn2010  1.957   .     S
O2004  Zn2007  1.953   .     S
O2005  Zn2008  1.940   .     S
O2006  Zn2009  1.935   .     S
C2011  O2137   1.276   .     A
C2011  O2135   1.265   .     A
C2011  C2021   1.442   .     S
C2012  C2056   1.416   .     A
C2012  N2127   1.427   .     S
C2012  C2013   1.407   .     A
C2013  N2125   1.424   .     S
C2013  C809    1.425   1_556 S
C2014  O2136   1.296   .     A
C2014  O2138   1.270   .     A
C2014  C2020   1.464   .     S
C2015  C2016   1.434   .     A
C2015  C2017   1.424   .     A
C2016  C2019   1.449   .     A
C2016  C2057   1.438   .     A
C2017  C2018   1.398   .     A
C2017  N2122   1.427   .     S
C2018  C2030   1.405   .     A
C2018  N2124   1.430   .     S
C2019  C2030   1.420   .     A
C2019  C2045   1.548   .     S
C2020  C2155   1.366   .     S
C2020  N2257   1.424   .     S
C2021  C2288   1.366   1_455 S
C2021  C2306   1.537   1_455 S
C2022  C2031   1.418   .     A
C2022  C2029   1.419   .     A
C2022  N2126   1.424   .     S
C2023  C2026   1.453   .     S
C2023  C1220   1.352   1_565 S
C2023  H1256   1.089   1_565 S
C2024  C2041   1.533   .     S
C2024  C2025   1.433   .     S
C2025  O2133   1.272   .     A
C2025  O2139   1.280   .     A
C2026  O2140   1.287   .     A
C2026  O2134   1.267   .     A
C2027  C2030   1.453   .     S
C2027  O2131   1.283   .     A
C2027  O2129   1.293   .     A
C2028  O2130   1.280   .     A
C2028  C2029   1.474   .     S
C2028  O2132   1.281   .     A
C2029  C2033   1.397   .     A
C2031  C2055   1.419   .     A
C2031  C2050   1.526   .     S
C2032  C2059   1.517   .     S
C2032  C2034   1.528   .     S
C2032  H2121   1.103   .     S
C2032  H2061   1.112   .     S
C2033  C2044   1.392   .     A
C2033  H2071   1.079   .     S
C2034  H2119   1.110   .     S
C2034  C1231   1.526   1_565 S
C2035  H2115   1.098   .     S
C2035  H2104   1.111   .     S
C2035  H2093   1.111   .     S
C2036  H2065   1.106   .     S
C2036  H2064   1.110   .     S
C2036  H2063   1.110   .     S
C2036  N2122   1.446   .     S
C2037  H2067   1.110   .     S
C2037  N2123   1.449   .     S
C2037  H2068   1.111   .     S
C2037  H2337   1.112   1_455 S
C2038  H2077   1.112   .     S
C2038  H2076   1.112   .     S
C2038  C2155   1.537   .     S
C2038  C2173   1.540   .     S
C2039  H2074   1.110   .     S
C2039  H2075   1.112   .     S
C2039  C2306   1.540   1_455 S
C2039  C2308   1.528   1_455 S
C2040  H2070   1.110   .     S
C2040  H2072   1.111   .     S
C2040  H2073   1.109   .     S
C2040  C2173   1.528   .     S
C2041  C2042   1.544   .     S
C2042  H2081   1.111   .     S
C2042  H2083   1.111   .     S
C2042  C2043   1.522   .     S
C2043  H2079   1.109   .     S
C2043  H2080   1.109   .     S
C2044  C2056   1.425   .     A
C2044  C2055   1.408   .     A
C2045  C2046   1.537   .     S
C2045  H2091   1.108   .     S
C2045  H2092   1.109   .     S
C2046  C2047   1.530   .     S
C2046  H2089   1.111   .     S
C2046  H2090   1.106   .     S
C2047  H2087   1.111   .     S
C2047  H2086   1.112   .     S
C2047  H2088   1.105   .     S
C2048  H2096   1.108   .     S
C2048  N2124   1.448   .     S
C2048  H2095   1.110   .     S
C2048  H2097   1.109   .     S
C2049  H2100   1.109   .     S
C2049  H2101   1.110   .     S
C2049  N2125   1.447   .     S
C2049  H2099   1.109   .     S
C2050  H2109   1.109   .     S
C2050  C2051   1.533   .     S
C2050  H902    1.109   1_556 S
C2051  H2106   1.109   .     S
C2051  C1114   1.527   1_456 S
C2051  H901    1.111   1_556 S
C2052  H2103   1.105   .     S
C2052  H2105   1.111   .     S
C2052  H2102   1.111   .     S
C2053  H2111   1.110   .     S
C2053  N2126   1.445   .     S
C2053  H2112   1.110   .     S
C2053  H2113   1.110   .     S
C2054  H2118   1.110   .     S
C2054  H2117   1.111   .     S
C2054  H2116   1.110   .     S
C2054  N2127   1.446   .     S
C2055  C853    1.413   1_556 S
C2056  C851    1.414   1_556 S
C2057  C2058   1.411   .     A
C2058  H2082   1.075   .     S
C2058  C2059   1.403   .     A
H2062  N2122   1.030   .     S
H2066  N2123   1.031   .     S
H2069  C2171   1.112   .     S
H2078  C1239   1.110   1_565 S
H2084  C1237   1.112   1_565 S
H2085  C1237   1.112   1_565 S
H2094  N2124   1.031   .     S
H2098  N2125   1.031   .     S
H2110  N2126   1.031   .     S
H2114  N2127   1.029   .     S
H2120  C828    1.112   1_556 S
N2123  C2288   1.424   1_455 S
O2128  Zn2141  1.952   .     S
O2128  Zn2144  1.931   .     S
O2128  Zn2143  1.965   .     S
O2128  Zn2142  1.965   .     S
O2129  Zn2142  1.937   .     S
O2130  Zn2144  1.940   .     S
O2131  Zn2143  1.937   .     S
O2132  Zn2141  1.930   .     S
O2133  Zn2141  1.947   .     S
O2134  Zn2144  1.951   .     S
O2135  Zn2142  1.940   .     S
O2136  Zn2143  1.946   .     S
O2137  Zn2144  1.957   .     S
O2138  Zn2141  1.953   .     S
O2139  Zn2142  1.940   .     S
O2140  Zn2143  1.935   .     S
C2145  O2271   1.276   .     A
C2145  O2269   1.265   .     A
C2145  C2155   1.442   .     S
C2146  C2190   1.416   .     A
C2146  N2261   1.427   .     S
C2146  C2147   1.407   .     A
C2147  N2259   1.424   .     S
C2147  C943    1.425   1_556 S
C2148  O2270   1.296   .     A
C2148  O2272   1.270   .     A
C2148  C2154   1.464   .     S
C2149  C2150   1.434   .     A
C2149  C2151   1.424   .     A
C2150  C2153   1.449   .     A
C2150  C2191   1.438   .     A
C2151  C2152   1.398   .     A
C2151  N2256   1.427   .     S
C2152  C2164   1.405   .     A
C2152  N2258   1.430   .     S
C2153  C2164   1.420   .     A
C2153  C2179   1.548   .     S
C2154  C2289   1.366   .     S
C2154  N2391   1.424   .     S
C2156  C2165   1.418   .     A
C2156  C2163   1.419   .     A
C2156  N2260   1.424   .     S
C2157  C2160   1.453   .     S
C2157  C1354   1.352   1_565 S
C2157  H1390   1.089   1_565 S
C2158  C2175   1.533   .     S
C2158  C2159   1.433   .     S
C2159  O2267   1.272   .     A
C2159  O2273   1.280   .     A
C2160  O2274   1.287   .     A
C2160  O2268   1.267   .     A
C2161  C2164   1.453   .     S
C2161  O2265   1.283   .     A
C2161  O2263   1.293   .     A
C2162  O2264   1.280   .     A
C2162  C2163   1.474   .     S
C2162  O2266   1.281   .     A
C2163  C2167   1.397   .     A
C2165  C2189   1.419   .     A
C2165  C2184   1.526   .     S
C2166  C2193   1.517   .     S
C2166  C2168   1.528   .     S
C2166  H2255   1.103   .     S
C2166  H2195   1.112   .     S
C2167  C2178   1.392   .     A
C2167  H2205   1.079   .     S
C2168  H2253   1.110   .     S
C2168  C1365   1.526   1_565 S
C2169  H2249   1.098   .     S
C2169  H2238   1.111   .     S
C2169  H2227   1.111   .     S
C2170  H2199   1.106   .     S
C2170  H2198   1.110   .     S
C2170  H2197   1.110   .     S
C2170  N2256   1.446   .     S
C2171  H2201   1.110   .     S
C2171  N2257   1.449   .     S
C2171  H2202   1.111   .     S
C2172  H2211   1.112   .     S
C2172  H2210   1.112   .     S
C2172  C2289   1.537   .     S
C2172  C2307   1.540   .     S
C2173  H2208   1.110   .     S
C2173  H2209   1.112   .     S
C2174  H2204   1.110   .     S
C2174  H2206   1.111   .     S
C2174  H2207   1.109   .     S
C2174  C2307   1.528   .     S
C2175  C2176   1.544   .     S
C2176  H2215   1.111   .     S
C2176  H2217   1.111   .     S
C2176  C2177   1.522   .     S
C2177  H2213   1.109   .     S
C2177  H2214   1.109   .     S
C2178  C2190   1.425   .     A
C2178  C2189   1.408   .     A
C2179  C2180   1.537   .     S
C2179  H2225   1.108   .     S
C2179  H2226   1.109   .     S
C2180  C2181   1.530   .     S
C2180  H2223   1.111   .     S
C2180  H2224   1.106   .     S
C2181  H2221   1.111   .     S
C2181  H2220   1.112   .     S
C2181  H2222   1.105   .     S
C2182  H2230   1.108   .     S
C2182  N2258   1.448   .     S
C2182  H2229   1.110   .     S
C2182  H2231   1.109   .     S
C2183  H2234   1.109   .     S
C2183  H2235   1.110   .     S
C2183  N2259   1.447   .     S
C2183  H2233   1.109   .     S
C2184  H2243   1.109   .     S
C2184  C2185   1.533   .     S
C2184  H1036   1.109   1_556 S
C2185  H2240   1.109   .     S
C2185  C846    1.527   1_556 S
C2185  H1035   1.111   1_556 S
C2186  H2237   1.105   .     S
C2186  H2239   1.111   .     S
C2186  H2236   1.111   .     S
C2187  H2245   1.110   .     S
C2187  N2260   1.445   .     S
C2187  H2246   1.110   .     S
C2187  H2247   1.110   .     S
C2188  H2252   1.110   .     S
C2188  H2251   1.111   .     S
C2188  H2250   1.110   .     S
C2188  N2261   1.446   .     S
C2189  C987    1.413   1_556 S
C2190  C985    1.414   1_556 S
C2191  C2192   1.411   .     A
C2192  H2216   1.075   .     S
C2192  C2193   1.403   .     A
H2196  N2256   1.030   .     S
H2200  N2257   1.031   .     S
H2203  C2305   1.112   .     S
H2212  C1373   1.110   1_565 S
H2218  C1371   1.112   1_565 S
H2219  C1371   1.112   1_565 S
H2228  N2258   1.031   .     S
H2232  N2259   1.031   .     S
H2244  N2260   1.031   .     S
H2248  N2261   1.029   .     S
H2254  C962    1.112   1_556 S
O2262  Zn2275  1.952   .     S
O2262  Zn2278  1.931   .     S
O2262  Zn2277  1.965   .     S
O2262  Zn2276  1.965   .     S
O2263  Zn2276  1.937   .     S
O2264  Zn2278  1.940   .     S
O2265  Zn2277  1.937   .     S
O2266  Zn2275  1.930   .     S
O2267  Zn2275  1.947   .     S
O2268  Zn2278  1.951   .     S
O2269  Zn2276  1.940   .     S
O2270  Zn2277  1.946   .     S
O2271  Zn2278  1.957   .     S
O2272  Zn2275  1.953   .     S
O2273  Zn2276  1.940   .     S
O2274  Zn2277  1.935   .     S
C2279  O2405   1.276   .     A
C2279  O2403   1.265   .     A
C2279  C2289   1.442   .     S
C2280  C2324   1.416   .     A
C2280  N2395   1.427   .     S
C2280  C2281   1.407   .     A
C2281  N2393   1.424   .     S
C2281  C1077   1.425   1_556 S
C2282  O2404   1.296   .     A
C2282  O2406   1.270   .     A
C2282  C2288   1.464   .     S
C2283  C2284   1.434   .     A
C2283  C2285   1.424   .     A
C2284  C2287   1.449   .     A
C2284  C2325   1.438   .     A
C2285  C2286   1.398   .     A
C2285  N2390   1.427   .     S
C2286  C2298   1.405   .     A
C2286  N2392   1.430   .     S
C2287  C2298   1.420   .     A
C2287  C2313   1.548   .     S
C2288  C2021   1.366   1_655 S
C2288  N2123   1.424   1_655 S
C2290  C2299   1.418   .     A
C2290  C2297   1.419   .     A
C2290  N2394   1.424   .     S
C2291  C2294   1.453   .     S
C2291  C1488   1.352   1_565 S
C2291  H1524   1.089   1_565 S
C2292  C2309   1.533   .     S
C2292  C2293   1.433   .     S
C2293  O2401   1.272   .     A
C2293  O2407   1.280   .     A
C2294  O2408   1.287   .     A
C2294  O2402   1.267   .     A
C2295  C2298   1.453   .     S
C2295  O2399   1.283   .     A
C2295  O2397   1.293   .     A
C2296  O2398   1.280   .     A
C2296  C2297   1.474   .     S
C2296  O2400   1.281   .     A
C2297  C2301   1.397   .     A
C2299  C2323   1.419   .     A
C2299  C2318   1.526   .     S
C2300  C2327   1.517   .     S
C2300  C2302   1.528   .     S
C2300  H2389   1.103   .     S
C2300  H2329   1.112   .     S
C2301  C2312   1.392   .     A
C2301  H2339   1.079   .     S
C2302  H2387   1.110   .     S
C2302  C1499   1.526   1_565 S
C2303  H2383   1.098   .     S
C2303  H2372   1.111   .     S
C2303  H2361   1.111   .     S
C2304  H2333   1.106   .     S
C2304  H2332   1.110   .     S
C2304  H2331   1.110   .     S
C2304  N2390   1.446   .     S
C2305  H2335   1.110   .     S
C2305  N2391   1.449   .     S
C2305  H2336   1.111   .     S
C2306  H2345   1.112   .     S
C2306  H2344   1.112   .     S
C2306  C2021   1.537   1_655 S
C2306  C2039   1.540   1_655 S
C2307  H2342   1.110   .     S
C2307  H2343   1.112   .     S
C2308  H2338   1.110   .     S
C2308  H2340   1.111   .     S
C2308  H2341   1.109   .     S
C2308  C2039   1.528   1_655 S
C2309  C2310   1.544   .     S
C2310  H2349   1.111   .     S
C2310  H2351   1.111   .     S
C2310  C2311   1.522   .     S
C2311  H2347   1.109   .     S
C2311  H2348   1.109   .     S
C2312  C2324   1.425   .     A
C2312  C2323   1.408   .     A
C2313  C2314   1.537   .     S
C2313  H2359   1.108   .     S
C2313  H2360   1.109   .     S
C2314  C2315   1.530   .     S
C2314  H2357   1.111   .     S
C2314  H2358   1.106   .     S
C2315  H2355   1.111   .     S
C2315  H2354   1.112   .     S
C2315  H2356   1.105   .     S
C2316  H2364   1.108   .     S
C2316  N2392   1.448   .     S
C2316  H2363   1.110   .     S
C2316  H2365   1.109   .     S
C2317  H2368   1.109   .     S
C2317  H2369   1.110   .     S
C2317  N2393   1.447   .     S
C2317  H2367   1.109   .     S
C2318  H2377   1.109   .     S
C2318  C2319   1.533   .     S
C2318  H1170   1.109   1_556 S
C2319  H2374   1.109   .     S
C2319  C980    1.527   1_556 S
C2319  H1169   1.111   1_556 S
C2320  H2371   1.105   .     S
C2320  H2373   1.111   .     S
C2320  H2370   1.111   .     S
C2320  C845    1.527   1_655 S
C2321  H2379   1.110   .     S
C2321  N2394   1.445   .     S
C2321  H2380   1.110   .     S
C2321  H2381   1.110   .     S
C2322  H2386   1.110   .     S
C2322  H2385   1.111   .     S
C2322  H2384   1.110   .     S
C2322  N2395   1.446   .     S
C2323  C1121   1.413   1_556 S
C2324  C1119   1.414   1_556 S
C2325  C2326   1.411   .     A
C2326  H2350   1.075   .     S
C2326  C2327   1.403   .     A
H2330  N2390   1.030   .     S
H2334  N2391   1.031   .     S
H2337  C2037   1.112   1_655 S
H2346  C1507   1.110   1_565 S
H2352  C1505   1.112   1_565 S
H2353  C1505   1.112   1_565 S
H2362  N2392   1.031   .     S
H2366  N2393   1.031   .     S
H2378  N2394   1.031   .     S
H2382  N2395   1.029   .     S
H2388  C1096   1.112   1_556 S
O2396  Zn2409  1.952   .     S
O2396  Zn2412  1.931   .     S
O2396  Zn2411  1.965   .     S
O2396  Zn2410  1.965   .     S
O2397  Zn2410  1.937   .     S
O2398  Zn2412  1.940   .     S
O2399  Zn2411  1.937   .     S
O2400  Zn2409  1.930   .     S
O2401  Zn2409  1.947   .     S
O2402  Zn2412  1.951   .     S
O2403  Zn2410  1.940   .     S
O2404  Zn2411  1.946   .     S
O2405  Zn2412  1.957   .     S
O2406  Zn2409  1.953   .     S
O2407  Zn2410  1.940   .     S
O2408  Zn2411  1.935   .     S
