data_str_m3_o1_o2_pcu_sym.130
_audit_creation_date              2020-01-03
_audit_creation_method            'Materials Studio'
_symmetry_space_group_name_H-M    'P1'
_symmetry_Int_Tables_number       1
_symmetry_cell_setting            triclinic
loop_
_symmetry_equiv_pos_as_xyz
  x,y,z
_cell_length_a                    32.3677
_cell_length_b                    30.0509
_cell_length_c                    29.9386
_cell_angle_alpha                 89.9297
_cell_angle_beta                  93.8907
_cell_angle_gamma                 90.6563
loop_
_atom_site_label
_atom_site_type_symbol
_atom_site_fract_x
_atom_site_fract_y
_atom_site_fract_z
_atom_site_U_iso_or_equiv
_atom_site_adp_type
_atom_site_occupancy
C1     C     0.08683   0.16669   0.24929   0.00000  Uiso   1.00
C2     C     0.24654   0.16690   0.24944   0.00000  Uiso   1.00
C3     C     0.16647   0.16664   0.16436   0.00000  Uiso   1.00
C4     C     0.16724   0.16650   0.33571   0.00000  Uiso   1.00
C5     C     0.18982   0.02434   0.28224   0.00000  Uiso   1.00
C6     C     0.14169   0.30920   0.21947   0.00000  Uiso   1.00
C7     C     0.14273   0.02355   0.21859   0.00000  Uiso   1.00
C8     C     0.19120   0.30992   0.28099   0.00000  Uiso   1.00
C9     C     0.01980   0.13147   0.22896   0.00000  Uiso   1.00
C10    C     0.31329   0.20689   0.25783   0.00000  Uiso   1.00
C11    C     0.31100   0.12892   0.23446   0.00000  Uiso   1.00
C12    C     0.02259   0.20528   0.26334   0.00000  Uiso   1.00
C13    C     0.20231   0.15067   0.05022   0.00000  Uiso   1.00
C14    C     0.13659   0.14518   0.45142   0.00000  Uiso   1.00
C15    C     0.20114   0.18910   0.45470   0.00000  Uiso   1.00
C16    C     0.13450   0.18686   0.04461   0.00000  Uiso   1.00
C17    C     0.20235   0.15149   0.09682   0.00000  Uiso   1.00
C18    C     0.13540   0.14550   0.40475   0.00000  Uiso   1.00
C19    C     0.20282   0.18466   0.40860   0.00000  Uiso   1.00
C20    C     0.13209   0.18259   0.09064   0.00000  Uiso   1.00
C21    C     0.16676   0.16658   0.11655   0.00000  Uiso   1.00
C22    C     0.16852   0.16568   0.38370   0.00000  Uiso   1.00
C23    C     0.16882   0.16935   0.02446   0.00000  Uiso   1.00
C24    C     0.16862   0.16840   0.47600   0.00000  Uiso   1.00
C25    C     0.29077   0.16746   0.24757   0.00000  Uiso   1.00
C26    C     0.04258   0.16744   0.24791   0.00000  Uiso   1.00
N27    N     0.16667   0.28573   0.25000   0.00000  Uiso   1.00
N28    N     0.16667   0.04760   0.25000   0.00000  Uiso   1.00
O29    O     0.10559   0.20487   0.25000   0.00000  Uiso   1.00
O30    O     0.22774   0.12846   0.25001   0.00000  Uiso   1.00
O31    O     0.22774   0.20487   0.25001   0.00000  Uiso   1.00
O32    O     0.10559   0.12846   0.25000   0.00000  Uiso   1.00
O33    O     0.16666   0.20489   0.18453   0.00000  Uiso   1.00
O34    O     0.16667   0.12845   0.31547   0.00000  Uiso   1.00
O35    O     0.16667   0.20489   0.31547   0.00000  Uiso   1.00
O36    O     0.16666   0.12845   0.18453   0.00000  Uiso   1.00
Zn37   Zn    0.16667   0.21771   0.25000   0.00000  Uiso   1.00
Zn38   Zn    0.16667   0.11563   0.25000   0.00000  Uiso   1.00
C39    C     0.21142   0.04939   0.32118   0.00000  Uiso   1.00
H40    H     0.22593   0.08032   0.31019   0.00000  Uiso   1.00
H41    H     0.18867   0.05647   0.34626   0.00000  Uiso   1.00
H42    H     0.23722   0.03149   0.33891   0.00000  Uiso   1.00
C43    C     0.11162   0.28539   0.18674   0.00000  Uiso   1.00
H44    H     0.11203   0.24954   0.18963   0.00000  Uiso   1.00
H45    H     0.07939   0.29465   0.19283   0.00000  Uiso   1.00
H46    H     0.11844   0.29387   0.15187   0.00000  Uiso   1.00
C47    C     0.11712   0.04707   0.18213   0.00000  Uiso   1.00
H48    H     0.11239   0.08190   0.18965   0.00000  Uiso   1.00
H49    H     0.13201   0.04434   0.14993   0.00000  Uiso   1.00
H50    H     0.08536   0.03300   0.17818   0.00000  Uiso   1.00
C51    C     0.21969   0.28662   0.31489   0.00000  Uiso   1.00
H52    H     0.22181   0.25124   0.30894   0.00000  Uiso   1.00
H53    H     0.25183   0.29941   0.31319   0.00000  Uiso   1.00
H54    H     0.20902   0.29164   0.34897   0.00000  Uiso   1.00
O55    O     0.23626   0.13440   0.02991   0.00000  Uiso   1.00
C56    C     0.22976   0.08880   0.02050   0.00000  Uiso   1.00
H57    H     0.20775   0.08434   0.49071   0.00000  Uiso   1.00
H58    H     0.21891   0.06992   0.04964   0.00000  Uiso   1.00
H59    H     0.25965   0.07427   0.01223   0.00000  Uiso   1.00
O60    O     0.10480   0.12485   0.47294   0.00000  Uiso   1.00
C61    C     0.11607   0.08082   0.48406   0.00000  Uiso   1.00
H62    H     0.13836   0.08040   0.01390   0.00000  Uiso   1.00
H63    H     0.12883   0.06283   0.45560   0.00000  Uiso   1.00
H64    H     0.08795   0.06233   0.49302   0.00000  Uiso   1.00
O65    O     0.23367   0.20991   0.47926   0.00000  Uiso   1.00
C66    C     0.22315   0.25453   0.48687   0.00000  Uiso   1.00
H67    H     0.20116   0.25657   0.01366   0.00000  Uiso   1.00
H68    H     0.21031   0.27141   0.45587   0.00000  Uiso   1.00
H69    H     0.25165   0.27301   0.49876   0.00000  Uiso   1.00
O70    O     0.10106   0.20386   0.01895   0.00000  Uiso   1.00
C71    C     0.10900   0.24903   0.00958   0.00000  Uiso   1.00
H72    H     0.13081   0.25214   0.48266   0.00000  Uiso   1.00
H73    H     0.12083   0.26799   0.03987   0.00000  Uiso   1.00
H74    H     0.07952   0.26455   0.49704   0.00000  Uiso   1.00
C75    C     0.24016   0.13657   0.12539   0.00000  Uiso   1.00
H76    H     0.23253   0.10630   0.14457   0.00000  Uiso   1.00
H77    H     0.26674   0.12863   0.10542   0.00000  Uiso   1.00
H78    H     0.25059   0.16350   0.14903   0.00000  Uiso   1.00
C79    C     0.09947   0.12352   0.37769   0.00000  Uiso   1.00
H80    H     0.08700   0.14629   0.35106   0.00000  Uiso   1.00
H81    H     0.11013   0.09263   0.36199   0.00000  Uiso   1.00
H82    H     0.07341   0.11446   0.39826   0.00000  Uiso   1.00
C83    C     0.24246   0.19809   0.38783   0.00000  Uiso   1.00
H84    H     0.24775   0.23446   0.39140   0.00000  Uiso   1.00
H85    H     0.26895   0.18077   0.40549   0.00000  Uiso   1.00
H86    H     0.24281   0.18881   0.35207   0.00000  Uiso   1.00
C87    C     0.09175   0.19405   0.11045   0.00000  Uiso   1.00
H88    H     0.09094   0.18485   0.14622   0.00000  Uiso   1.00
H89    H     0.08596   0.23022   0.10678   0.00000  Uiso   1.00
H90    H     0.06592   0.17557   0.09225   0.00000  Uiso   1.00
O91    O     0.03857   0.09968   0.20406   0.00000  Uiso   1.00
C92    C     0.02444   0.10425   0.15847   0.00000  Uiso   1.00
H93    H     0.04757   0.08989   0.13716   0.00000  Uiso   1.00
H94    H     0.02042   0.13963   0.14791   0.00000  Uiso   1.00
H95    H     0.32831   0.08547   0.15147   0.00000  Uiso   1.00
O96    O     0.29402   0.24710   0.26332   0.00000  Uiso   1.00
C97    C     0.29214   0.26975   0.22185   0.00000  Uiso   1.00
H98    H     0.26802   0.29551   0.22229   0.00000  Uiso   1.00
H99    H     0.28293   0.24762   0.19287   0.00000  Uiso   1.00
H100   H     0.32230   0.28636   0.21667   0.00000  Uiso   1.00
O101   O     0.28914   0.09039   0.22253   0.00000  Uiso   1.00
C102   C     0.29948   0.05703   0.25447   0.00000  Uiso   1.00
H103   H     0.30165   0.06981   0.28952   0.00000  Uiso   1.00
H104   H     0.32883   0.04067   0.24699   0.00000  Uiso   1.00
H105   H     0.27455   0.03153   0.25249   0.00000  Uiso   1.00
O106   O     0.04450   0.24298   0.27806   0.00000  Uiso   1.00
C107   C     0.04344   0.24607   0.32496   0.00000  Uiso   1.00
H108   H     0.06267   0.27510   0.33669   0.00000  Uiso   1.00
H109   H     0.05677   0.21608   0.34191   0.00000  Uiso   1.00
H110   H     0.01147   0.25160   0.33508   0.00000  Uiso   1.00
C111   C     0.42016   0.16669   0.24929   0.00000  Uiso   1.00
C112   C     0.57987   0.16690   0.24944   0.00000  Uiso   1.00
C113   C     0.49981   0.16664   0.16436   0.00000  Uiso   1.00
C114   C     0.50058   0.16650   0.33571   0.00000  Uiso   1.00
C115   C     0.52315   0.02434   0.28224   0.00000  Uiso   1.00
C116   C     0.47502   0.30920   0.21947   0.00000  Uiso   1.00
C117   C     0.47606   0.02355   0.21859   0.00000  Uiso   1.00
C118   C     0.52454   0.30992   0.28099   0.00000  Uiso   1.00
C119   C     0.35313   0.13147   0.22896   0.00000  Uiso   1.00
C120   C     0.64663   0.20689   0.25783   0.00000  Uiso   1.00
C121   C     0.64434   0.12892   0.23446   0.00000  Uiso   1.00
C122   C     0.35592   0.20528   0.26334   0.00000  Uiso   1.00
C123   C     0.53564   0.15067   0.05022   0.00000  Uiso   1.00
C124   C     0.46992   0.14518   0.45142   0.00000  Uiso   1.00
C125   C     0.53448   0.18910   0.45470   0.00000  Uiso   1.00
C126   C     0.46784   0.18686   0.04461   0.00000  Uiso   1.00
C127   C     0.53569   0.15149   0.09682   0.00000  Uiso   1.00
C128   C     0.46873   0.14550   0.40475   0.00000  Uiso   1.00
C129   C     0.53615   0.18466   0.40860   0.00000  Uiso   1.00
C130   C     0.46543   0.18259   0.09064   0.00000  Uiso   1.00
C131   C     0.50009   0.16658   0.11655   0.00000  Uiso   1.00
C132   C     0.50185   0.16568   0.38370   0.00000  Uiso   1.00
C133   C     0.50216   0.16935   0.02446   0.00000  Uiso   1.00
C134   C     0.50195   0.16840   0.47600   0.00000  Uiso   1.00
C135   C     0.62411   0.16746   0.24757   0.00000  Uiso   1.00
C136   C     0.37591   0.16744   0.24791   0.00000  Uiso   1.00
N137   N     0.50000   0.28573   0.25000   0.00000  Uiso   1.00
N138   N     0.50000   0.04760   0.25000   0.00000  Uiso   1.00
O139   O     0.43892   0.20487   0.25000   0.00000  Uiso   1.00
O140   O     0.56108   0.12846   0.25001   0.00000  Uiso   1.00
O141   O     0.56108   0.20487   0.25001   0.00000  Uiso   1.00
O142   O     0.43892   0.12846   0.25000   0.00000  Uiso   1.00
O143   O     0.50000   0.20489   0.18453   0.00000  Uiso   1.00
O144   O     0.50000   0.12845   0.31547   0.00000  Uiso   1.00
O145   O     0.50000   0.20489   0.31547   0.00000  Uiso   1.00
O146   O     0.50000   0.12845   0.18453   0.00000  Uiso   1.00
Zn147  Zn    0.50000   0.21771   0.25000   0.00000  Uiso   1.00
Zn148  Zn    0.50000   0.11563   0.25000   0.00000  Uiso   1.00
C149   C     0.54475   0.04939   0.32118   0.00000  Uiso   1.00
H150   H     0.55926   0.08032   0.31019   0.00000  Uiso   1.00
H151   H     0.52201   0.05647   0.34626   0.00000  Uiso   1.00
H152   H     0.57055   0.03149   0.33891   0.00000  Uiso   1.00
C153   C     0.44495   0.28539   0.18674   0.00000  Uiso   1.00
H154   H     0.44537   0.24954   0.18963   0.00000  Uiso   1.00
H155   H     0.41273   0.29465   0.19283   0.00000  Uiso   1.00
H156   H     0.45177   0.29387   0.15187   0.00000  Uiso   1.00
C157   C     0.45045   0.04707   0.18213   0.00000  Uiso   1.00
H158   H     0.44573   0.08190   0.18965   0.00000  Uiso   1.00
H159   H     0.46534   0.04434   0.14993   0.00000  Uiso   1.00
H160   H     0.41870   0.03300   0.17818   0.00000  Uiso   1.00
C161   C     0.55303   0.28662   0.31489   0.00000  Uiso   1.00
H162   H     0.55514   0.25124   0.30894   0.00000  Uiso   1.00
H163   H     0.58517   0.29941   0.31319   0.00000  Uiso   1.00
H164   H     0.54235   0.29164   0.34897   0.00000  Uiso   1.00
O165   O     0.56960   0.13440   0.02991   0.00000  Uiso   1.00
C166   C     0.56309   0.08880   0.02050   0.00000  Uiso   1.00
H167   H     0.54109   0.08434   0.49071   0.00000  Uiso   1.00
H168   H     0.55224   0.06992   0.04964   0.00000  Uiso   1.00
H169   H     0.59298   0.07427   0.01223   0.00000  Uiso   1.00
O170   O     0.43813   0.12485   0.47294   0.00000  Uiso   1.00
C171   C     0.44940   0.08082   0.48406   0.00000  Uiso   1.00
H172   H     0.47169   0.08040   0.01390   0.00000  Uiso   1.00
H173   H     0.46216   0.06283   0.45560   0.00000  Uiso   1.00
H174   H     0.42128   0.06233   0.49302   0.00000  Uiso   1.00
O175   O     0.56700   0.20991   0.47926   0.00000  Uiso   1.00
C176   C     0.55648   0.25453   0.48687   0.00000  Uiso   1.00
H177   H     0.53450   0.25657   0.01366   0.00000  Uiso   1.00
H178   H     0.54364   0.27141   0.45587   0.00000  Uiso   1.00
H179   H     0.58498   0.27301   0.49876   0.00000  Uiso   1.00
O180   O     0.43440   0.20386   0.01895   0.00000  Uiso   1.00
C181   C     0.44234   0.24903   0.00958   0.00000  Uiso   1.00
H182   H     0.46415   0.25214   0.48266   0.00000  Uiso   1.00
H183   H     0.45416   0.26799   0.03987   0.00000  Uiso   1.00
H184   H     0.41286   0.26455   0.49704   0.00000  Uiso   1.00
C185   C     0.57349   0.13657   0.12539   0.00000  Uiso   1.00
H186   H     0.56587   0.10630   0.14457   0.00000  Uiso   1.00
H187   H     0.60007   0.12863   0.10542   0.00000  Uiso   1.00
H188   H     0.58393   0.16350   0.14903   0.00000  Uiso   1.00
C189   C     0.43281   0.12352   0.37769   0.00000  Uiso   1.00
H190   H     0.42033   0.14629   0.35106   0.00000  Uiso   1.00
H191   H     0.44346   0.09263   0.36199   0.00000  Uiso   1.00
H192   H     0.40675   0.11446   0.39826   0.00000  Uiso   1.00
C193   C     0.57580   0.19809   0.38783   0.00000  Uiso   1.00
H194   H     0.58108   0.23446   0.39140   0.00000  Uiso   1.00
H195   H     0.60228   0.18077   0.40549   0.00000  Uiso   1.00
H196   H     0.57614   0.18881   0.35207   0.00000  Uiso   1.00
C197   C     0.42509   0.19405   0.11045   0.00000  Uiso   1.00
H198   H     0.42428   0.18485   0.14622   0.00000  Uiso   1.00
H199   H     0.41929   0.23022   0.10678   0.00000  Uiso   1.00
H200   H     0.39925   0.17557   0.09225   0.00000  Uiso   1.00
O201   O     0.37190   0.09968   0.20406   0.00000  Uiso   1.00
C202   C     0.35777   0.10425   0.15847   0.00000  Uiso   1.00
H203   H     0.38091   0.08989   0.13716   0.00000  Uiso   1.00
H204   H     0.35375   0.13963   0.14791   0.00000  Uiso   1.00
H205   H     0.66165   0.08547   0.15147   0.00000  Uiso   1.00
O206   O     0.62736   0.24710   0.26332   0.00000  Uiso   1.00
C207   C     0.62548   0.26975   0.22185   0.00000  Uiso   1.00
H208   H     0.60135   0.29551   0.22229   0.00000  Uiso   1.00
H209   H     0.61627   0.24762   0.19287   0.00000  Uiso   1.00
H210   H     0.65564   0.28636   0.21667   0.00000  Uiso   1.00
O211   O     0.62247   0.09039   0.22253   0.00000  Uiso   1.00
C212   C     0.63281   0.05703   0.25447   0.00000  Uiso   1.00
H213   H     0.63499   0.06981   0.28952   0.00000  Uiso   1.00
H214   H     0.66216   0.04067   0.24699   0.00000  Uiso   1.00
H215   H     0.60788   0.03153   0.25249   0.00000  Uiso   1.00
O216   O     0.37784   0.24298   0.27806   0.00000  Uiso   1.00
C217   C     0.37677   0.24607   0.32496   0.00000  Uiso   1.00
H218   H     0.39601   0.27510   0.33669   0.00000  Uiso   1.00
H219   H     0.39010   0.21608   0.34191   0.00000  Uiso   1.00
H220   H     0.34480   0.25160   0.33508   0.00000  Uiso   1.00
C221   C     0.75349   0.16669   0.24929   0.00000  Uiso   1.00
C222   C     0.91320   0.16690   0.24944   0.00000  Uiso   1.00
C223   C     0.83314   0.16664   0.16436   0.00000  Uiso   1.00
C224   C     0.83391   0.16650   0.33571   0.00000  Uiso   1.00
C225   C     0.85648   0.02434   0.28224   0.00000  Uiso   1.00
C226   C     0.80836   0.30920   0.21947   0.00000  Uiso   1.00
C227   C     0.80939   0.02355   0.21859   0.00000  Uiso   1.00
C228   C     0.85787   0.30992   0.28099   0.00000  Uiso   1.00
C229   C     0.68647   0.13147   0.22896   0.00000  Uiso   1.00
C230   C     0.97996   0.20689   0.25783   0.00000  Uiso   1.00
C231   C     0.97767   0.12892   0.23446   0.00000  Uiso   1.00
C232   C     0.68925   0.20528   0.26334   0.00000  Uiso   1.00
C233   C     0.86897   0.15067   0.05022   0.00000  Uiso   1.00
C234   C     0.80325   0.14518   0.45142   0.00000  Uiso   1.00
C235   C     0.86781   0.18910   0.45470   0.00000  Uiso   1.00
C236   C     0.80117   0.18686   0.04461   0.00000  Uiso   1.00
C237   C     0.86902   0.15149   0.09682   0.00000  Uiso   1.00
C238   C     0.80207   0.14550   0.40475   0.00000  Uiso   1.00
C239   C     0.86949   0.18466   0.40860   0.00000  Uiso   1.00
C240   C     0.79876   0.18259   0.09064   0.00000  Uiso   1.00
C241   C     0.83343   0.16658   0.11655   0.00000  Uiso   1.00
C242   C     0.83519   0.16568   0.38370   0.00000  Uiso   1.00
C243   C     0.83549   0.16935   0.02446   0.00000  Uiso   1.00
C244   C     0.83528   0.16840   0.47600   0.00000  Uiso   1.00
C245   C     0.95744   0.16746   0.24757   0.00000  Uiso   1.00
C246   C     0.70925   0.16744   0.24791   0.00000  Uiso   1.00
N247   N     0.83333   0.28573   0.25000   0.00000  Uiso   1.00
N248   N     0.83333   0.04760   0.25000   0.00000  Uiso   1.00
O249   O     0.77226   0.20487   0.25000   0.00000  Uiso   1.00
O250   O     0.89441   0.12846   0.25001   0.00000  Uiso   1.00
O251   O     0.89441   0.20487   0.25001   0.00000  Uiso   1.00
O252   O     0.77226   0.12846   0.25000   0.00000  Uiso   1.00
O253   O     0.83333   0.20489   0.18453   0.00000  Uiso   1.00
O254   O     0.83334   0.12845   0.31547   0.00000  Uiso   1.00
O255   O     0.83334   0.20489   0.31547   0.00000  Uiso   1.00
O256   O     0.83333   0.12845   0.18453   0.00000  Uiso   1.00
Zn257  Zn    0.83333   0.21771   0.25000   0.00000  Uiso   1.00
Zn258  Zn    0.83333   0.11563   0.25000   0.00000  Uiso   1.00
C259   C     0.87808   0.04939   0.32118   0.00000  Uiso   1.00
H260   H     0.89259   0.08032   0.31019   0.00000  Uiso   1.00
H261   H     0.85534   0.05647   0.34626   0.00000  Uiso   1.00
H262   H     0.90388   0.03149   0.33891   0.00000  Uiso   1.00
C263   C     0.77829   0.28539   0.18674   0.00000  Uiso   1.00
H264   H     0.77870   0.24954   0.18963   0.00000  Uiso   1.00
H265   H     0.74606   0.29465   0.19283   0.00000  Uiso   1.00
H266   H     0.78511   0.29387   0.15187   0.00000  Uiso   1.00
C267   C     0.78379   0.04707   0.18213   0.00000  Uiso   1.00
H268   H     0.77906   0.08190   0.18965   0.00000  Uiso   1.00
H269   H     0.79868   0.04434   0.14993   0.00000  Uiso   1.00
H270   H     0.75203   0.03300   0.17818   0.00000  Uiso   1.00
C271   C     0.88636   0.28662   0.31489   0.00000  Uiso   1.00
H272   H     0.88847   0.25124   0.30894   0.00000  Uiso   1.00
H273   H     0.91850   0.29941   0.31319   0.00000  Uiso   1.00
H274   H     0.87568   0.29164   0.34897   0.00000  Uiso   1.00
O275   O     0.90293   0.13440   0.02991   0.00000  Uiso   1.00
C276   C     0.89642   0.08880   0.02050   0.00000  Uiso   1.00
H277   H     0.87442   0.08434   0.49071   0.00000  Uiso   1.00
H278   H     0.88557   0.06992   0.04964   0.00000  Uiso   1.00
H279   H     0.92631   0.07427   0.01223   0.00000  Uiso   1.00
O280   O     0.77147   0.12485   0.47294   0.00000  Uiso   1.00
C281   C     0.78273   0.08082   0.48406   0.00000  Uiso   1.00
H282   H     0.80503   0.08040   0.01390   0.00000  Uiso   1.00
H283   H     0.79550   0.06283   0.45560   0.00000  Uiso   1.00
H284   H     0.75461   0.06233   0.49302   0.00000  Uiso   1.00
O285   O     0.90033   0.20991   0.47926   0.00000  Uiso   1.00
C286   C     0.88982   0.25453   0.48687   0.00000  Uiso   1.00
H287   H     0.86783   0.25657   0.01366   0.00000  Uiso   1.00
H288   H     0.87697   0.27141   0.45587   0.00000  Uiso   1.00
H289   H     0.91831   0.27301   0.49876   0.00000  Uiso   1.00
O290   O     0.76773   0.20386   0.01895   0.00000  Uiso   1.00
C291   C     0.77567   0.24903   0.00958   0.00000  Uiso   1.00
H292   H     0.79748   0.25214   0.48266   0.00000  Uiso   1.00
H293   H     0.78750   0.26799   0.03987   0.00000  Uiso   1.00
H294   H     0.74619   0.26455   0.49704   0.00000  Uiso   1.00
C295   C     0.90683   0.13657   0.12539   0.00000  Uiso   1.00
H296   H     0.89920   0.10630   0.14457   0.00000  Uiso   1.00
H297   H     0.93340   0.12863   0.10542   0.00000  Uiso   1.00
H298   H     0.91726   0.16350   0.14903   0.00000  Uiso   1.00
C299   C     0.76614   0.12352   0.37769   0.00000  Uiso   1.00
H300   H     0.75367   0.14629   0.35106   0.00000  Uiso   1.00
H301   H     0.77679   0.09263   0.36199   0.00000  Uiso   1.00
H302   H     0.74008   0.11446   0.39826   0.00000  Uiso   1.00
C303   C     0.90913   0.19809   0.38783   0.00000  Uiso   1.00
H304   H     0.91442   0.23446   0.39140   0.00000  Uiso   1.00
H305   H     0.93562   0.18077   0.40549   0.00000  Uiso   1.00
H306   H     0.90948   0.18881   0.35207   0.00000  Uiso   1.00
C307   C     0.75842   0.19405   0.11045   0.00000  Uiso   1.00
H308   H     0.75761   0.18485   0.14622   0.00000  Uiso   1.00
H309   H     0.75262   0.23022   0.10678   0.00000  Uiso   1.00
H310   H     0.73259   0.17557   0.09225   0.00000  Uiso   1.00
O311   O     0.70523   0.09968   0.20406   0.00000  Uiso   1.00
C312   C     0.69110   0.10425   0.15847   0.00000  Uiso   1.00
H313   H     0.71424   0.08989   0.13716   0.00000  Uiso   1.00
H314   H     0.68709   0.13963   0.14791   0.00000  Uiso   1.00
H315   H     0.99498   0.08547   0.15147   0.00000  Uiso   1.00
O316   O     0.96069   0.24710   0.26332   0.00000  Uiso   1.00
C317   C     0.95881   0.26975   0.22185   0.00000  Uiso   1.00
H318   H     0.93469   0.29551   0.22229   0.00000  Uiso   1.00
H319   H     0.94960   0.24762   0.19287   0.00000  Uiso   1.00
H320   H     0.98897   0.28636   0.21667   0.00000  Uiso   1.00
O321   O     0.95580   0.09039   0.22253   0.00000  Uiso   1.00
C322   C     0.96615   0.05703   0.25447   0.00000  Uiso   1.00
H323   H     0.96832   0.06981   0.28952   0.00000  Uiso   1.00
H324   H     0.99549   0.04067   0.24699   0.00000  Uiso   1.00
H325   H     0.94121   0.03153   0.25249   0.00000  Uiso   1.00
O326   O     0.71117   0.24298   0.27806   0.00000  Uiso   1.00
C327   C     0.71011   0.24607   0.32496   0.00000  Uiso   1.00
H328   H     0.72934   0.27510   0.33669   0.00000  Uiso   1.00
H329   H     0.72344   0.21608   0.34191   0.00000  Uiso   1.00
H330   H     0.67813   0.25160   0.33508   0.00000  Uiso   1.00
C331   C     0.08683   0.50002   0.24929   0.00000  Uiso   1.00
C332   C     0.24654   0.50024   0.24944   0.00000  Uiso   1.00
C333   C     0.16647   0.49998   0.16436   0.00000  Uiso   1.00
C334   C     0.16724   0.49983   0.33571   0.00000  Uiso   1.00
C335   C     0.18982   0.35768   0.28224   0.00000  Uiso   1.00
C336   C     0.14169   0.64253   0.21947   0.00000  Uiso   1.00
C337   C     0.14273   0.35689   0.21859   0.00000  Uiso   1.00
C338   C     0.19120   0.64325   0.28099   0.00000  Uiso   1.00
C339   C     0.01980   0.46481   0.22896   0.00000  Uiso   1.00
C340   C     0.31329   0.54023   0.25783   0.00000  Uiso   1.00
C341   C     0.31100   0.46225   0.23446   0.00000  Uiso   1.00
C342   C     0.02259   0.53861   0.26334   0.00000  Uiso   1.00
C343   C     0.20231   0.48400   0.05022   0.00000  Uiso   1.00
C344   C     0.13659   0.47852   0.45142   0.00000  Uiso   1.00
C345   C     0.20114   0.52244   0.45470   0.00000  Uiso   1.00
C346   C     0.13450   0.52019   0.04461   0.00000  Uiso   1.00
C347   C     0.20235   0.48482   0.09682   0.00000  Uiso   1.00
C348   C     0.13540   0.47884   0.40475   0.00000  Uiso   1.00
C349   C     0.20282   0.51799   0.40860   0.00000  Uiso   1.00
C350   C     0.13209   0.51592   0.09064   0.00000  Uiso   1.00
C351   C     0.16676   0.49991   0.11655   0.00000  Uiso   1.00
C352   C     0.16852   0.49902   0.38370   0.00000  Uiso   1.00
C353   C     0.16882   0.50269   0.02446   0.00000  Uiso   1.00
C354   C     0.16862   0.50173   0.47600   0.00000  Uiso   1.00
C355   C     0.29077   0.50079   0.24757   0.00000  Uiso   1.00
C356   C     0.04258   0.50077   0.24791   0.00000  Uiso   1.00
N357   N     0.16667   0.61907   0.25000   0.00000  Uiso   1.00
N358   N     0.16667   0.38093   0.25000   0.00000  Uiso   1.00
O359   O     0.10559   0.53821   0.25000   0.00000  Uiso   1.00
O360   O     0.22774   0.46179   0.25001   0.00000  Uiso   1.00
O361   O     0.22774   0.53821   0.25001   0.00000  Uiso   1.00
O362   O     0.10559   0.46179   0.25000   0.00000  Uiso   1.00
O363   O     0.16666   0.53822   0.18453   0.00000  Uiso   1.00
O364   O     0.16667   0.46178   0.31547   0.00000  Uiso   1.00
O365   O     0.16667   0.53822   0.31547   0.00000  Uiso   1.00
O366   O     0.16666   0.46178   0.18453   0.00000  Uiso   1.00
Zn367  Zn    0.16667   0.55104   0.25000   0.00000  Uiso   1.00
Zn368  Zn    0.16667   0.44896   0.25000   0.00000  Uiso   1.00
C369   C     0.21142   0.38273   0.32118   0.00000  Uiso   1.00
H370   H     0.22593   0.41365   0.31019   0.00000  Uiso   1.00
H371   H     0.18867   0.38981   0.34626   0.00000  Uiso   1.00
H372   H     0.23722   0.36482   0.33891   0.00000  Uiso   1.00
C373   C     0.11162   0.61872   0.18674   0.00000  Uiso   1.00
H374   H     0.11203   0.58288   0.18963   0.00000  Uiso   1.00
H375   H     0.07939   0.62799   0.19283   0.00000  Uiso   1.00
H376   H     0.11844   0.62721   0.15187   0.00000  Uiso   1.00
C377   C     0.11712   0.38041   0.18213   0.00000  Uiso   1.00
H378   H     0.11239   0.41523   0.18965   0.00000  Uiso   1.00
H379   H     0.13201   0.37767   0.14993   0.00000  Uiso   1.00
H380   H     0.08536   0.36634   0.17818   0.00000  Uiso   1.00
C381   C     0.21969   0.61995   0.31489   0.00000  Uiso   1.00
H382   H     0.22181   0.58457   0.30894   0.00000  Uiso   1.00
H383   H     0.25183   0.63274   0.31319   0.00000  Uiso   1.00
H384   H     0.20902   0.62497   0.34897   0.00000  Uiso   1.00
O385   O     0.23626   0.46773   0.02991   0.00000  Uiso   1.00
C386   C     0.22976   0.42213   0.02050   0.00000  Uiso   1.00
H387   H     0.20775   0.41768   0.49071   0.00000  Uiso   1.00
H388   H     0.21891   0.40325   0.04964   0.00000  Uiso   1.00
H389   H     0.25965   0.40760   0.01223   0.00000  Uiso   1.00
O390   O     0.10480   0.45818   0.47294   0.00000  Uiso   1.00
C391   C     0.11607   0.41415   0.48406   0.00000  Uiso   1.00
H392   H     0.13836   0.41374   0.01390   0.00000  Uiso   1.00
H393   H     0.12883   0.39616   0.45560   0.00000  Uiso   1.00
H394   H     0.08795   0.39567   0.49302   0.00000  Uiso   1.00
O395   O     0.23367   0.54324   0.47926   0.00000  Uiso   1.00
C396   C     0.22315   0.58786   0.48687   0.00000  Uiso   1.00
H397   H     0.20116   0.58990   0.01366   0.00000  Uiso   1.00
H398   H     0.21031   0.60474   0.45587   0.00000  Uiso   1.00
H399   H     0.25165   0.60634   0.49876   0.00000  Uiso   1.00
O400   O     0.10106   0.53720   0.01895   0.00000  Uiso   1.00
C401   C     0.10900   0.58236   0.00958   0.00000  Uiso   1.00
H402   H     0.13081   0.58548   0.48266   0.00000  Uiso   1.00
H403   H     0.12083   0.60132   0.03987   0.00000  Uiso   1.00
H404   H     0.07952   0.59788   0.49704   0.00000  Uiso   1.00
C405   C     0.24016   0.46990   0.12539   0.00000  Uiso   1.00
H406   H     0.23253   0.43963   0.14457   0.00000  Uiso   1.00
H407   H     0.26674   0.46196   0.10542   0.00000  Uiso   1.00
H408   H     0.25059   0.49683   0.14903   0.00000  Uiso   1.00
C409   C     0.09947   0.45686   0.37769   0.00000  Uiso   1.00
H410   H     0.08700   0.47962   0.35106   0.00000  Uiso   1.00
H411   H     0.11013   0.42597   0.36199   0.00000  Uiso   1.00
H412   H     0.07341   0.44780   0.39826   0.00000  Uiso   1.00
C413   C     0.24246   0.53142   0.38783   0.00000  Uiso   1.00
H414   H     0.24775   0.56780   0.39140   0.00000  Uiso   1.00
H415   H     0.26895   0.51410   0.40549   0.00000  Uiso   1.00
H416   H     0.24281   0.52215   0.35207   0.00000  Uiso   1.00
C417   C     0.09175   0.52739   0.11045   0.00000  Uiso   1.00
H418   H     0.09094   0.51818   0.14622   0.00000  Uiso   1.00
H419   H     0.08596   0.56355   0.10678   0.00000  Uiso   1.00
H420   H     0.06592   0.50890   0.09225   0.00000  Uiso   1.00
O421   O     0.03857   0.43301   0.20406   0.00000  Uiso   1.00
C422   C     0.02444   0.43758   0.15847   0.00000  Uiso   1.00
H423   H     0.04757   0.42323   0.13716   0.00000  Uiso   1.00
H424   H     0.02042   0.47297   0.14791   0.00000  Uiso   1.00
H425   H     0.32831   0.41881   0.15147   0.00000  Uiso   1.00
O426   O     0.29402   0.58044   0.26332   0.00000  Uiso   1.00
C427   C     0.29214   0.60308   0.22185   0.00000  Uiso   1.00
H428   H     0.26802   0.62885   0.22229   0.00000  Uiso   1.00
H429   H     0.28293   0.58096   0.19287   0.00000  Uiso   1.00
H430   H     0.32230   0.61970   0.21667   0.00000  Uiso   1.00
O431   O     0.28914   0.42372   0.22253   0.00000  Uiso   1.00
C432   C     0.29948   0.39036   0.25447   0.00000  Uiso   1.00
H433   H     0.30165   0.40315   0.28952   0.00000  Uiso   1.00
H434   H     0.32883   0.37400   0.24699   0.00000  Uiso   1.00
H435   H     0.27455   0.36486   0.25249   0.00000  Uiso   1.00
O436   O     0.04450   0.57631   0.27806   0.00000  Uiso   1.00
C437   C     0.04344   0.57941   0.32496   0.00000  Uiso   1.00
H438   H     0.06267   0.60844   0.33669   0.00000  Uiso   1.00
H439   H     0.05677   0.54941   0.34191   0.00000  Uiso   1.00
H440   H     0.01147   0.58493   0.33508   0.00000  Uiso   1.00
C441   C     0.42016   0.50002   0.24929   0.00000  Uiso   1.00
C442   C     0.57987   0.50024   0.24944   0.00000  Uiso   1.00
C443   C     0.49981   0.49998   0.16436   0.00000  Uiso   1.00
C444   C     0.50058   0.49983   0.33571   0.00000  Uiso   1.00
C445   C     0.52315   0.35768   0.28224   0.00000  Uiso   1.00
C446   C     0.47502   0.64253   0.21947   0.00000  Uiso   1.00
C447   C     0.47606   0.35689   0.21859   0.00000  Uiso   1.00
C448   C     0.52454   0.64325   0.28099   0.00000  Uiso   1.00
C449   C     0.35313   0.46481   0.22896   0.00000  Uiso   1.00
C450   C     0.64663   0.54023   0.25783   0.00000  Uiso   1.00
C451   C     0.64434   0.46225   0.23446   0.00000  Uiso   1.00
C452   C     0.35592   0.53861   0.26334   0.00000  Uiso   1.00
C453   C     0.53564   0.48400   0.05022   0.00000  Uiso   1.00
C454   C     0.46992   0.47852   0.45142   0.00000  Uiso   1.00
C455   C     0.53448   0.52244   0.45470   0.00000  Uiso   1.00
C456   C     0.46784   0.52019   0.04461   0.00000  Uiso   1.00
C457   C     0.53569   0.48482   0.09682   0.00000  Uiso   1.00
C458   C     0.46873   0.47884   0.40475   0.00000  Uiso   1.00
C459   C     0.53615   0.51799   0.40860   0.00000  Uiso   1.00
C460   C     0.46543   0.51592   0.09064   0.00000  Uiso   1.00
C461   C     0.50009   0.49991   0.11655   0.00000  Uiso   1.00
C462   C     0.50185   0.49902   0.38370   0.00000  Uiso   1.00
C463   C     0.50216   0.50269   0.02446   0.00000  Uiso   1.00
C464   C     0.50195   0.50173   0.47600   0.00000  Uiso   1.00
C465   C     0.62411   0.50079   0.24757   0.00000  Uiso   1.00
C466   C     0.37591   0.50077   0.24791   0.00000  Uiso   1.00
N467   N     0.50000   0.61907   0.25000   0.00000  Uiso   1.00
N468   N     0.50000   0.38093   0.25000   0.00000  Uiso   1.00
O469   O     0.43892   0.53821   0.25000   0.00000  Uiso   1.00
O470   O     0.56108   0.46179   0.25001   0.00000  Uiso   1.00
O471   O     0.56108   0.53821   0.25001   0.00000  Uiso   1.00
O472   O     0.43892   0.46179   0.25000   0.00000  Uiso   1.00
O473   O     0.50000   0.53822   0.18453   0.00000  Uiso   1.00
O474   O     0.50000   0.46178   0.31547   0.00000  Uiso   1.00
O475   O     0.50000   0.53822   0.31547   0.00000  Uiso   1.00
O476   O     0.50000   0.46178   0.18453   0.00000  Uiso   1.00
Zn477  Zn    0.50000   0.55104   0.25000   0.00000  Uiso   1.00
Zn478  Zn    0.50000   0.44896   0.25000   0.00000  Uiso   1.00
C479   C     0.54475   0.38273   0.32118   0.00000  Uiso   1.00
H480   H     0.55926   0.41365   0.31019   0.00000  Uiso   1.00
H481   H     0.52201   0.38981   0.34626   0.00000  Uiso   1.00
H482   H     0.57055   0.36482   0.33891   0.00000  Uiso   1.00
C483   C     0.44495   0.61872   0.18674   0.00000  Uiso   1.00
H484   H     0.44537   0.58288   0.18963   0.00000  Uiso   1.00
H485   H     0.41273   0.62799   0.19283   0.00000  Uiso   1.00
H486   H     0.45177   0.62721   0.15187   0.00000  Uiso   1.00
C487   C     0.45045   0.38041   0.18213   0.00000  Uiso   1.00
H488   H     0.44573   0.41523   0.18965   0.00000  Uiso   1.00
H489   H     0.46534   0.37767   0.14993   0.00000  Uiso   1.00
H490   H     0.41870   0.36634   0.17818   0.00000  Uiso   1.00
C491   C     0.55303   0.61995   0.31489   0.00000  Uiso   1.00
H492   H     0.55514   0.58457   0.30894   0.00000  Uiso   1.00
H493   H     0.58517   0.63274   0.31319   0.00000  Uiso   1.00
H494   H     0.54235   0.62497   0.34897   0.00000  Uiso   1.00
O495   O     0.56960   0.46773   0.02991   0.00000  Uiso   1.00
C496   C     0.56309   0.42213   0.02050   0.00000  Uiso   1.00
H497   H     0.54109   0.41768   0.49071   0.00000  Uiso   1.00
H498   H     0.55224   0.40325   0.04964   0.00000  Uiso   1.00
H499   H     0.59298   0.40760   0.01223   0.00000  Uiso   1.00
O500   O     0.43813   0.45818   0.47294   0.00000  Uiso   1.00
C501   C     0.44940   0.41415   0.48406   0.00000  Uiso   1.00
H502   H     0.47169   0.41374   0.01390   0.00000  Uiso   1.00
H503   H     0.46216   0.39616   0.45560   0.00000  Uiso   1.00
H504   H     0.42128   0.39567   0.49302   0.00000  Uiso   1.00
O505   O     0.56700   0.54324   0.47926   0.00000  Uiso   1.00
C506   C     0.55648   0.58786   0.48687   0.00000  Uiso   1.00
H507   H     0.53450   0.58990   0.01366   0.00000  Uiso   1.00
H508   H     0.54364   0.60474   0.45587   0.00000  Uiso   1.00
H509   H     0.58498   0.60634   0.49876   0.00000  Uiso   1.00
O510   O     0.43440   0.53720   0.01895   0.00000  Uiso   1.00
C511   C     0.44234   0.58236   0.00958   0.00000  Uiso   1.00
H512   H     0.46415   0.58548   0.48266   0.00000  Uiso   1.00
H513   H     0.45416   0.60132   0.03987   0.00000  Uiso   1.00
H514   H     0.41286   0.59788   0.49704   0.00000  Uiso   1.00
C515   C     0.57349   0.46990   0.12539   0.00000  Uiso   1.00
H516   H     0.56587   0.43963   0.14457   0.00000  Uiso   1.00
H517   H     0.60007   0.46196   0.10542   0.00000  Uiso   1.00
H518   H     0.58393   0.49683   0.14903   0.00000  Uiso   1.00
C519   C     0.43281   0.45686   0.37769   0.00000  Uiso   1.00
H520   H     0.42033   0.47962   0.35106   0.00000  Uiso   1.00
H521   H     0.44346   0.42597   0.36199   0.00000  Uiso   1.00
H522   H     0.40675   0.44780   0.39826   0.00000  Uiso   1.00
C523   C     0.57580   0.53142   0.38783   0.00000  Uiso   1.00
H524   H     0.58108   0.56780   0.39140   0.00000  Uiso   1.00
H525   H     0.60228   0.51410   0.40549   0.00000  Uiso   1.00
H526   H     0.57614   0.52215   0.35207   0.00000  Uiso   1.00
C527   C     0.42509   0.52739   0.11045   0.00000  Uiso   1.00
H528   H     0.42428   0.51818   0.14622   0.00000  Uiso   1.00
H529   H     0.41929   0.56355   0.10678   0.00000  Uiso   1.00
H530   H     0.39925   0.50890   0.09225   0.00000  Uiso   1.00
O531   O     0.37190   0.43301   0.20406   0.00000  Uiso   1.00
C532   C     0.35777   0.43758   0.15847   0.00000  Uiso   1.00
H533   H     0.38091   0.42323   0.13716   0.00000  Uiso   1.00
H534   H     0.35375   0.47297   0.14791   0.00000  Uiso   1.00
H535   H     0.66165   0.41881   0.15147   0.00000  Uiso   1.00
O536   O     0.62736   0.58044   0.26332   0.00000  Uiso   1.00
C537   C     0.62548   0.60308   0.22185   0.00000  Uiso   1.00
H538   H     0.60135   0.62885   0.22229   0.00000  Uiso   1.00
H539   H     0.61627   0.58096   0.19287   0.00000  Uiso   1.00
H540   H     0.65564   0.61970   0.21667   0.00000  Uiso   1.00
O541   O     0.62247   0.42372   0.22253   0.00000  Uiso   1.00
C542   C     0.63281   0.39036   0.25447   0.00000  Uiso   1.00
H543   H     0.63499   0.40315   0.28952   0.00000  Uiso   1.00
H544   H     0.66216   0.37400   0.24699   0.00000  Uiso   1.00
H545   H     0.60788   0.36486   0.25249   0.00000  Uiso   1.00
O546   O     0.37784   0.57631   0.27806   0.00000  Uiso   1.00
C547   C     0.37677   0.57941   0.32496   0.00000  Uiso   1.00
H548   H     0.39601   0.60844   0.33669   0.00000  Uiso   1.00
H549   H     0.39010   0.54941   0.34191   0.00000  Uiso   1.00
H550   H     0.34480   0.58493   0.33508   0.00000  Uiso   1.00
C551   C     0.75349   0.50002   0.24929   0.00000  Uiso   1.00
C552   C     0.91320   0.50024   0.24944   0.00000  Uiso   1.00
C553   C     0.83314   0.49998   0.16436   0.00000  Uiso   1.00
C554   C     0.83391   0.49983   0.33571   0.00000  Uiso   1.00
C555   C     0.85648   0.35768   0.28224   0.00000  Uiso   1.00
C556   C     0.80836   0.64253   0.21947   0.00000  Uiso   1.00
C557   C     0.80939   0.35689   0.21859   0.00000  Uiso   1.00
C558   C     0.85787   0.64325   0.28099   0.00000  Uiso   1.00
C559   C     0.68647   0.46481   0.22896   0.00000  Uiso   1.00
C560   C     0.97996   0.54023   0.25783   0.00000  Uiso   1.00
C561   C     0.97767   0.46225   0.23446   0.00000  Uiso   1.00
C562   C     0.68925   0.53861   0.26334   0.00000  Uiso   1.00
C563   C     0.86897   0.48400   0.05022   0.00000  Uiso   1.00
C564   C     0.80325   0.47852   0.45142   0.00000  Uiso   1.00
C565   C     0.86781   0.52244   0.45470   0.00000  Uiso   1.00
C566   C     0.80117   0.52019   0.04461   0.00000  Uiso   1.00
C567   C     0.86902   0.48482   0.09682   0.00000  Uiso   1.00
C568   C     0.80207   0.47884   0.40475   0.00000  Uiso   1.00
C569   C     0.86949   0.51799   0.40860   0.00000  Uiso   1.00
C570   C     0.79876   0.51592   0.09064   0.00000  Uiso   1.00
C571   C     0.83343   0.49991   0.11655   0.00000  Uiso   1.00
C572   C     0.83519   0.49902   0.38370   0.00000  Uiso   1.00
C573   C     0.83549   0.50269   0.02446   0.00000  Uiso   1.00
C574   C     0.83528   0.50173   0.47600   0.00000  Uiso   1.00
C575   C     0.95744   0.50079   0.24757   0.00000  Uiso   1.00
C576   C     0.70925   0.50077   0.24791   0.00000  Uiso   1.00
N577   N     0.83333   0.61907   0.25000   0.00000  Uiso   1.00
N578   N     0.83333   0.38093   0.25000   0.00000  Uiso   1.00
O579   O     0.77226   0.53821   0.25000   0.00000  Uiso   1.00
O580   O     0.89441   0.46179   0.25001   0.00000  Uiso   1.00
O581   O     0.89441   0.53821   0.25001   0.00000  Uiso   1.00
O582   O     0.77226   0.46179   0.25000   0.00000  Uiso   1.00
O583   O     0.83333   0.53822   0.18453   0.00000  Uiso   1.00
O584   O     0.83334   0.46178   0.31547   0.00000  Uiso   1.00
O585   O     0.83334   0.53822   0.31547   0.00000  Uiso   1.00
O586   O     0.83333   0.46178   0.18453   0.00000  Uiso   1.00
Zn587  Zn    0.83333   0.55104   0.25000   0.00000  Uiso   1.00
Zn588  Zn    0.83333   0.44896   0.25000   0.00000  Uiso   1.00
C589   C     0.87808   0.38273   0.32118   0.00000  Uiso   1.00
H590   H     0.89259   0.41365   0.31019   0.00000  Uiso   1.00
H591   H     0.85534   0.38981   0.34626   0.00000  Uiso   1.00
H592   H     0.90388   0.36482   0.33891   0.00000  Uiso   1.00
C593   C     0.77829   0.61872   0.18674   0.00000  Uiso   1.00
H594   H     0.77870   0.58288   0.18963   0.00000  Uiso   1.00
H595   H     0.74606   0.62799   0.19283   0.00000  Uiso   1.00
H596   H     0.78511   0.62721   0.15187   0.00000  Uiso   1.00
C597   C     0.78379   0.38041   0.18213   0.00000  Uiso   1.00
H598   H     0.77906   0.41523   0.18965   0.00000  Uiso   1.00
H599   H     0.79868   0.37767   0.14993   0.00000  Uiso   1.00
H600   H     0.75203   0.36634   0.17818   0.00000  Uiso   1.00
C601   C     0.88636   0.61995   0.31489   0.00000  Uiso   1.00
H602   H     0.88847   0.58457   0.30894   0.00000  Uiso   1.00
H603   H     0.91850   0.63274   0.31319   0.00000  Uiso   1.00
H604   H     0.87568   0.62497   0.34897   0.00000  Uiso   1.00
O605   O     0.90293   0.46773   0.02991   0.00000  Uiso   1.00
C606   C     0.89642   0.42213   0.02050   0.00000  Uiso   1.00
H607   H     0.87442   0.41768   0.49071   0.00000  Uiso   1.00
H608   H     0.88557   0.40325   0.04964   0.00000  Uiso   1.00
H609   H     0.92631   0.40760   0.01223   0.00000  Uiso   1.00
O610   O     0.77147   0.45818   0.47294   0.00000  Uiso   1.00
C611   C     0.78273   0.41415   0.48406   0.00000  Uiso   1.00
H612   H     0.80503   0.41374   0.01390   0.00000  Uiso   1.00
H613   H     0.79550   0.39616   0.45560   0.00000  Uiso   1.00
H614   H     0.75461   0.39567   0.49302   0.00000  Uiso   1.00
O615   O     0.90033   0.54324   0.47926   0.00000  Uiso   1.00
C616   C     0.88982   0.58786   0.48687   0.00000  Uiso   1.00
H617   H     0.86783   0.58990   0.01366   0.00000  Uiso   1.00
H618   H     0.87697   0.60474   0.45587   0.00000  Uiso   1.00
H619   H     0.91831   0.60634   0.49876   0.00000  Uiso   1.00
O620   O     0.76773   0.53720   0.01895   0.00000  Uiso   1.00
C621   C     0.77567   0.58236   0.00958   0.00000  Uiso   1.00
H622   H     0.79748   0.58548   0.48266   0.00000  Uiso   1.00
H623   H     0.78750   0.60132   0.03987   0.00000  Uiso   1.00
H624   H     0.74619   0.59788   0.49704   0.00000  Uiso   1.00
C625   C     0.90683   0.46990   0.12539   0.00000  Uiso   1.00
H626   H     0.89920   0.43963   0.14457   0.00000  Uiso   1.00
H627   H     0.93340   0.46196   0.10542   0.00000  Uiso   1.00
H628   H     0.91726   0.49683   0.14903   0.00000  Uiso   1.00
C629   C     0.76614   0.45686   0.37769   0.00000  Uiso   1.00
H630   H     0.75367   0.47962   0.35106   0.00000  Uiso   1.00
H631   H     0.77679   0.42597   0.36199   0.00000  Uiso   1.00
H632   H     0.74008   0.44780   0.39826   0.00000  Uiso   1.00
C633   C     0.90913   0.53142   0.38783   0.00000  Uiso   1.00
H634   H     0.91442   0.56780   0.39140   0.00000  Uiso   1.00
H635   H     0.93562   0.51410   0.40549   0.00000  Uiso   1.00
H636   H     0.90948   0.52215   0.35207   0.00000  Uiso   1.00
C637   C     0.75842   0.52739   0.11045   0.00000  Uiso   1.00
H638   H     0.75761   0.51818   0.14622   0.00000  Uiso   1.00
H639   H     0.75262   0.56355   0.10678   0.00000  Uiso   1.00
H640   H     0.73259   0.50890   0.09225   0.00000  Uiso   1.00
O641   O     0.70523   0.43301   0.20406   0.00000  Uiso   1.00
C642   C     0.69110   0.43758   0.15847   0.00000  Uiso   1.00
H643   H     0.71424   0.42323   0.13716   0.00000  Uiso   1.00
H644   H     0.68709   0.47297   0.14791   0.00000  Uiso   1.00
H645   H     0.99498   0.41881   0.15147   0.00000  Uiso   1.00
O646   O     0.96069   0.58044   0.26332   0.00000  Uiso   1.00
C647   C     0.95881   0.60308   0.22185   0.00000  Uiso   1.00
H648   H     0.93469   0.62885   0.22229   0.00000  Uiso   1.00
H649   H     0.94960   0.58096   0.19287   0.00000  Uiso   1.00
H650   H     0.98897   0.61970   0.21667   0.00000  Uiso   1.00
O651   O     0.95580   0.42372   0.22253   0.00000  Uiso   1.00
C652   C     0.96615   0.39036   0.25447   0.00000  Uiso   1.00
H653   H     0.96832   0.40315   0.28952   0.00000  Uiso   1.00
H654   H     0.99549   0.37400   0.24699   0.00000  Uiso   1.00
H655   H     0.94121   0.36486   0.25249   0.00000  Uiso   1.00
O656   O     0.71117   0.57631   0.27806   0.00000  Uiso   1.00
C657   C     0.71011   0.57941   0.32496   0.00000  Uiso   1.00
H658   H     0.72934   0.60844   0.33669   0.00000  Uiso   1.00
H659   H     0.72344   0.54941   0.34191   0.00000  Uiso   1.00
H660   H     0.67813   0.58493   0.33508   0.00000  Uiso   1.00
C661   C     0.08683   0.83335   0.24929   0.00000  Uiso   1.00
C662   C     0.24654   0.83357   0.24944   0.00000  Uiso   1.00
C663   C     0.16647   0.83331   0.16436   0.00000  Uiso   1.00
C664   C     0.16724   0.83316   0.33571   0.00000  Uiso   1.00
C665   C     0.18982   0.69101   0.28224   0.00000  Uiso   1.00
C666   C     0.14169   0.97586   0.21947   0.00000  Uiso   1.00
C667   C     0.14273   0.69022   0.21859   0.00000  Uiso   1.00
C668   C     0.19120   0.97658   0.28099   0.00000  Uiso   1.00
C669   C     0.01980   0.79814   0.22896   0.00000  Uiso   1.00
C670   C     0.31329   0.87356   0.25783   0.00000  Uiso   1.00
C671   C     0.31100   0.79558   0.23446   0.00000  Uiso   1.00
C672   C     0.02259   0.87195   0.26334   0.00000  Uiso   1.00
C673   C     0.20231   0.81734   0.05022   0.00000  Uiso   1.00
C674   C     0.13659   0.81185   0.45142   0.00000  Uiso   1.00
C675   C     0.20114   0.85577   0.45470   0.00000  Uiso   1.00
C676   C     0.13450   0.85352   0.04461   0.00000  Uiso   1.00
C677   C     0.20235   0.81815   0.09682   0.00000  Uiso   1.00
C678   C     0.13540   0.81217   0.40475   0.00000  Uiso   1.00
C679   C     0.20282   0.85132   0.40860   0.00000  Uiso   1.00
C680   C     0.13209   0.84926   0.09064   0.00000  Uiso   1.00
C681   C     0.16676   0.83325   0.11655   0.00000  Uiso   1.00
C682   C     0.16852   0.83235   0.38370   0.00000  Uiso   1.00
C683   C     0.16882   0.83602   0.02446   0.00000  Uiso   1.00
C684   C     0.16862   0.83507   0.47600   0.00000  Uiso   1.00
C685   C     0.29077   0.83413   0.24757   0.00000  Uiso   1.00
C686   C     0.04258   0.83410   0.24791   0.00000  Uiso   1.00
N687   N     0.16667   0.95240   0.25000   0.00000  Uiso   1.00
N688   N     0.16667   0.71427   0.25000   0.00000  Uiso   1.00
O689   O     0.10559   0.87154   0.25000   0.00000  Uiso   1.00
O690   O     0.22774   0.79513   0.25001   0.00000  Uiso   1.00
O691   O     0.22774   0.87154   0.25001   0.00000  Uiso   1.00
O692   O     0.10559   0.79513   0.25000   0.00000  Uiso   1.00
O693   O     0.16666   0.87155   0.18453   0.00000  Uiso   1.00
O694   O     0.16667   0.79511   0.31547   0.00000  Uiso   1.00
O695   O     0.16667   0.87155   0.31547   0.00000  Uiso   1.00
O696   O     0.16666   0.79511   0.18453   0.00000  Uiso   1.00
Zn697  Zn    0.16667   0.88437   0.25000   0.00000  Uiso   1.00
Zn698  Zn    0.16667   0.78229   0.25000   0.00000  Uiso   1.00
C699   C     0.21142   0.71606   0.32118   0.00000  Uiso   1.00
H700   H     0.22593   0.74698   0.31019   0.00000  Uiso   1.00
H701   H     0.18867   0.72314   0.34626   0.00000  Uiso   1.00
H702   H     0.23722   0.69815   0.33891   0.00000  Uiso   1.00
C703   C     0.11162   0.95205   0.18674   0.00000  Uiso   1.00
H704   H     0.11203   0.91621   0.18963   0.00000  Uiso   1.00
H705   H     0.07939   0.96132   0.19283   0.00000  Uiso   1.00
H706   H     0.11844   0.96054   0.15187   0.00000  Uiso   1.00
C707   C     0.11712   0.71374   0.18213   0.00000  Uiso   1.00
H708   H     0.11239   0.74857   0.18965   0.00000  Uiso   1.00
H709   H     0.13201   0.71101   0.14993   0.00000  Uiso   1.00
H710   H     0.08536   0.69967   0.17818   0.00000  Uiso   1.00
C711   C     0.21969   0.95329   0.31489   0.00000  Uiso   1.00
H712   H     0.22181   0.91791   0.30894   0.00000  Uiso   1.00
H713   H     0.25183   0.96607   0.31319   0.00000  Uiso   1.00
H714   H     0.20902   0.95830   0.34897   0.00000  Uiso   1.00
O715   O     0.23626   0.80106   0.02991   0.00000  Uiso   1.00
C716   C     0.22976   0.75546   0.02050   0.00000  Uiso   1.00
H717   H     0.20775   0.75101   0.49071   0.00000  Uiso   1.00
H718   H     0.21891   0.73659   0.04964   0.00000  Uiso   1.00
H719   H     0.25965   0.74094   0.01223   0.00000  Uiso   1.00
O720   O     0.10480   0.79152   0.47294   0.00000  Uiso   1.00
C721   C     0.11607   0.74748   0.48406   0.00000  Uiso   1.00
H722   H     0.13836   0.74707   0.01390   0.00000  Uiso   1.00
H723   H     0.12883   0.72949   0.45560   0.00000  Uiso   1.00
H724   H     0.08795   0.72900   0.49302   0.00000  Uiso   1.00
O725   O     0.23367   0.87658   0.47926   0.00000  Uiso   1.00
C726   C     0.22315   0.92120   0.48687   0.00000  Uiso   1.00
H727   H     0.20116   0.92323   0.01366   0.00000  Uiso   1.00
H728   H     0.21031   0.93807   0.45587   0.00000  Uiso   1.00
H729   H     0.25165   0.93967   0.49876   0.00000  Uiso   1.00
O730   O     0.10106   0.87053   0.01895   0.00000  Uiso   1.00
C731   C     0.10900   0.91569   0.00958   0.00000  Uiso   1.00
H732   H     0.13081   0.91881   0.48266   0.00000  Uiso   1.00
H733   H     0.12083   0.93466   0.03987   0.00000  Uiso   1.00
H734   H     0.07952   0.93121   0.49704   0.00000  Uiso   1.00
C735   C     0.24016   0.80324   0.12539   0.00000  Uiso   1.00
H736   H     0.23253   0.77296   0.14457   0.00000  Uiso   1.00
H737   H     0.26674   0.79530   0.10542   0.00000  Uiso   1.00
H738   H     0.25059   0.83017   0.14903   0.00000  Uiso   1.00
C739   C     0.09947   0.79019   0.37769   0.00000  Uiso   1.00
H740   H     0.08700   0.81296   0.35106   0.00000  Uiso   1.00
H741   H     0.11013   0.75930   0.36199   0.00000  Uiso   1.00
H742   H     0.07341   0.78113   0.39826   0.00000  Uiso   1.00
C743   C     0.24246   0.86476   0.38783   0.00000  Uiso   1.00
H744   H     0.24775   0.90113   0.39140   0.00000  Uiso   1.00
H745   H     0.26895   0.84743   0.40549   0.00000  Uiso   1.00
H746   H     0.24281   0.85548   0.35207   0.00000  Uiso   1.00
C747   C     0.09175   0.86072   0.11045   0.00000  Uiso   1.00
H748   H     0.09094   0.85152   0.14622   0.00000  Uiso   1.00
H749   H     0.08596   0.89689   0.10678   0.00000  Uiso   1.00
H750   H     0.06592   0.84224   0.09225   0.00000  Uiso   1.00
O751   O     0.03857   0.76634   0.20406   0.00000  Uiso   1.00
C752   C     0.02444   0.77092   0.15847   0.00000  Uiso   1.00
H753   H     0.04757   0.75656   0.13716   0.00000  Uiso   1.00
H754   H     0.02042   0.80630   0.14791   0.00000  Uiso   1.00
H755   H     0.32831   0.75214   0.15147   0.00000  Uiso   1.00
O756   O     0.29402   0.91377   0.26332   0.00000  Uiso   1.00
C757   C     0.29214   0.93641   0.22185   0.00000  Uiso   1.00
H758   H     0.26802   0.96218   0.22229   0.00000  Uiso   1.00
H759   H     0.28293   0.91429   0.19287   0.00000  Uiso   1.00
H760   H     0.32230   0.95303   0.21667   0.00000  Uiso   1.00
O761   O     0.28914   0.75706   0.22253   0.00000  Uiso   1.00
C762   C     0.29948   0.72370   0.25447   0.00000  Uiso   1.00
H763   H     0.30165   0.73648   0.28952   0.00000  Uiso   1.00
H764   H     0.32883   0.70733   0.24699   0.00000  Uiso   1.00
H765   H     0.27455   0.69820   0.25249   0.00000  Uiso   1.00
O766   O     0.04450   0.90964   0.27806   0.00000  Uiso   1.00
C767   C     0.04344   0.91274   0.32496   0.00000  Uiso   1.00
H768   H     0.06267   0.94177   0.33669   0.00000  Uiso   1.00
H769   H     0.05677   0.88274   0.34191   0.00000  Uiso   1.00
H770   H     0.01147   0.91826   0.33508   0.00000  Uiso   1.00
C771   C     0.42016   0.83335   0.24929   0.00000  Uiso   1.00
C772   C     0.57987   0.83357   0.24944   0.00000  Uiso   1.00
C773   C     0.49981   0.83331   0.16436   0.00000  Uiso   1.00
C774   C     0.50058   0.83316   0.33571   0.00000  Uiso   1.00
C775   C     0.52315   0.69101   0.28224   0.00000  Uiso   1.00
C776   C     0.47502   0.97586   0.21947   0.00000  Uiso   1.00
C777   C     0.47606   0.69022   0.21859   0.00000  Uiso   1.00
C778   C     0.52454   0.97658   0.28099   0.00000  Uiso   1.00
C779   C     0.35313   0.79814   0.22896   0.00000  Uiso   1.00
C780   C     0.64663   0.87356   0.25783   0.00000  Uiso   1.00
C781   C     0.64434   0.79558   0.23446   0.00000  Uiso   1.00
C782   C     0.35592   0.87195   0.26334   0.00000  Uiso   1.00
C783   C     0.53564   0.81734   0.05022   0.00000  Uiso   1.00
C784   C     0.46992   0.81185   0.45142   0.00000  Uiso   1.00
C785   C     0.53448   0.85577   0.45470   0.00000  Uiso   1.00
C786   C     0.46784   0.85352   0.04461   0.00000  Uiso   1.00
C787   C     0.53569   0.81815   0.09682   0.00000  Uiso   1.00
C788   C     0.46873   0.81217   0.40475   0.00000  Uiso   1.00
C789   C     0.53615   0.85132   0.40860   0.00000  Uiso   1.00
C790   C     0.46543   0.84926   0.09064   0.00000  Uiso   1.00
C791   C     0.50009   0.83325   0.11655   0.00000  Uiso   1.00
C792   C     0.50185   0.83235   0.38370   0.00000  Uiso   1.00
C793   C     0.50216   0.83602   0.02446   0.00000  Uiso   1.00
C794   C     0.50195   0.83507   0.47600   0.00000  Uiso   1.00
C795   C     0.62411   0.83413   0.24757   0.00000  Uiso   1.00
C796   C     0.37591   0.83410   0.24791   0.00000  Uiso   1.00
N797   N     0.50000   0.95240   0.25000   0.00000  Uiso   1.00
N798   N     0.50000   0.71427   0.25000   0.00000  Uiso   1.00
O799   O     0.43892   0.87154   0.25000   0.00000  Uiso   1.00
O800   O     0.56108   0.79513   0.25001   0.00000  Uiso   1.00
O801   O     0.56108   0.87154   0.25001   0.00000  Uiso   1.00
O802   O     0.43892   0.79513   0.25000   0.00000  Uiso   1.00
O803   O     0.50000   0.87155   0.18453   0.00000  Uiso   1.00
O804   O     0.50000   0.79511   0.31547   0.00000  Uiso   1.00
O805   O     0.50000   0.87155   0.31547   0.00000  Uiso   1.00
O806   O     0.50000   0.79511   0.18453   0.00000  Uiso   1.00
Zn807  Zn    0.50000   0.88437   0.25000   0.00000  Uiso   1.00
Zn808  Zn    0.50000   0.78229   0.25000   0.00000  Uiso   1.00
C809   C     0.54475   0.71606   0.32118   0.00000  Uiso   1.00
H810   H     0.55926   0.74698   0.31019   0.00000  Uiso   1.00
H811   H     0.52201   0.72314   0.34626   0.00000  Uiso   1.00
H812   H     0.57055   0.69815   0.33891   0.00000  Uiso   1.00
C813   C     0.44495   0.95205   0.18674   0.00000  Uiso   1.00
H814   H     0.44537   0.91621   0.18963   0.00000  Uiso   1.00
H815   H     0.41273   0.96132   0.19283   0.00000  Uiso   1.00
H816   H     0.45177   0.96054   0.15187   0.00000  Uiso   1.00
C817   C     0.45045   0.71374   0.18213   0.00000  Uiso   1.00
H818   H     0.44573   0.74857   0.18965   0.00000  Uiso   1.00
H819   H     0.46534   0.71101   0.14993   0.00000  Uiso   1.00
H820   H     0.41870   0.69967   0.17818   0.00000  Uiso   1.00
C821   C     0.55303   0.95329   0.31489   0.00000  Uiso   1.00
H822   H     0.55514   0.91791   0.30894   0.00000  Uiso   1.00
H823   H     0.58517   0.96607   0.31319   0.00000  Uiso   1.00
H824   H     0.54235   0.95830   0.34897   0.00000  Uiso   1.00
O825   O     0.56960   0.80106   0.02991   0.00000  Uiso   1.00
C826   C     0.56309   0.75546   0.02050   0.00000  Uiso   1.00
H827   H     0.54109   0.75101   0.49071   0.00000  Uiso   1.00
H828   H     0.55224   0.73659   0.04964   0.00000  Uiso   1.00
H829   H     0.59298   0.74094   0.01223   0.00000  Uiso   1.00
O830   O     0.43813   0.79152   0.47294   0.00000  Uiso   1.00
C831   C     0.44940   0.74748   0.48406   0.00000  Uiso   1.00
H832   H     0.47169   0.74707   0.01390   0.00000  Uiso   1.00
H833   H     0.46216   0.72949   0.45560   0.00000  Uiso   1.00
H834   H     0.42128   0.72900   0.49302   0.00000  Uiso   1.00
O835   O     0.56700   0.87658   0.47926   0.00000  Uiso   1.00
C836   C     0.55648   0.92120   0.48687   0.00000  Uiso   1.00
H837   H     0.53450   0.92323   0.01366   0.00000  Uiso   1.00
H838   H     0.54364   0.93807   0.45587   0.00000  Uiso   1.00
H839   H     0.58498   0.93967   0.49876   0.00000  Uiso   1.00
O840   O     0.43440   0.87053   0.01895   0.00000  Uiso   1.00
C841   C     0.44234   0.91569   0.00958   0.00000  Uiso   1.00
H842   H     0.46415   0.91881   0.48266   0.00000  Uiso   1.00
H843   H     0.45416   0.93466   0.03987   0.00000  Uiso   1.00
H844   H     0.41286   0.93121   0.49704   0.00000  Uiso   1.00
C845   C     0.57349   0.80324   0.12539   0.00000  Uiso   1.00
H846   H     0.56587   0.77296   0.14457   0.00000  Uiso   1.00
H847   H     0.60007   0.79530   0.10542   0.00000  Uiso   1.00
H848   H     0.58393   0.83017   0.14903   0.00000  Uiso   1.00
C849   C     0.43281   0.79019   0.37769   0.00000  Uiso   1.00
H850   H     0.42033   0.81296   0.35106   0.00000  Uiso   1.00
H851   H     0.44346   0.75930   0.36199   0.00000  Uiso   1.00
H852   H     0.40675   0.78113   0.39826   0.00000  Uiso   1.00
C853   C     0.57580   0.86476   0.38783   0.00000  Uiso   1.00
H854   H     0.58108   0.90113   0.39140   0.00000  Uiso   1.00
H855   H     0.60228   0.84743   0.40549   0.00000  Uiso   1.00
H856   H     0.57614   0.85548   0.35207   0.00000  Uiso   1.00
C857   C     0.42509   0.86072   0.11045   0.00000  Uiso   1.00
H858   H     0.42428   0.85152   0.14622   0.00000  Uiso   1.00
H859   H     0.41929   0.89689   0.10678   0.00000  Uiso   1.00
H860   H     0.39925   0.84224   0.09225   0.00000  Uiso   1.00
O861   O     0.37190   0.76634   0.20406   0.00000  Uiso   1.00
C862   C     0.35777   0.77092   0.15847   0.00000  Uiso   1.00
H863   H     0.38091   0.75656   0.13716   0.00000  Uiso   1.00
H864   H     0.35375   0.80630   0.14791   0.00000  Uiso   1.00
H865   H     0.66165   0.75214   0.15147   0.00000  Uiso   1.00
O866   O     0.62736   0.91377   0.26332   0.00000  Uiso   1.00
C867   C     0.62548   0.93641   0.22185   0.00000  Uiso   1.00
H868   H     0.60135   0.96218   0.22229   0.00000  Uiso   1.00
H869   H     0.61627   0.91429   0.19287   0.00000  Uiso   1.00
H870   H     0.65564   0.95303   0.21667   0.00000  Uiso   1.00
O871   O     0.62247   0.75706   0.22253   0.00000  Uiso   1.00
C872   C     0.63281   0.72370   0.25447   0.00000  Uiso   1.00
H873   H     0.63499   0.73648   0.28952   0.00000  Uiso   1.00
H874   H     0.66216   0.70733   0.24699   0.00000  Uiso   1.00
H875   H     0.60788   0.69820   0.25249   0.00000  Uiso   1.00
O876   O     0.37784   0.90964   0.27806   0.00000  Uiso   1.00
C877   C     0.37677   0.91274   0.32496   0.00000  Uiso   1.00
H878   H     0.39601   0.94177   0.33669   0.00000  Uiso   1.00
H879   H     0.39010   0.88274   0.34191   0.00000  Uiso   1.00
H880   H     0.34480   0.91826   0.33508   0.00000  Uiso   1.00
C881   C     0.75349   0.83335   0.24929   0.00000  Uiso   1.00
C882   C     0.91320   0.83357   0.24944   0.00000  Uiso   1.00
C883   C     0.83314   0.83331   0.16436   0.00000  Uiso   1.00
C884   C     0.83391   0.83316   0.33571   0.00000  Uiso   1.00
C885   C     0.85648   0.69101   0.28224   0.00000  Uiso   1.00
C886   C     0.80836   0.97586   0.21947   0.00000  Uiso   1.00
C887   C     0.80939   0.69022   0.21859   0.00000  Uiso   1.00
C888   C     0.85787   0.97658   0.28099   0.00000  Uiso   1.00
C889   C     0.68647   0.79814   0.22896   0.00000  Uiso   1.00
C890   C     0.97996   0.87356   0.25783   0.00000  Uiso   1.00
C891   C     0.97767   0.79558   0.23446   0.00000  Uiso   1.00
C892   C     0.68925   0.87195   0.26334   0.00000  Uiso   1.00
C893   C     0.86897   0.81734   0.05022   0.00000  Uiso   1.00
C894   C     0.80325   0.81185   0.45142   0.00000  Uiso   1.00
C895   C     0.86781   0.85577   0.45470   0.00000  Uiso   1.00
C896   C     0.80117   0.85352   0.04461   0.00000  Uiso   1.00
C897   C     0.86902   0.81815   0.09682   0.00000  Uiso   1.00
C898   C     0.80207   0.81217   0.40475   0.00000  Uiso   1.00
C899   C     0.86949   0.85132   0.40860   0.00000  Uiso   1.00
C900   C     0.79876   0.84926   0.09064   0.00000  Uiso   1.00
C901   C     0.83343   0.83325   0.11655   0.00000  Uiso   1.00
C902   C     0.83519   0.83235   0.38370   0.00000  Uiso   1.00
C903   C     0.83549   0.83602   0.02446   0.00000  Uiso   1.00
C904   C     0.83528   0.83507   0.47600   0.00000  Uiso   1.00
C905   C     0.95744   0.83413   0.24757   0.00000  Uiso   1.00
C906   C     0.70925   0.83410   0.24791   0.00000  Uiso   1.00
N907   N     0.83333   0.95240   0.25000   0.00000  Uiso   1.00
N908   N     0.83333   0.71427   0.25000   0.00000  Uiso   1.00
O909   O     0.77226   0.87154   0.25000   0.00000  Uiso   1.00
O910   O     0.89441   0.79513   0.25001   0.00000  Uiso   1.00
O911   O     0.89441   0.87154   0.25001   0.00000  Uiso   1.00
O912   O     0.77226   0.79513   0.25000   0.00000  Uiso   1.00
O913   O     0.83333   0.87155   0.18453   0.00000  Uiso   1.00
O914   O     0.83334   0.79511   0.31547   0.00000  Uiso   1.00
O915   O     0.83334   0.87155   0.31547   0.00000  Uiso   1.00
O916   O     0.83333   0.79511   0.18453   0.00000  Uiso   1.00
Zn917  Zn    0.83333   0.88437   0.25000   0.00000  Uiso   1.00
Zn918  Zn    0.83333   0.78229   0.25000   0.00000  Uiso   1.00
C919   C     0.87808   0.71606   0.32118   0.00000  Uiso   1.00
H920   H     0.89259   0.74698   0.31019   0.00000  Uiso   1.00
H921   H     0.85534   0.72314   0.34626   0.00000  Uiso   1.00
H922   H     0.90388   0.69815   0.33891   0.00000  Uiso   1.00
C923   C     0.77829   0.95205   0.18674   0.00000  Uiso   1.00
H924   H     0.77870   0.91621   0.18963   0.00000  Uiso   1.00
H925   H     0.74606   0.96132   0.19283   0.00000  Uiso   1.00
H926   H     0.78511   0.96054   0.15187   0.00000  Uiso   1.00
C927   C     0.78379   0.71374   0.18213   0.00000  Uiso   1.00
H928   H     0.77906   0.74857   0.18965   0.00000  Uiso   1.00
H929   H     0.79868   0.71101   0.14993   0.00000  Uiso   1.00
H930   H     0.75203   0.69967   0.17818   0.00000  Uiso   1.00
C931   C     0.88636   0.95329   0.31489   0.00000  Uiso   1.00
H932   H     0.88847   0.91791   0.30894   0.00000  Uiso   1.00
H933   H     0.91850   0.96607   0.31319   0.00000  Uiso   1.00
H934   H     0.87568   0.95830   0.34897   0.00000  Uiso   1.00
O935   O     0.90293   0.80106   0.02991   0.00000  Uiso   1.00
C936   C     0.89642   0.75546   0.02050   0.00000  Uiso   1.00
H937   H     0.87442   0.75101   0.49071   0.00000  Uiso   1.00
H938   H     0.88557   0.73659   0.04964   0.00000  Uiso   1.00
H939   H     0.92631   0.74094   0.01223   0.00000  Uiso   1.00
O940   O     0.77147   0.79152   0.47294   0.00000  Uiso   1.00
C941   C     0.78273   0.74748   0.48406   0.00000  Uiso   1.00
H942   H     0.80503   0.74707   0.01390   0.00000  Uiso   1.00
H943   H     0.79550   0.72949   0.45560   0.00000  Uiso   1.00
H944   H     0.75461   0.72900   0.49302   0.00000  Uiso   1.00
O945   O     0.90033   0.87658   0.47926   0.00000  Uiso   1.00
C946   C     0.88982   0.92120   0.48687   0.00000  Uiso   1.00
H947   H     0.86783   0.92323   0.01366   0.00000  Uiso   1.00
H948   H     0.87697   0.93807   0.45587   0.00000  Uiso   1.00
H949   H     0.91831   0.93967   0.49876   0.00000  Uiso   1.00
O950   O     0.76773   0.87053   0.01895   0.00000  Uiso   1.00
C951   C     0.77567   0.91569   0.00958   0.00000  Uiso   1.00
H952   H     0.79748   0.91881   0.48266   0.00000  Uiso   1.00
H953   H     0.78750   0.93466   0.03987   0.00000  Uiso   1.00
H954   H     0.74619   0.93121   0.49704   0.00000  Uiso   1.00
C955   C     0.90683   0.80324   0.12539   0.00000  Uiso   1.00
H956   H     0.89920   0.77296   0.14457   0.00000  Uiso   1.00
H957   H     0.93340   0.79530   0.10542   0.00000  Uiso   1.00
H958   H     0.91726   0.83017   0.14903   0.00000  Uiso   1.00
C959   C     0.76614   0.79019   0.37769   0.00000  Uiso   1.00
H960   H     0.75367   0.81296   0.35106   0.00000  Uiso   1.00
H961   H     0.77679   0.75930   0.36199   0.00000  Uiso   1.00
H962   H     0.74008   0.78113   0.39826   0.00000  Uiso   1.00
C963   C     0.90913   0.86476   0.38783   0.00000  Uiso   1.00
H964   H     0.91442   0.90113   0.39140   0.00000  Uiso   1.00
H965   H     0.93562   0.84743   0.40549   0.00000  Uiso   1.00
H966   H     0.90948   0.85548   0.35207   0.00000  Uiso   1.00
C967   C     0.75842   0.86072   0.11045   0.00000  Uiso   1.00
H968   H     0.75761   0.85152   0.14622   0.00000  Uiso   1.00
H969   H     0.75262   0.89689   0.10678   0.00000  Uiso   1.00
H970   H     0.73259   0.84224   0.09225   0.00000  Uiso   1.00
O971   O     0.70523   0.76634   0.20406   0.00000  Uiso   1.00
C972   C     0.69110   0.77092   0.15847   0.00000  Uiso   1.00
H973   H     0.71424   0.75656   0.13716   0.00000  Uiso   1.00
H974   H     0.68709   0.80630   0.14791   0.00000  Uiso   1.00
H975   H     0.99498   0.75214   0.15147   0.00000  Uiso   1.00
O976   O     0.96069   0.91377   0.26332   0.00000  Uiso   1.00
C977   C     0.95881   0.93641   0.22185   0.00000  Uiso   1.00
H978   H     0.93469   0.96218   0.22229   0.00000  Uiso   1.00
H979   H     0.94960   0.91429   0.19287   0.00000  Uiso   1.00
H980   H     0.98897   0.95303   0.21667   0.00000  Uiso   1.00
O981   O     0.95580   0.75706   0.22253   0.00000  Uiso   1.00
C982   C     0.96615   0.72370   0.25447   0.00000  Uiso   1.00
H983   H     0.96832   0.73648   0.28952   0.00000  Uiso   1.00
H984   H     0.99549   0.70733   0.24699   0.00000  Uiso   1.00
H985   H     0.94121   0.69820   0.25249   0.00000  Uiso   1.00
O986   O     0.71117   0.90964   0.27806   0.00000  Uiso   1.00
C987   C     0.71011   0.91274   0.32496   0.00000  Uiso   1.00
H988   H     0.72934   0.94177   0.33669   0.00000  Uiso   1.00
H989   H     0.72344   0.88274   0.34191   0.00000  Uiso   1.00
H990   H     0.67813   0.91826   0.33508   0.00000  Uiso   1.00
C991   C     0.08683   0.16669   0.74929   0.00000  Uiso   1.00
C992   C     0.24654   0.16690   0.74944   0.00000  Uiso   1.00
C993   C     0.16647   0.16664   0.66436   0.00000  Uiso   1.00
C994   C     0.16724   0.16650   0.83571   0.00000  Uiso   1.00
C995   C     0.18982   0.02434   0.78224   0.00000  Uiso   1.00
C996   C     0.14169   0.30920   0.71947   0.00000  Uiso   1.00
C997   C     0.14273   0.02355   0.71859   0.00000  Uiso   1.00
C998   C     0.19120   0.30992   0.78099   0.00000  Uiso   1.00
C999   C     0.01980   0.13147   0.72896   0.00000  Uiso   1.00
C1000  C     0.31329   0.20689   0.75783   0.00000  Uiso   1.00
C1001  C     0.31100   0.12892   0.73446   0.00000  Uiso   1.00
C1002  C     0.02259   0.20528   0.76334   0.00000  Uiso   1.00
C1003  C     0.20231   0.15067   0.55022   0.00000  Uiso   1.00
C1004  C     0.13659   0.14518   0.95142   0.00000  Uiso   1.00
C1005  C     0.20114   0.18910   0.95470   0.00000  Uiso   1.00
C1006  C     0.13450   0.18686   0.54461   0.00000  Uiso   1.00
C1007  C     0.20235   0.15149   0.59682   0.00000  Uiso   1.00
C1008  C     0.13540   0.14550   0.90475   0.00000  Uiso   1.00
C1009  C     0.20282   0.18466   0.90860   0.00000  Uiso   1.00
C1010  C     0.13209   0.18259   0.59064   0.00000  Uiso   1.00
C1011  C     0.16676   0.16658   0.61655   0.00000  Uiso   1.00
C1012  C     0.16852   0.16568   0.88370   0.00000  Uiso   1.00
C1013  C     0.16882   0.16935   0.52446   0.00000  Uiso   1.00
C1014  C     0.16862   0.16840   0.97600   0.00000  Uiso   1.00
C1015  C     0.29077   0.16746   0.74757   0.00000  Uiso   1.00
C1016  C     0.04258   0.16744   0.74791   0.00000  Uiso   1.00
N1017  N     0.16667   0.28573   0.75000   0.00000  Uiso   1.00
N1018  N     0.16667   0.04760   0.75000   0.00000  Uiso   1.00
O1019  O     0.10559   0.20487   0.75000   0.00000  Uiso   1.00
O1020  O     0.22774   0.12846   0.75001   0.00000  Uiso   1.00
O1021  O     0.22774   0.20487   0.75001   0.00000  Uiso   1.00
O1022  O     0.10559   0.12846   0.75000   0.00000  Uiso   1.00
O1023  O     0.16666   0.20489   0.68453   0.00000  Uiso   1.00
O1024  O     0.16667   0.12845   0.81547   0.00000  Uiso   1.00
O1025  O     0.16667   0.20489   0.81547   0.00000  Uiso   1.00
O1026  O     0.16666   0.12845   0.68453   0.00000  Uiso   1.00
Zn1027 Zn    0.16667   0.21771   0.75000   0.00000  Uiso   1.00
Zn1028 Zn    0.16667   0.11563   0.75000   0.00000  Uiso   1.00
C1029  C     0.21142   0.04939   0.82118   0.00000  Uiso   1.00
H1030  H     0.22593   0.08032   0.81019   0.00000  Uiso   1.00
H1031  H     0.18867   0.05647   0.84626   0.00000  Uiso   1.00
H1032  H     0.23722   0.03149   0.83891   0.00000  Uiso   1.00
C1033  C     0.11162   0.28539   0.68674   0.00000  Uiso   1.00
H1034  H     0.11203   0.24954   0.68963   0.00000  Uiso   1.00
H1035  H     0.07939   0.29465   0.69283   0.00000  Uiso   1.00
H1036  H     0.11844   0.29387   0.65187   0.00000  Uiso   1.00
C1037  C     0.11712   0.04707   0.68213   0.00000  Uiso   1.00
H1038  H     0.11239   0.08190   0.68965   0.00000  Uiso   1.00
H1039  H     0.13201   0.04434   0.64993   0.00000  Uiso   1.00
H1040  H     0.08536   0.03300   0.67818   0.00000  Uiso   1.00
C1041  C     0.21969   0.28662   0.81489   0.00000  Uiso   1.00
H1042  H     0.22181   0.25124   0.80894   0.00000  Uiso   1.00
H1043  H     0.25183   0.29941   0.81319   0.00000  Uiso   1.00
H1044  H     0.20902   0.29164   0.84897   0.00000  Uiso   1.00
O1045  O     0.23626   0.13440   0.52991   0.00000  Uiso   1.00
C1046  C     0.22976   0.08880   0.52050   0.00000  Uiso   1.00
H1047  H     0.20775   0.08434   0.99071   0.00000  Uiso   1.00
H1048  H     0.21891   0.06992   0.54964   0.00000  Uiso   1.00
H1049  H     0.25965   0.07427   0.51223   0.00000  Uiso   1.00
O1050  O     0.10480   0.12485   0.97294   0.00000  Uiso   1.00
C1051  C     0.11607   0.08082   0.98406   0.00000  Uiso   1.00
H1052  H     0.13836   0.08040   0.51390   0.00000  Uiso   1.00
H1053  H     0.12883   0.06283   0.95560   0.00000  Uiso   1.00
H1054  H     0.08795   0.06233   0.99302   0.00000  Uiso   1.00
O1055  O     0.23367   0.20991   0.97926   0.00000  Uiso   1.00
C1056  C     0.22315   0.25453   0.98687   0.00000  Uiso   1.00
H1057  H     0.20116   0.25657   0.51366   0.00000  Uiso   1.00
H1058  H     0.21031   0.27141   0.95587   0.00000  Uiso   1.00
H1059  H     0.25165   0.27301   0.99876   0.00000  Uiso   1.00
O1060  O     0.10106   0.20386   0.51895   0.00000  Uiso   1.00
C1061  C     0.10900   0.24903   0.50958   0.00000  Uiso   1.00
H1062  H     0.13081   0.25214   0.98266   0.00000  Uiso   1.00
H1063  H     0.12083   0.26799   0.53987   0.00000  Uiso   1.00
H1064  H     0.07952   0.26455   0.99704   0.00000  Uiso   1.00
C1065  C     0.24016   0.13657   0.62539   0.00000  Uiso   1.00
H1066  H     0.23253   0.10630   0.64457   0.00000  Uiso   1.00
H1067  H     0.26674   0.12863   0.60542   0.00000  Uiso   1.00
H1068  H     0.25059   0.16350   0.64903   0.00000  Uiso   1.00
C1069  C     0.09947   0.12352   0.87769   0.00000  Uiso   1.00
H1070  H     0.08700   0.14629   0.85106   0.00000  Uiso   1.00
H1071  H     0.11013   0.09263   0.86199   0.00000  Uiso   1.00
H1072  H     0.07341   0.11446   0.89826   0.00000  Uiso   1.00
C1073  C     0.24246   0.19809   0.88783   0.00000  Uiso   1.00
H1074  H     0.24775   0.23446   0.89140   0.00000  Uiso   1.00
H1075  H     0.26895   0.18077   0.90549   0.00000  Uiso   1.00
H1076  H     0.24281   0.18881   0.85207   0.00000  Uiso   1.00
C1077  C     0.09175   0.19405   0.61045   0.00000  Uiso   1.00
H1078  H     0.09094   0.18485   0.64622   0.00000  Uiso   1.00
H1079  H     0.08596   0.23022   0.60678   0.00000  Uiso   1.00
H1080  H     0.06592   0.17557   0.59225   0.00000  Uiso   1.00
O1081  O     0.03857   0.09968   0.70406   0.00000  Uiso   1.00
C1082  C     0.02444   0.10425   0.65847   0.00000  Uiso   1.00
H1083  H     0.04757   0.08989   0.63716   0.00000  Uiso   1.00
H1084  H     0.02042   0.13963   0.64791   0.00000  Uiso   1.00
H1085  H     0.32831   0.08547   0.65147   0.00000  Uiso   1.00
O1086  O     0.29402   0.24710   0.76332   0.00000  Uiso   1.00
C1087  C     0.29214   0.26975   0.72185   0.00000  Uiso   1.00
H1088  H     0.26802   0.29551   0.72229   0.00000  Uiso   1.00
H1089  H     0.28293   0.24762   0.69287   0.00000  Uiso   1.00
H1090  H     0.32230   0.28636   0.71667   0.00000  Uiso   1.00
O1091  O     0.28914   0.09039   0.72253   0.00000  Uiso   1.00
C1092  C     0.29948   0.05703   0.75447   0.00000  Uiso   1.00
H1093  H     0.30165   0.06981   0.78952   0.00000  Uiso   1.00
H1094  H     0.32883   0.04067   0.74699   0.00000  Uiso   1.00
H1095  H     0.27455   0.03153   0.75249   0.00000  Uiso   1.00
O1096  O     0.04450   0.24298   0.77806   0.00000  Uiso   1.00
C1097  C     0.04344   0.24607   0.82496   0.00000  Uiso   1.00
H1098  H     0.06267   0.27510   0.83669   0.00000  Uiso   1.00
H1099  H     0.05677   0.21608   0.84191   0.00000  Uiso   1.00
H1100  H     0.01147   0.25160   0.83508   0.00000  Uiso   1.00
C1101  C     0.42016   0.16669   0.74929   0.00000  Uiso   1.00
C1102  C     0.57987   0.16690   0.74944   0.00000  Uiso   1.00
C1103  C     0.49981   0.16664   0.66436   0.00000  Uiso   1.00
C1104  C     0.50058   0.16650   0.83571   0.00000  Uiso   1.00
C1105  C     0.52315   0.02434   0.78224   0.00000  Uiso   1.00
C1106  C     0.47502   0.30920   0.71947   0.00000  Uiso   1.00
C1107  C     0.47606   0.02355   0.71859   0.00000  Uiso   1.00
C1108  C     0.52454   0.30992   0.78099   0.00000  Uiso   1.00
C1109  C     0.35313   0.13147   0.72896   0.00000  Uiso   1.00
C1110  C     0.64663   0.20689   0.75783   0.00000  Uiso   1.00
C1111  C     0.64434   0.12892   0.73446   0.00000  Uiso   1.00
C1112  C     0.35592   0.20528   0.76334   0.00000  Uiso   1.00
C1113  C     0.53564   0.15067   0.55022   0.00000  Uiso   1.00
C1114  C     0.46992   0.14518   0.95142   0.00000  Uiso   1.00
C1115  C     0.53448   0.18910   0.95470   0.00000  Uiso   1.00
C1116  C     0.46784   0.18686   0.54461   0.00000  Uiso   1.00
C1117  C     0.53569   0.15149   0.59682   0.00000  Uiso   1.00
C1118  C     0.46873   0.14550   0.90475   0.00000  Uiso   1.00
C1119  C     0.53615   0.18466   0.90860   0.00000  Uiso   1.00
C1120  C     0.46543   0.18259   0.59064   0.00000  Uiso   1.00
C1121  C     0.50009   0.16658   0.61655   0.00000  Uiso   1.00
C1122  C     0.50185   0.16568   0.88370   0.00000  Uiso   1.00
C1123  C     0.50216   0.16935   0.52446   0.00000  Uiso   1.00
C1124  C     0.50195   0.16840   0.97600   0.00000  Uiso   1.00
C1125  C     0.62411   0.16746   0.74757   0.00000  Uiso   1.00
C1126  C     0.37591   0.16744   0.74791   0.00000  Uiso   1.00
N1127  N     0.50000   0.28573   0.75000   0.00000  Uiso   1.00
N1128  N     0.50000   0.04760   0.75000   0.00000  Uiso   1.00
O1129  O     0.43892   0.20487   0.75000   0.00000  Uiso   1.00
O1130  O     0.56108   0.12846   0.75001   0.00000  Uiso   1.00
O1131  O     0.56108   0.20487   0.75001   0.00000  Uiso   1.00
O1132  O     0.43892   0.12846   0.75000   0.00000  Uiso   1.00
O1133  O     0.50000   0.20489   0.68453   0.00000  Uiso   1.00
O1134  O     0.50000   0.12845   0.81547   0.00000  Uiso   1.00
O1135  O     0.50000   0.20489   0.81547   0.00000  Uiso   1.00
O1136  O     0.50000   0.12845   0.68453   0.00000  Uiso   1.00
Zn1137 Zn    0.50000   0.21771   0.75000   0.00000  Uiso   1.00
Zn1138 Zn    0.50000   0.11563   0.75000   0.00000  Uiso   1.00
C1139  C     0.54475   0.04939   0.82118   0.00000  Uiso   1.00
H1140  H     0.55926   0.08032   0.81019   0.00000  Uiso   1.00
H1141  H     0.52201   0.05647   0.84626   0.00000  Uiso   1.00
H1142  H     0.57055   0.03149   0.83891   0.00000  Uiso   1.00
C1143  C     0.44495   0.28539   0.68674   0.00000  Uiso   1.00
H1144  H     0.44537   0.24954   0.68963   0.00000  Uiso   1.00
H1145  H     0.41273   0.29465   0.69283   0.00000  Uiso   1.00
H1146  H     0.45177   0.29387   0.65187   0.00000  Uiso   1.00
C1147  C     0.45045   0.04707   0.68213   0.00000  Uiso   1.00
H1148  H     0.44573   0.08190   0.68965   0.00000  Uiso   1.00
H1149  H     0.46534   0.04434   0.64993   0.00000  Uiso   1.00
H1150  H     0.41870   0.03300   0.67818   0.00000  Uiso   1.00
C1151  C     0.55303   0.28662   0.81489   0.00000  Uiso   1.00
H1152  H     0.55514   0.25124   0.80894   0.00000  Uiso   1.00
H1153  H     0.58517   0.29941   0.81319   0.00000  Uiso   1.00
H1154  H     0.54235   0.29164   0.84897   0.00000  Uiso   1.00
O1155  O     0.56960   0.13440   0.52991   0.00000  Uiso   1.00
C1156  C     0.56309   0.08880   0.52050   0.00000  Uiso   1.00
H1157  H     0.54109   0.08434   0.99071   0.00000  Uiso   1.00
H1158  H     0.55224   0.06992   0.54964   0.00000  Uiso   1.00
H1159  H     0.59298   0.07427   0.51223   0.00000  Uiso   1.00
O1160  O     0.43813   0.12485   0.97294   0.00000  Uiso   1.00
C1161  C     0.44940   0.08082   0.98406   0.00000  Uiso   1.00
H1162  H     0.47169   0.08040   0.51390   0.00000  Uiso   1.00
H1163  H     0.46216   0.06283   0.95560   0.00000  Uiso   1.00
H1164  H     0.42128   0.06233   0.99302   0.00000  Uiso   1.00
O1165  O     0.56700   0.20991   0.97926   0.00000  Uiso   1.00
C1166  C     0.55648   0.25453   0.98687   0.00000  Uiso   1.00
H1167  H     0.53450   0.25657   0.51366   0.00000  Uiso   1.00
H1168  H     0.54364   0.27141   0.95587   0.00000  Uiso   1.00
H1169  H     0.58498   0.27301   0.99876   0.00000  Uiso   1.00
O1170  O     0.43440   0.20386   0.51895   0.00000  Uiso   1.00
C1171  C     0.44234   0.24903   0.50958   0.00000  Uiso   1.00
H1172  H     0.46415   0.25214   0.98266   0.00000  Uiso   1.00
H1173  H     0.45416   0.26799   0.53987   0.00000  Uiso   1.00
H1174  H     0.41286   0.26455   0.99704   0.00000  Uiso   1.00
C1175  C     0.57349   0.13657   0.62539   0.00000  Uiso   1.00
H1176  H     0.56587   0.10630   0.64457   0.00000  Uiso   1.00
H1177  H     0.60007   0.12863   0.60542   0.00000  Uiso   1.00
H1178  H     0.58393   0.16350   0.64903   0.00000  Uiso   1.00
C1179  C     0.43281   0.12352   0.87769   0.00000  Uiso   1.00
H1180  H     0.42033   0.14629   0.85106   0.00000  Uiso   1.00
H1181  H     0.44346   0.09263   0.86199   0.00000  Uiso   1.00
H1182  H     0.40675   0.11446   0.89826   0.00000  Uiso   1.00
C1183  C     0.57580   0.19809   0.88783   0.00000  Uiso   1.00
H1184  H     0.58108   0.23446   0.89140   0.00000  Uiso   1.00
H1185  H     0.60228   0.18077   0.90549   0.00000  Uiso   1.00
H1186  H     0.57614   0.18881   0.85207   0.00000  Uiso   1.00
C1187  C     0.42509   0.19405   0.61045   0.00000  Uiso   1.00
H1188  H     0.42428   0.18485   0.64622   0.00000  Uiso   1.00
H1189  H     0.41929   0.23022   0.60678   0.00000  Uiso   1.00
H1190  H     0.39925   0.17557   0.59225   0.00000  Uiso   1.00
O1191  O     0.37190   0.09968   0.70406   0.00000  Uiso   1.00
C1192  C     0.35777   0.10425   0.65847   0.00000  Uiso   1.00
H1193  H     0.38091   0.08989   0.63716   0.00000  Uiso   1.00
H1194  H     0.35375   0.13963   0.64791   0.00000  Uiso   1.00
H1195  H     0.66165   0.08547   0.65147   0.00000  Uiso   1.00
O1196  O     0.62736   0.24710   0.76332   0.00000  Uiso   1.00
C1197  C     0.62548   0.26975   0.72185   0.00000  Uiso   1.00
H1198  H     0.60135   0.29551   0.72229   0.00000  Uiso   1.00
H1199  H     0.61627   0.24762   0.69287   0.00000  Uiso   1.00
H1200  H     0.65564   0.28636   0.71667   0.00000  Uiso   1.00
O1201  O     0.62247   0.09039   0.72253   0.00000  Uiso   1.00
C1202  C     0.63281   0.05703   0.75447   0.00000  Uiso   1.00
H1203  H     0.63499   0.06981   0.78952   0.00000  Uiso   1.00
H1204  H     0.66216   0.04067   0.74699   0.00000  Uiso   1.00
H1205  H     0.60788   0.03153   0.75249   0.00000  Uiso   1.00
O1206  O     0.37784   0.24298   0.77806   0.00000  Uiso   1.00
C1207  C     0.37677   0.24607   0.82496   0.00000  Uiso   1.00
H1208  H     0.39601   0.27510   0.83669   0.00000  Uiso   1.00
H1209  H     0.39010   0.21608   0.84191   0.00000  Uiso   1.00
H1210  H     0.34480   0.25160   0.83508   0.00000  Uiso   1.00
C1211  C     0.75349   0.16669   0.74929   0.00000  Uiso   1.00
C1212  C     0.91320   0.16690   0.74944   0.00000  Uiso   1.00
C1213  C     0.83314   0.16664   0.66436   0.00000  Uiso   1.00
C1214  C     0.83391   0.16650   0.83571   0.00000  Uiso   1.00
C1215  C     0.85648   0.02434   0.78224   0.00000  Uiso   1.00
C1216  C     0.80836   0.30920   0.71947   0.00000  Uiso   1.00
C1217  C     0.80939   0.02355   0.71859   0.00000  Uiso   1.00
C1218  C     0.85787   0.30992   0.78099   0.00000  Uiso   1.00
C1219  C     0.68647   0.13147   0.72896   0.00000  Uiso   1.00
C1220  C     0.97996   0.20689   0.75783   0.00000  Uiso   1.00
C1221  C     0.97767   0.12892   0.73446   0.00000  Uiso   1.00
C1222  C     0.68925   0.20528   0.76334   0.00000  Uiso   1.00
C1223  C     0.86897   0.15067   0.55022   0.00000  Uiso   1.00
C1224  C     0.80325   0.14518   0.95142   0.00000  Uiso   1.00
C1225  C     0.86781   0.18910   0.95470   0.00000  Uiso   1.00
C1226  C     0.80117   0.18686   0.54461   0.00000  Uiso   1.00
C1227  C     0.86902   0.15149   0.59682   0.00000  Uiso   1.00
C1228  C     0.80207   0.14550   0.90475   0.00000  Uiso   1.00
C1229  C     0.86949   0.18466   0.90860   0.00000  Uiso   1.00
C1230  C     0.79876   0.18259   0.59064   0.00000  Uiso   1.00
C1231  C     0.83343   0.16658   0.61655   0.00000  Uiso   1.00
C1232  C     0.83519   0.16568   0.88370   0.00000  Uiso   1.00
C1233  C     0.83549   0.16935   0.52446   0.00000  Uiso   1.00
C1234  C     0.83528   0.16840   0.97600   0.00000  Uiso   1.00
C1235  C     0.95744   0.16746   0.74757   0.00000  Uiso   1.00
C1236  C     0.70925   0.16744   0.74791   0.00000  Uiso   1.00
N1237  N     0.83333   0.28573   0.75000   0.00000  Uiso   1.00
N1238  N     0.83333   0.04760   0.75000   0.00000  Uiso   1.00
O1239  O     0.77226   0.20487   0.75000   0.00000  Uiso   1.00
O1240  O     0.89441   0.12846   0.75001   0.00000  Uiso   1.00
O1241  O     0.89441   0.20487   0.75001   0.00000  Uiso   1.00
O1242  O     0.77226   0.12846   0.75000   0.00000  Uiso   1.00
O1243  O     0.83333   0.20489   0.68453   0.00000  Uiso   1.00
O1244  O     0.83334   0.12845   0.81547   0.00000  Uiso   1.00
O1245  O     0.83334   0.20489   0.81547   0.00000  Uiso   1.00
O1246  O     0.83333   0.12845   0.68453   0.00000  Uiso   1.00
Zn1247 Zn    0.83333   0.21771   0.75000   0.00000  Uiso   1.00
Zn1248 Zn    0.83333   0.11563   0.75000   0.00000  Uiso   1.00
C1249  C     0.87808   0.04939   0.82118   0.00000  Uiso   1.00
H1250  H     0.89259   0.08032   0.81019   0.00000  Uiso   1.00
H1251  H     0.85534   0.05647   0.84626   0.00000  Uiso   1.00
H1252  H     0.90388   0.03149   0.83891   0.00000  Uiso   1.00
C1253  C     0.77829   0.28539   0.68674   0.00000  Uiso   1.00
H1254  H     0.77870   0.24954   0.68963   0.00000  Uiso   1.00
H1255  H     0.74606   0.29465   0.69283   0.00000  Uiso   1.00
H1256  H     0.78511   0.29387   0.65187   0.00000  Uiso   1.00
C1257  C     0.78379   0.04707   0.68213   0.00000  Uiso   1.00
H1258  H     0.77906   0.08190   0.68965   0.00000  Uiso   1.00
H1259  H     0.79868   0.04434   0.64993   0.00000  Uiso   1.00
H1260  H     0.75203   0.03300   0.67818   0.00000  Uiso   1.00
C1261  C     0.88636   0.28662   0.81489   0.00000  Uiso   1.00
H1262  H     0.88847   0.25124   0.80894   0.00000  Uiso   1.00
H1263  H     0.91850   0.29941   0.81319   0.00000  Uiso   1.00
H1264  H     0.87568   0.29164   0.84897   0.00000  Uiso   1.00
O1265  O     0.90293   0.13440   0.52991   0.00000  Uiso   1.00
C1266  C     0.89642   0.08880   0.52050   0.00000  Uiso   1.00
H1267  H     0.87442   0.08434   0.99071   0.00000  Uiso   1.00
H1268  H     0.88557   0.06992   0.54964   0.00000  Uiso   1.00
H1269  H     0.92631   0.07427   0.51223   0.00000  Uiso   1.00
O1270  O     0.77147   0.12485   0.97294   0.00000  Uiso   1.00
C1271  C     0.78273   0.08082   0.98406   0.00000  Uiso   1.00
H1272  H     0.80503   0.08040   0.51390   0.00000  Uiso   1.00
H1273  H     0.79550   0.06283   0.95560   0.00000  Uiso   1.00
H1274  H     0.75461   0.06233   0.99302   0.00000  Uiso   1.00
O1275  O     0.90033   0.20991   0.97926   0.00000  Uiso   1.00
C1276  C     0.88982   0.25453   0.98687   0.00000  Uiso   1.00
H1277  H     0.86783   0.25657   0.51366   0.00000  Uiso   1.00
H1278  H     0.87697   0.27141   0.95587   0.00000  Uiso   1.00
H1279  H     0.91831   0.27301   0.99876   0.00000  Uiso   1.00
O1280  O     0.76773   0.20386   0.51895   0.00000  Uiso   1.00
C1281  C     0.77567   0.24903   0.50958   0.00000  Uiso   1.00
H1282  H     0.79748   0.25214   0.98266   0.00000  Uiso   1.00
H1283  H     0.78750   0.26799   0.53987   0.00000  Uiso   1.00
H1284  H     0.74619   0.26455   0.99704   0.00000  Uiso   1.00
C1285  C     0.90683   0.13657   0.62539   0.00000  Uiso   1.00
H1286  H     0.89920   0.10630   0.64457   0.00000  Uiso   1.00
H1287  H     0.93340   0.12863   0.60542   0.00000  Uiso   1.00
H1288  H     0.91726   0.16350   0.64903   0.00000  Uiso   1.00
C1289  C     0.76614   0.12352   0.87769   0.00000  Uiso   1.00
H1290  H     0.75367   0.14629   0.85106   0.00000  Uiso   1.00
H1291  H     0.77679   0.09263   0.86199   0.00000  Uiso   1.00
H1292  H     0.74008   0.11446   0.89826   0.00000  Uiso   1.00
C1293  C     0.90913   0.19809   0.88783   0.00000  Uiso   1.00
H1294  H     0.91442   0.23446   0.89140   0.00000  Uiso   1.00
H1295  H     0.93562   0.18077   0.90549   0.00000  Uiso   1.00
H1296  H     0.90948   0.18881   0.85207   0.00000  Uiso   1.00
C1297  C     0.75842   0.19405   0.61045   0.00000  Uiso   1.00
H1298  H     0.75761   0.18485   0.64622   0.00000  Uiso   1.00
H1299  H     0.75262   0.23022   0.60678   0.00000  Uiso   1.00
H1300  H     0.73259   0.17557   0.59225   0.00000  Uiso   1.00
O1301  O     0.70523   0.09968   0.70406   0.00000  Uiso   1.00
C1302  C     0.69110   0.10425   0.65847   0.00000  Uiso   1.00
H1303  H     0.71424   0.08989   0.63716   0.00000  Uiso   1.00
H1304  H     0.68709   0.13963   0.64791   0.00000  Uiso   1.00
H1305  H     0.99498   0.08547   0.65147   0.00000  Uiso   1.00
O1306  O     0.96069   0.24710   0.76332   0.00000  Uiso   1.00
C1307  C     0.95881   0.26975   0.72185   0.00000  Uiso   1.00
H1308  H     0.93469   0.29551   0.72229   0.00000  Uiso   1.00
H1309  H     0.94960   0.24762   0.69287   0.00000  Uiso   1.00
H1310  H     0.98897   0.28636   0.71667   0.00000  Uiso   1.00
O1311  O     0.95580   0.09039   0.72253   0.00000  Uiso   1.00
C1312  C     0.96615   0.05703   0.75447   0.00000  Uiso   1.00
H1313  H     0.96832   0.06981   0.78952   0.00000  Uiso   1.00
H1314  H     0.99549   0.04067   0.74699   0.00000  Uiso   1.00
H1315  H     0.94121   0.03153   0.75249   0.00000  Uiso   1.00
O1316  O     0.71117   0.24298   0.77806   0.00000  Uiso   1.00
C1317  C     0.71011   0.24607   0.82496   0.00000  Uiso   1.00
H1318  H     0.72934   0.27510   0.83669   0.00000  Uiso   1.00
H1319  H     0.72344   0.21608   0.84191   0.00000  Uiso   1.00
H1320  H     0.67813   0.25160   0.83508   0.00000  Uiso   1.00
C1321  C     0.08683   0.50002   0.74929   0.00000  Uiso   1.00
C1322  C     0.24654   0.50024   0.74944   0.00000  Uiso   1.00
C1323  C     0.16647   0.49998   0.66436   0.00000  Uiso   1.00
C1324  C     0.16724   0.49983   0.83571   0.00000  Uiso   1.00
C1325  C     0.18982   0.35768   0.78224   0.00000  Uiso   1.00
C1326  C     0.14169   0.64253   0.71947   0.00000  Uiso   1.00
C1327  C     0.14273   0.35689   0.71859   0.00000  Uiso   1.00
C1328  C     0.19120   0.64325   0.78099   0.00000  Uiso   1.00
C1329  C     0.01980   0.46481   0.72896   0.00000  Uiso   1.00
C1330  C     0.31329   0.54023   0.75783   0.00000  Uiso   1.00
C1331  C     0.31100   0.46225   0.73446   0.00000  Uiso   1.00
C1332  C     0.02259   0.53861   0.76334   0.00000  Uiso   1.00
C1333  C     0.20231   0.48400   0.55022   0.00000  Uiso   1.00
C1334  C     0.13659   0.47852   0.95142   0.00000  Uiso   1.00
C1335  C     0.20114   0.52244   0.95470   0.00000  Uiso   1.00
C1336  C     0.13450   0.52019   0.54461   0.00000  Uiso   1.00
C1337  C     0.20235   0.48482   0.59682   0.00000  Uiso   1.00
C1338  C     0.13540   0.47884   0.90475   0.00000  Uiso   1.00
C1339  C     0.20282   0.51799   0.90860   0.00000  Uiso   1.00
C1340  C     0.13209   0.51592   0.59064   0.00000  Uiso   1.00
C1341  C     0.16676   0.49991   0.61655   0.00000  Uiso   1.00
C1342  C     0.16852   0.49902   0.88370   0.00000  Uiso   1.00
C1343  C     0.16882   0.50269   0.52446   0.00000  Uiso   1.00
C1344  C     0.16862   0.50173   0.97600   0.00000  Uiso   1.00
C1345  C     0.29077   0.50079   0.74757   0.00000  Uiso   1.00
C1346  C     0.04258   0.50077   0.74791   0.00000  Uiso   1.00
N1347  N     0.16667   0.61907   0.75000   0.00000  Uiso   1.00
N1348  N     0.16667   0.38093   0.75000   0.00000  Uiso   1.00
O1349  O     0.10559   0.53821   0.75000   0.00000  Uiso   1.00
O1350  O     0.22774   0.46179   0.75001   0.00000  Uiso   1.00
O1351  O     0.22774   0.53821   0.75001   0.00000  Uiso   1.00
O1352  O     0.10559   0.46179   0.75000   0.00000  Uiso   1.00
O1353  O     0.16666   0.53822   0.68453   0.00000  Uiso   1.00
O1354  O     0.16667   0.46178   0.81547   0.00000  Uiso   1.00
O1355  O     0.16667   0.53822   0.81547   0.00000  Uiso   1.00
O1356  O     0.16666   0.46178   0.68453   0.00000  Uiso   1.00
Zn1357 Zn    0.16667   0.55104   0.75000   0.00000  Uiso   1.00
Zn1358 Zn    0.16667   0.44896   0.75000   0.00000  Uiso   1.00
C1359  C     0.21142   0.38273   0.82118   0.00000  Uiso   1.00
H1360  H     0.22593   0.41365   0.81019   0.00000  Uiso   1.00
H1361  H     0.18867   0.38981   0.84626   0.00000  Uiso   1.00
H1362  H     0.23722   0.36482   0.83891   0.00000  Uiso   1.00
C1363  C     0.11162   0.61872   0.68674   0.00000  Uiso   1.00
H1364  H     0.11203   0.58288   0.68963   0.00000  Uiso   1.00
H1365  H     0.07939   0.62799   0.69283   0.00000  Uiso   1.00
H1366  H     0.11844   0.62721   0.65187   0.00000  Uiso   1.00
C1367  C     0.11712   0.38041   0.68213   0.00000  Uiso   1.00
H1368  H     0.11239   0.41523   0.68965   0.00000  Uiso   1.00
H1369  H     0.13201   0.37767   0.64993   0.00000  Uiso   1.00
H1370  H     0.08536   0.36634   0.67818   0.00000  Uiso   1.00
C1371  C     0.21969   0.61995   0.81489   0.00000  Uiso   1.00
H1372  H     0.22181   0.58457   0.80894   0.00000  Uiso   1.00
H1373  H     0.25183   0.63274   0.81319   0.00000  Uiso   1.00
H1374  H     0.20902   0.62497   0.84897   0.00000  Uiso   1.00
O1375  O     0.23626   0.46773   0.52991   0.00000  Uiso   1.00
C1376  C     0.22976   0.42213   0.52050   0.00000  Uiso   1.00
H1377  H     0.20775   0.41768   0.99071   0.00000  Uiso   1.00
H1378  H     0.21891   0.40325   0.54964   0.00000  Uiso   1.00
H1379  H     0.25965   0.40760   0.51223   0.00000  Uiso   1.00
O1380  O     0.10480   0.45818   0.97294   0.00000  Uiso   1.00
C1381  C     0.11607   0.41415   0.98406   0.00000  Uiso   1.00
H1382  H     0.13836   0.41374   0.51390   0.00000  Uiso   1.00
H1383  H     0.12883   0.39616   0.95560   0.00000  Uiso   1.00
H1384  H     0.08795   0.39567   0.99302   0.00000  Uiso   1.00
O1385  O     0.23367   0.54324   0.97926   0.00000  Uiso   1.00
C1386  C     0.22315   0.58786   0.98687   0.00000  Uiso   1.00
H1387  H     0.20116   0.58990   0.51366   0.00000  Uiso   1.00
H1388  H     0.21031   0.60474   0.95587   0.00000  Uiso   1.00
H1389  H     0.25165   0.60634   0.99876   0.00000  Uiso   1.00
O1390  O     0.10106   0.53720   0.51895   0.00000  Uiso   1.00
C1391  C     0.10900   0.58236   0.50958   0.00000  Uiso   1.00
H1392  H     0.13081   0.58548   0.98266   0.00000  Uiso   1.00
H1393  H     0.12083   0.60132   0.53987   0.00000  Uiso   1.00
H1394  H     0.07952   0.59788   0.99704   0.00000  Uiso   1.00
C1395  C     0.24016   0.46990   0.62539   0.00000  Uiso   1.00
H1396  H     0.23253   0.43963   0.64457   0.00000  Uiso   1.00
H1397  H     0.26674   0.46196   0.60542   0.00000  Uiso   1.00
H1398  H     0.25059   0.49683   0.64903   0.00000  Uiso   1.00
C1399  C     0.09947   0.45686   0.87769   0.00000  Uiso   1.00
H1400  H     0.08700   0.47962   0.85106   0.00000  Uiso   1.00
H1401  H     0.11013   0.42597   0.86199   0.00000  Uiso   1.00
H1402  H     0.07341   0.44780   0.89826   0.00000  Uiso   1.00
C1403  C     0.24246   0.53142   0.88783   0.00000  Uiso   1.00
H1404  H     0.24775   0.56780   0.89140   0.00000  Uiso   1.00
H1405  H     0.26895   0.51410   0.90549   0.00000  Uiso   1.00
H1406  H     0.24281   0.52215   0.85207   0.00000  Uiso   1.00
C1407  C     0.09175   0.52739   0.61045   0.00000  Uiso   1.00
H1408  H     0.09094   0.51818   0.64622   0.00000  Uiso   1.00
H1409  H     0.08596   0.56355   0.60678   0.00000  Uiso   1.00
H1410  H     0.06592   0.50890   0.59225   0.00000  Uiso   1.00
O1411  O     0.03857   0.43301   0.70406   0.00000  Uiso   1.00
C1412  C     0.02444   0.43758   0.65847   0.00000  Uiso   1.00
H1413  H     0.04757   0.42323   0.63716   0.00000  Uiso   1.00
H1414  H     0.02042   0.47297   0.64791   0.00000  Uiso   1.00
H1415  H     0.32831   0.41881   0.65147   0.00000  Uiso   1.00
O1416  O     0.29402   0.58044   0.76332   0.00000  Uiso   1.00
C1417  C     0.29214   0.60308   0.72185   0.00000  Uiso   1.00
H1418  H     0.26802   0.62885   0.72229   0.00000  Uiso   1.00
H1419  H     0.28293   0.58096   0.69287   0.00000  Uiso   1.00
H1420  H     0.32230   0.61970   0.71667   0.00000  Uiso   1.00
O1421  O     0.28914   0.42372   0.72253   0.00000  Uiso   1.00
C1422  C     0.29948   0.39036   0.75447   0.00000  Uiso   1.00
H1423  H     0.30165   0.40315   0.78952   0.00000  Uiso   1.00
H1424  H     0.32883   0.37400   0.74699   0.00000  Uiso   1.00
H1425  H     0.27455   0.36486   0.75249   0.00000  Uiso   1.00
O1426  O     0.04450   0.57631   0.77806   0.00000  Uiso   1.00
C1427  C     0.04344   0.57941   0.82496   0.00000  Uiso   1.00
H1428  H     0.06267   0.60844   0.83669   0.00000  Uiso   1.00
H1429  H     0.05677   0.54941   0.84191   0.00000  Uiso   1.00
H1430  H     0.01147   0.58493   0.83508   0.00000  Uiso   1.00
C1431  C     0.42016   0.50002   0.74929   0.00000  Uiso   1.00
C1432  C     0.57987   0.50024   0.74944   0.00000  Uiso   1.00
C1433  C     0.49981   0.49998   0.66436   0.00000  Uiso   1.00
C1434  C     0.50058   0.49983   0.83571   0.00000  Uiso   1.00
C1435  C     0.52315   0.35768   0.78224   0.00000  Uiso   1.00
C1436  C     0.47502   0.64253   0.71947   0.00000  Uiso   1.00
C1437  C     0.47606   0.35689   0.71859   0.00000  Uiso   1.00
C1438  C     0.52454   0.64325   0.78099   0.00000  Uiso   1.00
C1439  C     0.35313   0.46481   0.72896   0.00000  Uiso   1.00
C1440  C     0.64663   0.54023   0.75783   0.00000  Uiso   1.00
C1441  C     0.64434   0.46225   0.73446   0.00000  Uiso   1.00
C1442  C     0.35592   0.53861   0.76334   0.00000  Uiso   1.00
C1443  C     0.53564   0.48400   0.55022   0.00000  Uiso   1.00
C1444  C     0.46992   0.47852   0.95142   0.00000  Uiso   1.00
C1445  C     0.53448   0.52244   0.95470   0.00000  Uiso   1.00
C1446  C     0.46784   0.52019   0.54461   0.00000  Uiso   1.00
C1447  C     0.53569   0.48482   0.59682   0.00000  Uiso   1.00
C1448  C     0.46873   0.47884   0.90475   0.00000  Uiso   1.00
C1449  C     0.53615   0.51799   0.90860   0.00000  Uiso   1.00
C1450  C     0.46543   0.51592   0.59064   0.00000  Uiso   1.00
C1451  C     0.50009   0.49991   0.61655   0.00000  Uiso   1.00
C1452  C     0.50185   0.49902   0.88370   0.00000  Uiso   1.00
C1453  C     0.50216   0.50269   0.52446   0.00000  Uiso   1.00
C1454  C     0.50195   0.50173   0.97600   0.00000  Uiso   1.00
C1455  C     0.62411   0.50079   0.74757   0.00000  Uiso   1.00
C1456  C     0.37591   0.50077   0.74791   0.00000  Uiso   1.00
N1457  N     0.50000   0.61907   0.75000   0.00000  Uiso   1.00
N1458  N     0.50000   0.38093   0.75000   0.00000  Uiso   1.00
O1459  O     0.43892   0.53821   0.75000   0.00000  Uiso   1.00
O1460  O     0.56108   0.46179   0.75001   0.00000  Uiso   1.00
O1461  O     0.56108   0.53821   0.75001   0.00000  Uiso   1.00
O1462  O     0.43892   0.46179   0.75000   0.00000  Uiso   1.00
O1463  O     0.50000   0.53822   0.68453   0.00000  Uiso   1.00
O1464  O     0.50000   0.46178   0.81547   0.00000  Uiso   1.00
O1465  O     0.50000   0.53822   0.81547   0.00000  Uiso   1.00
O1466  O     0.50000   0.46178   0.68453   0.00000  Uiso   1.00
Zn1467 Zn    0.50000   0.55104   0.75000   0.00000  Uiso   1.00
Zn1468 Zn    0.50000   0.44896   0.75000   0.00000  Uiso   1.00
C1469  C     0.54475   0.38273   0.82118   0.00000  Uiso   1.00
H1470  H     0.55926   0.41365   0.81019   0.00000  Uiso   1.00
H1471  H     0.52201   0.38981   0.84626   0.00000  Uiso   1.00
H1472  H     0.57055   0.36482   0.83891   0.00000  Uiso   1.00
C1473  C     0.44495   0.61872   0.68674   0.00000  Uiso   1.00
H1474  H     0.44537   0.58288   0.68963   0.00000  Uiso   1.00
H1475  H     0.41273   0.62799   0.69283   0.00000  Uiso   1.00
H1476  H     0.45177   0.62721   0.65187   0.00000  Uiso   1.00
C1477  C     0.45045   0.38041   0.68213   0.00000  Uiso   1.00
H1478  H     0.44573   0.41523   0.68965   0.00000  Uiso   1.00
H1479  H     0.46534   0.37767   0.64993   0.00000  Uiso   1.00
H1480  H     0.41870   0.36634   0.67818   0.00000  Uiso   1.00
C1481  C     0.55303   0.61995   0.81489   0.00000  Uiso   1.00
H1482  H     0.55514   0.58457   0.80894   0.00000  Uiso   1.00
H1483  H     0.58517   0.63274   0.81319   0.00000  Uiso   1.00
H1484  H     0.54235   0.62497   0.84897   0.00000  Uiso   1.00
O1485  O     0.56960   0.46773   0.52991   0.00000  Uiso   1.00
C1486  C     0.56309   0.42213   0.52050   0.00000  Uiso   1.00
H1487  H     0.54109   0.41768   0.99071   0.00000  Uiso   1.00
H1488  H     0.55224   0.40325   0.54964   0.00000  Uiso   1.00
H1489  H     0.59298   0.40760   0.51223   0.00000  Uiso   1.00
O1490  O     0.43813   0.45818   0.97294   0.00000  Uiso   1.00
C1491  C     0.44940   0.41415   0.98406   0.00000  Uiso   1.00
H1492  H     0.47169   0.41374   0.51390   0.00000  Uiso   1.00
H1493  H     0.46216   0.39616   0.95560   0.00000  Uiso   1.00
H1494  H     0.42128   0.39567   0.99302   0.00000  Uiso   1.00
O1495  O     0.56700   0.54324   0.97926   0.00000  Uiso   1.00
C1496  C     0.55648   0.58786   0.98687   0.00000  Uiso   1.00
H1497  H     0.53450   0.58990   0.51366   0.00000  Uiso   1.00
H1498  H     0.54364   0.60474   0.95587   0.00000  Uiso   1.00
H1499  H     0.58498   0.60634   0.99876   0.00000  Uiso   1.00
O1500  O     0.43440   0.53720   0.51895   0.00000  Uiso   1.00
C1501  C     0.44234   0.58236   0.50958   0.00000  Uiso   1.00
H1502  H     0.46415   0.58548   0.98266   0.00000  Uiso   1.00
H1503  H     0.45416   0.60132   0.53987   0.00000  Uiso   1.00
H1504  H     0.41286   0.59788   0.99704   0.00000  Uiso   1.00
C1505  C     0.57349   0.46990   0.62539   0.00000  Uiso   1.00
H1506  H     0.56587   0.43963   0.64457   0.00000  Uiso   1.00
H1507  H     0.60007   0.46196   0.60542   0.00000  Uiso   1.00
H1508  H     0.58393   0.49683   0.64903   0.00000  Uiso   1.00
C1509  C     0.43281   0.45686   0.87769   0.00000  Uiso   1.00
H1510  H     0.42033   0.47962   0.85106   0.00000  Uiso   1.00
H1511  H     0.44346   0.42597   0.86199   0.00000  Uiso   1.00
H1512  H     0.40675   0.44780   0.89826   0.00000  Uiso   1.00
C1513  C     0.57580   0.53142   0.88783   0.00000  Uiso   1.00
H1514  H     0.58108   0.56780   0.89140   0.00000  Uiso   1.00
H1515  H     0.60228   0.51410   0.90549   0.00000  Uiso   1.00
H1516  H     0.57614   0.52215   0.85207   0.00000  Uiso   1.00
C1517  C     0.42509   0.52739   0.61045   0.00000  Uiso   1.00
H1518  H     0.42428   0.51818   0.64622   0.00000  Uiso   1.00
H1519  H     0.41929   0.56355   0.60678   0.00000  Uiso   1.00
H1520  H     0.39925   0.50890   0.59225   0.00000  Uiso   1.00
O1521  O     0.37190   0.43301   0.70406   0.00000  Uiso   1.00
C1522  C     0.35777   0.43758   0.65847   0.00000  Uiso   1.00
H1523  H     0.38091   0.42323   0.63716   0.00000  Uiso   1.00
H1524  H     0.35375   0.47297   0.64791   0.00000  Uiso   1.00
H1525  H     0.66165   0.41881   0.65147   0.00000  Uiso   1.00
O1526  O     0.62736   0.58044   0.76332   0.00000  Uiso   1.00
C1527  C     0.62548   0.60308   0.72185   0.00000  Uiso   1.00
H1528  H     0.60135   0.62885   0.72229   0.00000  Uiso   1.00
H1529  H     0.61627   0.58096   0.69287   0.00000  Uiso   1.00
H1530  H     0.65564   0.61970   0.71667   0.00000  Uiso   1.00
O1531  O     0.62247   0.42372   0.72253   0.00000  Uiso   1.00
C1532  C     0.63281   0.39036   0.75447   0.00000  Uiso   1.00
H1533  H     0.63499   0.40315   0.78952   0.00000  Uiso   1.00
H1534  H     0.66216   0.37400   0.74699   0.00000  Uiso   1.00
H1535  H     0.60788   0.36486   0.75249   0.00000  Uiso   1.00
O1536  O     0.37784   0.57631   0.77806   0.00000  Uiso   1.00
C1537  C     0.37677   0.57941   0.82496   0.00000  Uiso   1.00
H1538  H     0.39601   0.60844   0.83669   0.00000  Uiso   1.00
H1539  H     0.39010   0.54941   0.84191   0.00000  Uiso   1.00
H1540  H     0.34480   0.58493   0.83508   0.00000  Uiso   1.00
C1541  C     0.75349   0.50002   0.74929   0.00000  Uiso   1.00
C1542  C     0.91320   0.50024   0.74944   0.00000  Uiso   1.00
C1543  C     0.83314   0.49998   0.66436   0.00000  Uiso   1.00
C1544  C     0.83391   0.49983   0.83571   0.00000  Uiso   1.00
C1545  C     0.85648   0.35768   0.78224   0.00000  Uiso   1.00
C1546  C     0.80836   0.64253   0.71947   0.00000  Uiso   1.00
C1547  C     0.80939   0.35689   0.71859   0.00000  Uiso   1.00
C1548  C     0.85787   0.64325   0.78099   0.00000  Uiso   1.00
C1549  C     0.68647   0.46481   0.72896   0.00000  Uiso   1.00
C1550  C     0.97996   0.54023   0.75783   0.00000  Uiso   1.00
C1551  C     0.97767   0.46225   0.73446   0.00000  Uiso   1.00
C1552  C     0.68925   0.53861   0.76334   0.00000  Uiso   1.00
C1553  C     0.86897   0.48400   0.55022   0.00000  Uiso   1.00
C1554  C     0.80325   0.47852   0.95142   0.00000  Uiso   1.00
C1555  C     0.86781   0.52244   0.95470   0.00000  Uiso   1.00
C1556  C     0.80117   0.52019   0.54461   0.00000  Uiso   1.00
C1557  C     0.86902   0.48482   0.59682   0.00000  Uiso   1.00
C1558  C     0.80207   0.47884   0.90475   0.00000  Uiso   1.00
C1559  C     0.86949   0.51799   0.90860   0.00000  Uiso   1.00
C1560  C     0.79876   0.51592   0.59064   0.00000  Uiso   1.00
C1561  C     0.83343   0.49991   0.61655   0.00000  Uiso   1.00
C1562  C     0.83519   0.49902   0.88370   0.00000  Uiso   1.00
C1563  C     0.83549   0.50269   0.52446   0.00000  Uiso   1.00
C1564  C     0.83528   0.50173   0.97600   0.00000  Uiso   1.00
C1565  C     0.95744   0.50079   0.74757   0.00000  Uiso   1.00
C1566  C     0.70925   0.50077   0.74791   0.00000  Uiso   1.00
N1567  N     0.83333   0.61907   0.75000   0.00000  Uiso   1.00
N1568  N     0.83333   0.38093   0.75000   0.00000  Uiso   1.00
O1569  O     0.77226   0.53821   0.75000   0.00000  Uiso   1.00
O1570  O     0.89441   0.46179   0.75001   0.00000  Uiso   1.00
O1571  O     0.89441   0.53821   0.75001   0.00000  Uiso   1.00
O1572  O     0.77226   0.46179   0.75000   0.00000  Uiso   1.00
O1573  O     0.83333   0.53822   0.68453   0.00000  Uiso   1.00
O1574  O     0.83334   0.46178   0.81547   0.00000  Uiso   1.00
O1575  O     0.83334   0.53822   0.81547   0.00000  Uiso   1.00
O1576  O     0.83333   0.46178   0.68453   0.00000  Uiso   1.00
Zn1577 Zn    0.83333   0.55104   0.75000   0.00000  Uiso   1.00
Zn1578 Zn    0.83333   0.44896   0.75000   0.00000  Uiso   1.00
C1579  C     0.87808   0.38273   0.82118   0.00000  Uiso   1.00
H1580  H     0.89259   0.41365   0.81019   0.00000  Uiso   1.00
H1581  H     0.85534   0.38981   0.84626   0.00000  Uiso   1.00
H1582  H     0.90388   0.36482   0.83891   0.00000  Uiso   1.00
C1583  C     0.77829   0.61872   0.68674   0.00000  Uiso   1.00
H1584  H     0.77870   0.58288   0.68963   0.00000  Uiso   1.00
H1585  H     0.74606   0.62799   0.69283   0.00000  Uiso   1.00
H1586  H     0.78511   0.62721   0.65187   0.00000  Uiso   1.00
C1587  C     0.78379   0.38041   0.68213   0.00000  Uiso   1.00
H1588  H     0.77906   0.41523   0.68965   0.00000  Uiso   1.00
H1589  H     0.79868   0.37767   0.64993   0.00000  Uiso   1.00
H1590  H     0.75203   0.36634   0.67818   0.00000  Uiso   1.00
C1591  C     0.88636   0.61995   0.81489   0.00000  Uiso   1.00
H1592  H     0.88847   0.58457   0.80894   0.00000  Uiso   1.00
H1593  H     0.91850   0.63274   0.81319   0.00000  Uiso   1.00
H1594  H     0.87568   0.62497   0.84897   0.00000  Uiso   1.00
O1595  O     0.90293   0.46773   0.52991   0.00000  Uiso   1.00
C1596  C     0.89642   0.42213   0.52050   0.00000  Uiso   1.00
H1597  H     0.87442   0.41768   0.99071   0.00000  Uiso   1.00
H1598  H     0.88557   0.40325   0.54964   0.00000  Uiso   1.00
H1599  H     0.92631   0.40760   0.51223   0.00000  Uiso   1.00
O1600  O     0.77147   0.45818   0.97294   0.00000  Uiso   1.00
C1601  C     0.78273   0.41415   0.98406   0.00000  Uiso   1.00
H1602  H     0.80503   0.41374   0.51390   0.00000  Uiso   1.00
H1603  H     0.79550   0.39616   0.95560   0.00000  Uiso   1.00
H1604  H     0.75461   0.39567   0.99302   0.00000  Uiso   1.00
O1605  O     0.90033   0.54324   0.97926   0.00000  Uiso   1.00
C1606  C     0.88982   0.58786   0.98687   0.00000  Uiso   1.00
H1607  H     0.86783   0.58990   0.51366   0.00000  Uiso   1.00
H1608  H     0.87697   0.60474   0.95587   0.00000  Uiso   1.00
H1609  H     0.91831   0.60634   0.99876   0.00000  Uiso   1.00
O1610  O     0.76773   0.53720   0.51895   0.00000  Uiso   1.00
C1611  C     0.77567   0.58236   0.50958   0.00000  Uiso   1.00
H1612  H     0.79748   0.58548   0.98266   0.00000  Uiso   1.00
H1613  H     0.78750   0.60132   0.53987   0.00000  Uiso   1.00
H1614  H     0.74619   0.59788   0.99704   0.00000  Uiso   1.00
C1615  C     0.90683   0.46990   0.62539   0.00000  Uiso   1.00
H1616  H     0.89920   0.43963   0.64457   0.00000  Uiso   1.00
H1617  H     0.93340   0.46196   0.60542   0.00000  Uiso   1.00
H1618  H     0.91726   0.49683   0.64903   0.00000  Uiso   1.00
C1619  C     0.76614   0.45686   0.87769   0.00000  Uiso   1.00
H1620  H     0.75367   0.47962   0.85106   0.00000  Uiso   1.00
H1621  H     0.77679   0.42597   0.86199   0.00000  Uiso   1.00
H1622  H     0.74008   0.44780   0.89826   0.00000  Uiso   1.00
C1623  C     0.90913   0.53142   0.88783   0.00000  Uiso   1.00
H1624  H     0.91442   0.56780   0.89140   0.00000  Uiso   1.00
H1625  H     0.93562   0.51410   0.90549   0.00000  Uiso   1.00
H1626  H     0.90948   0.52215   0.85207   0.00000  Uiso   1.00
C1627  C     0.75842   0.52739   0.61045   0.00000  Uiso   1.00
H1628  H     0.75761   0.51818   0.64622   0.00000  Uiso   1.00
H1629  H     0.75262   0.56355   0.60678   0.00000  Uiso   1.00
H1630  H     0.73259   0.50890   0.59225   0.00000  Uiso   1.00
O1631  O     0.70523   0.43301   0.70406   0.00000  Uiso   1.00
C1632  C     0.69110   0.43758   0.65847   0.00000  Uiso   1.00
H1633  H     0.71424   0.42323   0.63716   0.00000  Uiso   1.00
H1634  H     0.68709   0.47297   0.64791   0.00000  Uiso   1.00
H1635  H     0.99498   0.41881   0.65147   0.00000  Uiso   1.00
O1636  O     0.96069   0.58044   0.76332   0.00000  Uiso   1.00
C1637  C     0.95881   0.60308   0.72185   0.00000  Uiso   1.00
H1638  H     0.93469   0.62885   0.72229   0.00000  Uiso   1.00
H1639  H     0.94960   0.58096   0.69287   0.00000  Uiso   1.00
H1640  H     0.98897   0.61970   0.71667   0.00000  Uiso   1.00
O1641  O     0.95580   0.42372   0.72253   0.00000  Uiso   1.00
C1642  C     0.96615   0.39036   0.75447   0.00000  Uiso   1.00
H1643  H     0.96832   0.40315   0.78952   0.00000  Uiso   1.00
H1644  H     0.99549   0.37400   0.74699   0.00000  Uiso   1.00
H1645  H     0.94121   0.36486   0.75249   0.00000  Uiso   1.00
O1646  O     0.71117   0.57631   0.77806   0.00000  Uiso   1.00
C1647  C     0.71011   0.57941   0.82496   0.00000  Uiso   1.00
H1648  H     0.72934   0.60844   0.83669   0.00000  Uiso   1.00
H1649  H     0.72344   0.54941   0.84191   0.00000  Uiso   1.00
H1650  H     0.67813   0.58493   0.83508   0.00000  Uiso   1.00
C1651  C     0.08683   0.83335   0.74929   0.00000  Uiso   1.00
C1652  C     0.24654   0.83357   0.74944   0.00000  Uiso   1.00
C1653  C     0.16647   0.83331   0.66436   0.00000  Uiso   1.00
C1654  C     0.16724   0.83316   0.83571   0.00000  Uiso   1.00
C1655  C     0.18982   0.69101   0.78224   0.00000  Uiso   1.00
C1656  C     0.14169   0.97586   0.71947   0.00000  Uiso   1.00
C1657  C     0.14273   0.69022   0.71859   0.00000  Uiso   1.00
C1658  C     0.19120   0.97658   0.78099   0.00000  Uiso   1.00
C1659  C     0.01980   0.79814   0.72896   0.00000  Uiso   1.00
C1660  C     0.31329   0.87356   0.75783   0.00000  Uiso   1.00
C1661  C     0.31100   0.79558   0.73446   0.00000  Uiso   1.00
C1662  C     0.02259   0.87195   0.76334   0.00000  Uiso   1.00
C1663  C     0.20231   0.81734   0.55022   0.00000  Uiso   1.00
C1664  C     0.13659   0.81185   0.95142   0.00000  Uiso   1.00
C1665  C     0.20114   0.85577   0.95470   0.00000  Uiso   1.00
C1666  C     0.13450   0.85352   0.54461   0.00000  Uiso   1.00
C1667  C     0.20235   0.81815   0.59682   0.00000  Uiso   1.00
C1668  C     0.13540   0.81217   0.90475   0.00000  Uiso   1.00
C1669  C     0.20282   0.85132   0.90860   0.00000  Uiso   1.00
C1670  C     0.13209   0.84926   0.59064   0.00000  Uiso   1.00
C1671  C     0.16676   0.83325   0.61655   0.00000  Uiso   1.00
C1672  C     0.16852   0.83235   0.88370   0.00000  Uiso   1.00
C1673  C     0.16882   0.83602   0.52446   0.00000  Uiso   1.00
C1674  C     0.16862   0.83507   0.97600   0.00000  Uiso   1.00
C1675  C     0.29077   0.83413   0.74757   0.00000  Uiso   1.00
C1676  C     0.04258   0.83410   0.74791   0.00000  Uiso   1.00
N1677  N     0.16667   0.95240   0.75000   0.00000  Uiso   1.00
N1678  N     0.16667   0.71427   0.75000   0.00000  Uiso   1.00
O1679  O     0.10559   0.87154   0.75000   0.00000  Uiso   1.00
O1680  O     0.22774   0.79513   0.75001   0.00000  Uiso   1.00
O1681  O     0.22774   0.87154   0.75001   0.00000  Uiso   1.00
O1682  O     0.10559   0.79513   0.75000   0.00000  Uiso   1.00
O1683  O     0.16666   0.87155   0.68453   0.00000  Uiso   1.00
O1684  O     0.16667   0.79511   0.81547   0.00000  Uiso   1.00
O1685  O     0.16667   0.87155   0.81547   0.00000  Uiso   1.00
O1686  O     0.16666   0.79511   0.68453   0.00000  Uiso   1.00
Zn1687 Zn    0.16667   0.88437   0.75000   0.00000  Uiso   1.00
Zn1688 Zn    0.16667   0.78229   0.75000   0.00000  Uiso   1.00
C1689  C     0.21142   0.71606   0.82118   0.00000  Uiso   1.00
H1690  H     0.22593   0.74698   0.81019   0.00000  Uiso   1.00
H1691  H     0.18867   0.72314   0.84626   0.00000  Uiso   1.00
H1692  H     0.23722   0.69815   0.83891   0.00000  Uiso   1.00
C1693  C     0.11162   0.95205   0.68674   0.00000  Uiso   1.00
H1694  H     0.11203   0.91621   0.68963   0.00000  Uiso   1.00
H1695  H     0.07939   0.96132   0.69283   0.00000  Uiso   1.00
H1696  H     0.11844   0.96054   0.65187   0.00000  Uiso   1.00
C1697  C     0.11712   0.71374   0.68213   0.00000  Uiso   1.00
H1698  H     0.11239   0.74857   0.68965   0.00000  Uiso   1.00
H1699  H     0.13201   0.71101   0.64993   0.00000  Uiso   1.00
H1700  H     0.08536   0.69967   0.67818   0.00000  Uiso   1.00
C1701  C     0.21969   0.95329   0.81489   0.00000  Uiso   1.00
H1702  H     0.22181   0.91791   0.80894   0.00000  Uiso   1.00
H1703  H     0.25183   0.96607   0.81319   0.00000  Uiso   1.00
H1704  H     0.20902   0.95830   0.84897   0.00000  Uiso   1.00
O1705  O     0.23626   0.80106   0.52991   0.00000  Uiso   1.00
C1706  C     0.22976   0.75546   0.52050   0.00000  Uiso   1.00
H1707  H     0.20775   0.75101   0.99071   0.00000  Uiso   1.00
H1708  H     0.21891   0.73659   0.54964   0.00000  Uiso   1.00
H1709  H     0.25965   0.74094   0.51223   0.00000  Uiso   1.00
O1710  O     0.10480   0.79152   0.97294   0.00000  Uiso   1.00
C1711  C     0.11607   0.74748   0.98406   0.00000  Uiso   1.00
H1712  H     0.13836   0.74707   0.51390   0.00000  Uiso   1.00
H1713  H     0.12883   0.72949   0.95560   0.00000  Uiso   1.00
H1714  H     0.08795   0.72900   0.99302   0.00000  Uiso   1.00
O1715  O     0.23367   0.87658   0.97926   0.00000  Uiso   1.00
C1716  C     0.22315   0.92120   0.98687   0.00000  Uiso   1.00
H1717  H     0.20116   0.92323   0.51366   0.00000  Uiso   1.00
H1718  H     0.21031   0.93807   0.95587   0.00000  Uiso   1.00
H1719  H     0.25165   0.93967   0.99876   0.00000  Uiso   1.00
O1720  O     0.10106   0.87053   0.51895   0.00000  Uiso   1.00
C1721  C     0.10900   0.91569   0.50958   0.00000  Uiso   1.00
H1722  H     0.13081   0.91881   0.98266   0.00000  Uiso   1.00
H1723  H     0.12083   0.93466   0.53987   0.00000  Uiso   1.00
H1724  H     0.07952   0.93121   0.99704   0.00000  Uiso   1.00
C1725  C     0.24016   0.80324   0.62539   0.00000  Uiso   1.00
H1726  H     0.23253   0.77296   0.64457   0.00000  Uiso   1.00
H1727  H     0.26674   0.79530   0.60542   0.00000  Uiso   1.00
H1728  H     0.25059   0.83017   0.64903   0.00000  Uiso   1.00
C1729  C     0.09947   0.79019   0.87769   0.00000  Uiso   1.00
H1730  H     0.08700   0.81296   0.85106   0.00000  Uiso   1.00
H1731  H     0.11013   0.75930   0.86199   0.00000  Uiso   1.00
H1732  H     0.07341   0.78113   0.89826   0.00000  Uiso   1.00
C1733  C     0.24246   0.86476   0.88783   0.00000  Uiso   1.00
H1734  H     0.24775   0.90113   0.89140   0.00000  Uiso   1.00
H1735  H     0.26895   0.84743   0.90549   0.00000  Uiso   1.00
H1736  H     0.24281   0.85548   0.85207   0.00000  Uiso   1.00
C1737  C     0.09175   0.86072   0.61045   0.00000  Uiso   1.00
H1738  H     0.09094   0.85152   0.64622   0.00000  Uiso   1.00
H1739  H     0.08596   0.89689   0.60678   0.00000  Uiso   1.00
H1740  H     0.06592   0.84224   0.59225   0.00000  Uiso   1.00
O1741  O     0.03857   0.76634   0.70406   0.00000  Uiso   1.00
C1742  C     0.02444   0.77092   0.65847   0.00000  Uiso   1.00
H1743  H     0.04757   0.75656   0.63716   0.00000  Uiso   1.00
H1744  H     0.02042   0.80630   0.64791   0.00000  Uiso   1.00
H1745  H     0.32831   0.75214   0.65147   0.00000  Uiso   1.00
O1746  O     0.29402   0.91377   0.76332   0.00000  Uiso   1.00
C1747  C     0.29214   0.93641   0.72185   0.00000  Uiso   1.00
H1748  H     0.26802   0.96218   0.72229   0.00000  Uiso   1.00
H1749  H     0.28293   0.91429   0.69287   0.00000  Uiso   1.00
H1750  H     0.32230   0.95303   0.71667   0.00000  Uiso   1.00
O1751  O     0.28914   0.75706   0.72253   0.00000  Uiso   1.00
C1752  C     0.29948   0.72370   0.75447   0.00000  Uiso   1.00
H1753  H     0.30165   0.73648   0.78952   0.00000  Uiso   1.00
H1754  H     0.32883   0.70733   0.74699   0.00000  Uiso   1.00
H1755  H     0.27455   0.69820   0.75249   0.00000  Uiso   1.00
O1756  O     0.04450   0.90964   0.77806   0.00000  Uiso   1.00
C1757  C     0.04344   0.91274   0.82496   0.00000  Uiso   1.00
H1758  H     0.06267   0.94177   0.83669   0.00000  Uiso   1.00
H1759  H     0.05677   0.88274   0.84191   0.00000  Uiso   1.00
H1760  H     0.01147   0.91826   0.83508   0.00000  Uiso   1.00
C1761  C     0.42016   0.83335   0.74929   0.00000  Uiso   1.00
C1762  C     0.57987   0.83357   0.74944   0.00000  Uiso   1.00
C1763  C     0.49981   0.83331   0.66436   0.00000  Uiso   1.00
C1764  C     0.50058   0.83316   0.83571   0.00000  Uiso   1.00
C1765  C     0.52315   0.69101   0.78224   0.00000  Uiso   1.00
C1766  C     0.47502   0.97586   0.71947   0.00000  Uiso   1.00
C1767  C     0.47606   0.69022   0.71859   0.00000  Uiso   1.00
C1768  C     0.52454   0.97658   0.78099   0.00000  Uiso   1.00
C1769  C     0.35313   0.79814   0.72896   0.00000  Uiso   1.00
C1770  C     0.64663   0.87356   0.75783   0.00000  Uiso   1.00
C1771  C     0.64434   0.79558   0.73446   0.00000  Uiso   1.00
C1772  C     0.35592   0.87195   0.76334   0.00000  Uiso   1.00
C1773  C     0.53564   0.81734   0.55022   0.00000  Uiso   1.00
C1774  C     0.46992   0.81185   0.95142   0.00000  Uiso   1.00
C1775  C     0.53448   0.85577   0.95470   0.00000  Uiso   1.00
C1776  C     0.46784   0.85352   0.54461   0.00000  Uiso   1.00
C1777  C     0.53569   0.81815   0.59682   0.00000  Uiso   1.00
C1778  C     0.46873   0.81217   0.90475   0.00000  Uiso   1.00
C1779  C     0.53615   0.85132   0.90860   0.00000  Uiso   1.00
C1780  C     0.46543   0.84926   0.59064   0.00000  Uiso   1.00
C1781  C     0.50009   0.83325   0.61655   0.00000  Uiso   1.00
C1782  C     0.50185   0.83235   0.88370   0.00000  Uiso   1.00
C1783  C     0.50216   0.83602   0.52446   0.00000  Uiso   1.00
C1784  C     0.50195   0.83507   0.97600   0.00000  Uiso   1.00
C1785  C     0.62411   0.83413   0.74757   0.00000  Uiso   1.00
C1786  C     0.37591   0.83410   0.74791   0.00000  Uiso   1.00
N1787  N     0.50000   0.95240   0.75000   0.00000  Uiso   1.00
N1788  N     0.50000   0.71427   0.75000   0.00000  Uiso   1.00
O1789  O     0.43892   0.87154   0.75000   0.00000  Uiso   1.00
O1790  O     0.56108   0.79513   0.75001   0.00000  Uiso   1.00
O1791  O     0.56108   0.87154   0.75001   0.00000  Uiso   1.00
O1792  O     0.43892   0.79513   0.75000   0.00000  Uiso   1.00
O1793  O     0.50000   0.87155   0.68453   0.00000  Uiso   1.00
O1794  O     0.50000   0.79511   0.81547   0.00000  Uiso   1.00
O1795  O     0.50000   0.87155   0.81547   0.00000  Uiso   1.00
O1796  O     0.50000   0.79511   0.68453   0.00000  Uiso   1.00
Zn1797 Zn    0.50000   0.88437   0.75000   0.00000  Uiso   1.00
Zn1798 Zn    0.50000   0.78229   0.75000   0.00000  Uiso   1.00
C1799  C     0.54475   0.71606   0.82118   0.00000  Uiso   1.00
H1800  H     0.55926   0.74698   0.81019   0.00000  Uiso   1.00
H1801  H     0.52201   0.72314   0.84626   0.00000  Uiso   1.00
H1802  H     0.57055   0.69815   0.83891   0.00000  Uiso   1.00
C1803  C     0.44495   0.95205   0.68674   0.00000  Uiso   1.00
H1804  H     0.44537   0.91621   0.68963   0.00000  Uiso   1.00
H1805  H     0.41273   0.96132   0.69283   0.00000  Uiso   1.00
H1806  H     0.45177   0.96054   0.65187   0.00000  Uiso   1.00
C1807  C     0.45045   0.71374   0.68213   0.00000  Uiso   1.00
H1808  H     0.44573   0.74857   0.68965   0.00000  Uiso   1.00
H1809  H     0.46534   0.71101   0.64993   0.00000  Uiso   1.00
H1810  H     0.41870   0.69967   0.67818   0.00000  Uiso   1.00
C1811  C     0.55303   0.95329   0.81489   0.00000  Uiso   1.00
H1812  H     0.55514   0.91791   0.80894   0.00000  Uiso   1.00
H1813  H     0.58517   0.96607   0.81319   0.00000  Uiso   1.00
H1814  H     0.54235   0.95830   0.84897   0.00000  Uiso   1.00
O1815  O     0.56960   0.80106   0.52991   0.00000  Uiso   1.00
C1816  C     0.56309   0.75546   0.52050   0.00000  Uiso   1.00
H1817  H     0.54109   0.75101   0.99071   0.00000  Uiso   1.00
H1818  H     0.55224   0.73659   0.54964   0.00000  Uiso   1.00
H1819  H     0.59298   0.74094   0.51223   0.00000  Uiso   1.00
O1820  O     0.43813   0.79152   0.97294   0.00000  Uiso   1.00
C1821  C     0.44940   0.74748   0.98406   0.00000  Uiso   1.00
H1822  H     0.47169   0.74707   0.51390   0.00000  Uiso   1.00
H1823  H     0.46216   0.72949   0.95560   0.00000  Uiso   1.00
H1824  H     0.42128   0.72900   0.99302   0.00000  Uiso   1.00
O1825  O     0.56700   0.87658   0.97926   0.00000  Uiso   1.00
C1826  C     0.55648   0.92120   0.98687   0.00000  Uiso   1.00
H1827  H     0.53450   0.92323   0.51366   0.00000  Uiso   1.00
H1828  H     0.54364   0.93807   0.95587   0.00000  Uiso   1.00
H1829  H     0.58498   0.93967   0.99876   0.00000  Uiso   1.00
O1830  O     0.43440   0.87053   0.51895   0.00000  Uiso   1.00
C1831  C     0.44234   0.91569   0.50958   0.00000  Uiso   1.00
H1832  H     0.46415   0.91881   0.98266   0.00000  Uiso   1.00
H1833  H     0.45416   0.93466   0.53987   0.00000  Uiso   1.00
H1834  H     0.41286   0.93121   0.99704   0.00000  Uiso   1.00
C1835  C     0.57349   0.80324   0.62539   0.00000  Uiso   1.00
H1836  H     0.56587   0.77296   0.64457   0.00000  Uiso   1.00
H1837  H     0.60007   0.79530   0.60542   0.00000  Uiso   1.00
H1838  H     0.58393   0.83017   0.64903   0.00000  Uiso   1.00
C1839  C     0.43281   0.79019   0.87769   0.00000  Uiso   1.00
H1840  H     0.42033   0.81296   0.85106   0.00000  Uiso   1.00
H1841  H     0.44346   0.75930   0.86199   0.00000  Uiso   1.00
H1842  H     0.40675   0.78113   0.89826   0.00000  Uiso   1.00
C1843  C     0.57580   0.86476   0.88783   0.00000  Uiso   1.00
H1844  H     0.58108   0.90113   0.89140   0.00000  Uiso   1.00
H1845  H     0.60228   0.84743   0.90549   0.00000  Uiso   1.00
H1846  H     0.57614   0.85548   0.85207   0.00000  Uiso   1.00
C1847  C     0.42509   0.86072   0.61045   0.00000  Uiso   1.00
H1848  H     0.42428   0.85152   0.64622   0.00000  Uiso   1.00
H1849  H     0.41929   0.89689   0.60678   0.00000  Uiso   1.00
H1850  H     0.39925   0.84224   0.59225   0.00000  Uiso   1.00
O1851  O     0.37190   0.76634   0.70406   0.00000  Uiso   1.00
C1852  C     0.35777   0.77092   0.65847   0.00000  Uiso   1.00
H1853  H     0.38091   0.75656   0.63716   0.00000  Uiso   1.00
H1854  H     0.35375   0.80630   0.64791   0.00000  Uiso   1.00
H1855  H     0.66165   0.75214   0.65147   0.00000  Uiso   1.00
O1856  O     0.62736   0.91377   0.76332   0.00000  Uiso   1.00
C1857  C     0.62548   0.93641   0.72185   0.00000  Uiso   1.00
H1858  H     0.60135   0.96218   0.72229   0.00000  Uiso   1.00
H1859  H     0.61627   0.91429   0.69287   0.00000  Uiso   1.00
H1860  H     0.65564   0.95303   0.71667   0.00000  Uiso   1.00
O1861  O     0.62247   0.75706   0.72253   0.00000  Uiso   1.00
C1862  C     0.63281   0.72370   0.75447   0.00000  Uiso   1.00
H1863  H     0.63499   0.73648   0.78952   0.00000  Uiso   1.00
H1864  H     0.66216   0.70733   0.74699   0.00000  Uiso   1.00
H1865  H     0.60788   0.69820   0.75249   0.00000  Uiso   1.00
O1866  O     0.37784   0.90964   0.77806   0.00000  Uiso   1.00
C1867  C     0.37677   0.91274   0.82496   0.00000  Uiso   1.00
H1868  H     0.39601   0.94177   0.83669   0.00000  Uiso   1.00
H1869  H     0.39010   0.88274   0.84191   0.00000  Uiso   1.00
H1870  H     0.34480   0.91826   0.83508   0.00000  Uiso   1.00
C1871  C     0.75349   0.83335   0.74929   0.00000  Uiso   1.00
C1872  C     0.91320   0.83357   0.74944   0.00000  Uiso   1.00
C1873  C     0.83314   0.83331   0.66436   0.00000  Uiso   1.00
C1874  C     0.83391   0.83316   0.83571   0.00000  Uiso   1.00
C1875  C     0.85648   0.69101   0.78224   0.00000  Uiso   1.00
C1876  C     0.80836   0.97586   0.71947   0.00000  Uiso   1.00
C1877  C     0.80939   0.69022   0.71859   0.00000  Uiso   1.00
C1878  C     0.85787   0.97658   0.78099   0.00000  Uiso   1.00
C1879  C     0.68647   0.79814   0.72896   0.00000  Uiso   1.00
C1880  C     0.97996   0.87356   0.75783   0.00000  Uiso   1.00
C1881  C     0.97767   0.79558   0.73446   0.00000  Uiso   1.00
C1882  C     0.68925   0.87195   0.76334   0.00000  Uiso   1.00
C1883  C     0.86897   0.81734   0.55022   0.00000  Uiso   1.00
C1884  C     0.80325   0.81185   0.95142   0.00000  Uiso   1.00
C1885  C     0.86781   0.85577   0.95470   0.00000  Uiso   1.00
C1886  C     0.80117   0.85352   0.54461   0.00000  Uiso   1.00
C1887  C     0.86902   0.81815   0.59682   0.00000  Uiso   1.00
C1888  C     0.80207   0.81217   0.90475   0.00000  Uiso   1.00
C1889  C     0.86949   0.85132   0.90860   0.00000  Uiso   1.00
C1890  C     0.79876   0.84926   0.59064   0.00000  Uiso   1.00
C1891  C     0.83343   0.83325   0.61655   0.00000  Uiso   1.00
C1892  C     0.83519   0.83235   0.88370   0.00000  Uiso   1.00
C1893  C     0.83549   0.83602   0.52446   0.00000  Uiso   1.00
C1894  C     0.83528   0.83507   0.97600   0.00000  Uiso   1.00
C1895  C     0.95744   0.83413   0.74757   0.00000  Uiso   1.00
C1896  C     0.70925   0.83410   0.74791   0.00000  Uiso   1.00
N1897  N     0.83333   0.95240   0.75000   0.00000  Uiso   1.00
N1898  N     0.83333   0.71427   0.75000   0.00000  Uiso   1.00
O1899  O     0.77226   0.87154   0.75000   0.00000  Uiso   1.00
O1900  O     0.89441   0.79513   0.75001   0.00000  Uiso   1.00
O1901  O     0.89441   0.87154   0.75001   0.00000  Uiso   1.00
O1902  O     0.77226   0.79513   0.75000   0.00000  Uiso   1.00
O1903  O     0.83333   0.87155   0.68453   0.00000  Uiso   1.00
O1904  O     0.83334   0.79511   0.81547   0.00000  Uiso   1.00
O1905  O     0.83334   0.87155   0.81547   0.00000  Uiso   1.00
O1906  O     0.83333   0.79511   0.68453   0.00000  Uiso   1.00
Zn1907 Zn    0.83333   0.88437   0.75000   0.00000  Uiso   1.00
Zn1908 Zn    0.83333   0.78229   0.75000   0.00000  Uiso   1.00
C1909  C     0.87808   0.71606   0.82118   0.00000  Uiso   1.00
H1910  H     0.89259   0.74698   0.81019   0.00000  Uiso   1.00
H1911  H     0.85534   0.72314   0.84626   0.00000  Uiso   1.00
H1912  H     0.90388   0.69815   0.83891   0.00000  Uiso   1.00
C1913  C     0.77829   0.95205   0.68674   0.00000  Uiso   1.00
H1914  H     0.77870   0.91621   0.68963   0.00000  Uiso   1.00
H1915  H     0.74606   0.96132   0.69283   0.00000  Uiso   1.00
H1916  H     0.78511   0.96054   0.65187   0.00000  Uiso   1.00
C1917  C     0.78379   0.71374   0.68213   0.00000  Uiso   1.00
H1918  H     0.77906   0.74857   0.68965   0.00000  Uiso   1.00
H1919  H     0.79868   0.71101   0.64993   0.00000  Uiso   1.00
H1920  H     0.75203   0.69967   0.67818   0.00000  Uiso   1.00
C1921  C     0.88636   0.95329   0.81489   0.00000  Uiso   1.00
H1922  H     0.88847   0.91791   0.80894   0.00000  Uiso   1.00
H1923  H     0.91850   0.96607   0.81319   0.00000  Uiso   1.00
H1924  H     0.87568   0.95830   0.84897   0.00000  Uiso   1.00
O1925  O     0.90293   0.80106   0.52991   0.00000  Uiso   1.00
C1926  C     0.89642   0.75546   0.52050   0.00000  Uiso   1.00
H1927  H     0.87442   0.75101   0.99071   0.00000  Uiso   1.00
H1928  H     0.88557   0.73659   0.54964   0.00000  Uiso   1.00
H1929  H     0.92631   0.74094   0.51223   0.00000  Uiso   1.00
O1930  O     0.77147   0.79152   0.97294   0.00000  Uiso   1.00
C1931  C     0.78273   0.74748   0.98406   0.00000  Uiso   1.00
H1932  H     0.80503   0.74707   0.51390   0.00000  Uiso   1.00
H1933  H     0.79550   0.72949   0.95560   0.00000  Uiso   1.00
H1934  H     0.75461   0.72900   0.99302   0.00000  Uiso   1.00
O1935  O     0.90033   0.87658   0.97926   0.00000  Uiso   1.00
C1936  C     0.88982   0.92120   0.98687   0.00000  Uiso   1.00
H1937  H     0.86783   0.92323   0.51366   0.00000  Uiso   1.00
H1938  H     0.87697   0.93807   0.95587   0.00000  Uiso   1.00
H1939  H     0.91831   0.93967   0.99876   0.00000  Uiso   1.00
O1940  O     0.76773   0.87053   0.51895   0.00000  Uiso   1.00
C1941  C     0.77567   0.91569   0.50958   0.00000  Uiso   1.00
H1942  H     0.79748   0.91881   0.98266   0.00000  Uiso   1.00
H1943  H     0.78750   0.93466   0.53987   0.00000  Uiso   1.00
H1944  H     0.74619   0.93121   0.99704   0.00000  Uiso   1.00
C1945  C     0.90683   0.80324   0.62539   0.00000  Uiso   1.00
H1946  H     0.89920   0.77296   0.64457   0.00000  Uiso   1.00
H1947  H     0.93340   0.79530   0.60542   0.00000  Uiso   1.00
H1948  H     0.91726   0.83017   0.64903   0.00000  Uiso   1.00
C1949  C     0.76614   0.79019   0.87769   0.00000  Uiso   1.00
H1950  H     0.75367   0.81296   0.85106   0.00000  Uiso   1.00
H1951  H     0.77679   0.75930   0.86199   0.00000  Uiso   1.00
H1952  H     0.74008   0.78113   0.89826   0.00000  Uiso   1.00
C1953  C     0.90913   0.86476   0.88783   0.00000  Uiso   1.00
H1954  H     0.91442   0.90113   0.89140   0.00000  Uiso   1.00
H1955  H     0.93562   0.84743   0.90549   0.00000  Uiso   1.00
H1956  H     0.90948   0.85548   0.85207   0.00000  Uiso   1.00
C1957  C     0.75842   0.86072   0.61045   0.00000  Uiso   1.00
H1958  H     0.75761   0.85152   0.64622   0.00000  Uiso   1.00
H1959  H     0.75262   0.89689   0.60678   0.00000  Uiso   1.00
H1960  H     0.73259   0.84224   0.59225   0.00000  Uiso   1.00
O1961  O     0.70523   0.76634   0.70406   0.00000  Uiso   1.00
C1962  C     0.69110   0.77092   0.65847   0.00000  Uiso   1.00
H1963  H     0.71424   0.75656   0.63716   0.00000  Uiso   1.00
H1964  H     0.68709   0.80630   0.64791   0.00000  Uiso   1.00
H1965  H     0.99498   0.75214   0.65147   0.00000  Uiso   1.00
O1966  O     0.96069   0.91377   0.76332   0.00000  Uiso   1.00
C1967  C     0.95881   0.93641   0.72185   0.00000  Uiso   1.00
H1968  H     0.93469   0.96218   0.72229   0.00000  Uiso   1.00
H1969  H     0.94960   0.91429   0.69287   0.00000  Uiso   1.00
H1970  H     0.98897   0.95303   0.71667   0.00000  Uiso   1.00
O1971  O     0.95580   0.75706   0.72253   0.00000  Uiso   1.00
C1972  C     0.96615   0.72370   0.75447   0.00000  Uiso   1.00
H1973  H     0.96832   0.73648   0.78952   0.00000  Uiso   1.00
H1974  H     0.99549   0.70733   0.74699   0.00000  Uiso   1.00
H1975  H     0.94121   0.69820   0.75249   0.00000  Uiso   1.00
O1976  O     0.71117   0.90964   0.77806   0.00000  Uiso   1.00
C1977  C     0.71011   0.91274   0.82496   0.00000  Uiso   1.00
H1978  H     0.72934   0.94177   0.83669   0.00000  Uiso   1.00
H1979  H     0.72344   0.88274   0.84191   0.00000  Uiso   1.00
H1980  H     0.67813   0.91826   0.83508   0.00000  Uiso   1.00
loop_
_geom_bond_atom_site_label_1
_geom_bond_atom_site_label_2
_geom_bond_distance
_geom_bond_site_symmetry_2
_ccdc_geom_bond_type
C1     O29     1.292   .     A
C1     C26     1.430   .     S
C1     O32     1.305   .     A
C2     O30     1.300   .     A
C2     C25     1.437   .     S
C2     O31     1.300   .     A
C3     C21     1.432   .     S
C3     O36     1.296   .     A
C3     O33     1.299   .     A
C4     O35     1.302   .     A
C4     O34     1.294   .     A
C4     C22     1.435   .     S
C5     N28     1.376   .     A
C5     C39     1.515   .     S
C5     C668    1.437   1_545 S
C6     N27     1.377   .     A
C6     C43     1.509   .     S
C6     C337    1.433   .     S
C7     N28     1.377   .     A
C7     C47     1.505   .     S
C7     C666    1.433   1_545 S
C8     C51     1.502   .     S
C8     N27     1.381   .     A
C8     C335    1.437   .     S
C9     O91     1.384   .     S
C9     C26     1.400   .     A
C9     C231    1.386   1_455 S
C10    O96     1.381   .     S
C10    C25     1.407   .     A
C10    C122    1.380   .     S
C11    C25     1.406   .     A
C11    O101    1.384   .     S
C11    C119    1.386   .     S
C12    C26     1.408   .     A
C12    O106    1.386   .     S
C12    C230    1.380   1_455 S
C13    C23     1.408   .     A
C13    C17     1.395   .     A
C13    O55     1.386   .     S
C14    C18     1.395   .     A
C14    C24     1.409   .     A
C14    O60     1.386   .     S
C15    C19     1.391   .     A
C15    O65     1.386   .     S
C15    C24     1.406   .     A
C16    O70     1.386   .     S
C16    C20     1.391   .     A
C16    C23     1.407   .     A
C17    C21     1.410   .     A
C17    C75     1.516   .     S
C18    C79     1.517   .     S
C18    C22     1.411   .     A
C19    C83     1.514   .     S
C19    C22     1.410   .     A
C20    C87     1.514   .     S
C20    C21     1.409   .     A
C23    C1014   1.451   1_554 S
C24    C1013   1.451   .     S
N27    Zn37    2.044   .     S
N28    Zn38    2.044   .     S
O29    Zn37    2.010   .     S
O30    Zn38    2.010   .     S
O31    Zn37    2.018   .     S
O32    Zn38    2.018   .     S
O33    Zn37    1.998   .     S
O34    Zn38    1.998   .     S
O35    Zn37    1.997   .     S
O36    Zn38    1.997   .     S
C39    H42     1.104   .     S
C39    H41     1.109   .     S
C39    H40     1.097   .     S
C43    H46     1.110   .     S
C43    H45     1.110   .     S
C43    H44     1.081   .     S
C47    H49     1.110   .     S
C47    H48     1.085   .     S
C47    H50     1.106   .     S
C51    H52     1.082   .     S
C51    H53     1.109   .     S
C51    H54     1.110   .     S
O55    C56     1.410   .     S
C56    H59     1.109   .     S
C56    H58     1.115   .     S
C56    H1047   1.110   1_554 S
H57    C1046   1.110   .     S
O60    C61     1.410   .     S
C61    H63     1.115   .     S
C61    H64     1.109   .     S
C61    H1052   1.110   .     S
H62    C1051   1.110   1_554 S
O65    C66     1.410   .     S
C66    H68     1.115   .     S
C66    H69     1.109   .     S
C66    H1057   1.110   .     S
H67    C1056   1.110   1_554 S
O70    C71     1.410   .     S
C71    H73     1.115   .     S
C71    H1062   1.110   1_554 S
C71    H1064   1.109   1_554 S
H72    C1061   1.110   .     S
H74    C1061   1.109   .     S
C75    H77     1.109   .     S
C75    H76     1.110   .     S
C75    H78     1.110   .     S
C79    H81     1.110   .     S
C79    H82     1.109   .     S
C79    H80     1.108   .     S
C83    H84     1.109   .     S
C83    H85     1.111   .     S
C83    H86     1.108   .     S
C87    H88     1.108   .     S
C87    H90     1.110   .     S
C87    H89     1.109   .     S
O91    C92     1.417   .     S
C92    H94     1.115   .     S
C92    H93     1.108   .     S
C92    H315    1.110   1_455 S
H95    C202    1.110   .     S
O96    C97     1.413   .     S
C97    H98     1.107   .     S
C97    H99     1.116   .     S
C97    H100    1.112   .     S
O101   C102    1.412   .     S
C102   H105    1.105   .     S
C102   H104    1.111   .     S
C102   H103    1.116   .     S
O106   C107    1.410   .     S
C107   H108    1.109   .     S
C107   H109    1.111   .     S
C107   H110    1.112   .     S
C111   O139    1.292   .     A
C111   C136    1.430   .     S
C111   O142    1.305   .     A
C112   O140    1.300   .     A
C112   C135    1.437   .     S
C112   O141    1.300   .     A
C113   C131    1.432   .     S
C113   O146    1.296   .     A
C113   O143    1.299   .     A
C114   O145    1.302   .     A
C114   O144    1.294   .     A
C114   C132    1.435   .     S
C115   N138    1.376   .     A
C115   C149    1.515   .     S
C115   C778    1.437   1_545 S
C116   N137    1.377   .     A
C116   C153    1.509   .     S
C116   C447    1.433   .     S
C117   N138    1.377   .     A
C117   C157    1.505   .     S
C117   C776    1.433   1_545 S
C118   C161    1.502   .     S
C118   N137    1.381   .     A
C118   C445    1.437   .     S
C119   O201    1.384   .     S
C119   C136    1.400   .     A
C120   O206    1.381   .     S
C120   C135    1.407   .     A
C120   C232    1.380   .     S
C121   C135    1.406   .     A
C121   O211    1.384   .     S
C121   C229    1.386   .     S
C122   C136    1.408   .     A
C122   O216    1.386   .     S
C123   C133    1.408   .     A
C123   C127    1.395   .     A
C123   O165    1.386   .     S
C124   C128    1.395   .     A
C124   C134    1.409   .     A
C124   O170    1.386   .     S
C125   C129    1.391   .     A
C125   O175    1.386   .     S
C125   C134    1.406   .     A
C126   O180    1.386   .     S
C126   C130    1.391   .     A
C126   C133    1.407   .     A
C127   C131    1.410   .     A
C127   C185    1.516   .     S
C128   C189    1.517   .     S
C128   C132    1.411   .     A
C129   C193    1.514   .     S
C129   C132    1.410   .     A
C130   C197    1.514   .     S
C130   C131    1.409   .     A
C133   C1124   1.451   1_554 S
C134   C1123   1.451   .     S
N137   Zn147   2.044   .     S
N138   Zn148   2.044   .     S
O139   Zn147   2.010   .     S
O140   Zn148   2.010   .     S
O141   Zn147   2.018   .     S
O142   Zn148   2.018   .     S
O143   Zn147   1.998   .     S
O144   Zn148   1.998   .     S
O145   Zn147   1.997   .     S
O146   Zn148   1.997   .     S
C149   H152    1.104   .     S
C149   H151    1.109   .     S
C149   H150    1.097   .     S
C153   H156    1.110   .     S
C153   H155    1.110   .     S
C153   H154    1.081   .     S
C157   H159    1.110   .     S
C157   H158    1.085   .     S
C157   H160    1.106   .     S
C161   H162    1.082   .     S
C161   H163    1.109   .     S
C161   H164    1.110   .     S
O165   C166    1.410   .     S
C166   H169    1.109   .     S
C166   H168    1.115   .     S
C166   H1157   1.110   1_554 S
H167   C1156   1.110   .     S
O170   C171    1.410   .     S
C171   H173    1.115   .     S
C171   H174    1.109   .     S
C171   H1162   1.110   .     S
H172   C1161   1.110   1_554 S
O175   C176    1.410   .     S
C176   H178    1.115   .     S
C176   H179    1.109   .     S
C176   H1167   1.110   .     S
H177   C1166   1.110   1_554 S
O180   C181    1.410   .     S
C181   H183    1.115   .     S
C181   H1172   1.110   1_554 S
C181   H1174   1.109   1_554 S
H182   C1171   1.110   .     S
H184   C1171   1.109   .     S
C185   H187    1.109   .     S
C185   H186    1.110   .     S
C185   H188    1.110   .     S
C189   H191    1.110   .     S
C189   H192    1.109   .     S
C189   H190    1.108   .     S
C193   H194    1.109   .     S
C193   H195    1.111   .     S
C193   H196    1.108   .     S
C197   H198    1.108   .     S
C197   H200    1.110   .     S
C197   H199    1.109   .     S
O201   C202    1.417   .     S
C202   H204    1.115   .     S
C202   H203    1.108   .     S
H205   C312    1.110   .     S
O206   C207    1.413   .     S
C207   H208    1.107   .     S
C207   H209    1.116   .     S
C207   H210    1.112   .     S
O211   C212    1.412   .     S
C212   H215    1.105   .     S
C212   H214    1.111   .     S
C212   H213    1.116   .     S
O216   C217    1.410   .     S
C217   H218    1.109   .     S
C217   H219    1.111   .     S
C217   H220    1.112   .     S
C221   O249    1.292   .     A
C221   C246    1.430   .     S
C221   O252    1.305   .     A
C222   O250    1.300   .     A
C222   C245    1.437   .     S
C222   O251    1.300   .     A
C223   C241    1.432   .     S
C223   O256    1.296   .     A
C223   O253    1.299   .     A
C224   O255    1.302   .     A
C224   O254    1.294   .     A
C224   C242    1.435   .     S
C225   N248    1.376   .     A
C225   C259    1.515   .     S
C225   C888    1.437   1_545 S
C226   N247    1.377   .     A
C226   C263    1.509   .     S
C226   C557    1.433   .     S
C227   N248    1.377   .     A
C227   C267    1.505   .     S
C227   C886    1.433   1_545 S
C228   C271    1.502   .     S
C228   N247    1.381   .     A
C228   C555    1.437   .     S
C229   O311    1.384   .     S
C229   C246    1.400   .     A
C230   O316    1.381   .     S
C230   C245    1.407   .     A
C230   C12     1.380   1_655 S
C231   C245    1.406   .     A
C231   O321    1.384   .     S
C231   C9      1.386   1_655 S
C232   C246    1.408   .     A
C232   O326    1.386   .     S
C233   C243    1.408   .     A
C233   C237    1.395   .     A
C233   O275    1.386   .     S
C234   C238    1.395   .     A
C234   C244    1.409   .     A
C234   O280    1.386   .     S
C235   C239    1.391   .     A
C235   O285    1.386   .     S
C235   C244    1.406   .     A
C236   O290    1.386   .     S
C236   C240    1.391   .     A
C236   C243    1.407   .     A
C237   C241    1.410   .     A
C237   C295    1.516   .     S
C238   C299    1.517   .     S
C238   C242    1.411   .     A
C239   C303    1.514   .     S
C239   C242    1.410   .     A
C240   C307    1.514   .     S
C240   C241    1.409   .     A
C243   C1234   1.451   1_554 S
C244   C1233   1.451   .     S
N247   Zn257   2.044   .     S
N248   Zn258   2.044   .     S
O249   Zn257   2.010   .     S
O250   Zn258   2.010   .     S
O251   Zn257   2.018   .     S
O252   Zn258   2.018   .     S
O253   Zn257   1.998   .     S
O254   Zn258   1.998   .     S
O255   Zn257   1.997   .     S
O256   Zn258   1.997   .     S
C259   H262    1.104   .     S
C259   H261    1.109   .     S
C259   H260    1.097   .     S
C263   H266    1.110   .     S
C263   H265    1.110   .     S
C263   H264    1.081   .     S
C267   H269    1.110   .     S
C267   H268    1.085   .     S
C267   H270    1.106   .     S
C271   H272    1.082   .     S
C271   H273    1.109   .     S
C271   H274    1.110   .     S
O275   C276    1.410   .     S
C276   H279    1.109   .     S
C276   H278    1.115   .     S
C276   H1267   1.110   1_554 S
H277   C1266   1.110   .     S
O280   C281    1.410   .     S
C281   H283    1.115   .     S
C281   H284    1.109   .     S
C281   H1272   1.110   .     S
H282   C1271   1.110   1_554 S
O285   C286    1.410   .     S
C286   H288    1.115   .     S
C286   H289    1.109   .     S
C286   H1277   1.110   .     S
H287   C1276   1.110   1_554 S
O290   C291    1.410   .     S
C291   H293    1.115   .     S
C291   H1282   1.110   1_554 S
C291   H1284   1.109   1_554 S
H292   C1281   1.110   .     S
H294   C1281   1.109   .     S
C295   H297    1.109   .     S
C295   H296    1.110   .     S
C295   H298    1.110   .     S
C299   H301    1.110   .     S
C299   H302    1.109   .     S
C299   H300    1.108   .     S
C303   H304    1.109   .     S
C303   H305    1.111   .     S
C303   H306    1.108   .     S
C307   H308    1.108   .     S
C307   H310    1.110   .     S
C307   H309    1.109   .     S
O311   C312    1.417   .     S
C312   H314    1.115   .     S
C312   H313    1.108   .     S
H315   C92     1.110   1_655 S
O316   C317    1.413   .     S
C317   H318    1.107   .     S
C317   H319    1.116   .     S
C317   H320    1.112   .     S
O321   C322    1.412   .     S
C322   H325    1.105   .     S
C322   H324    1.111   .     S
C322   H323    1.116   .     S
O326   C327    1.410   .     S
C327   H328    1.109   .     S
C327   H329    1.111   .     S
C327   H330    1.112   .     S
C331   O359    1.292   .     A
C331   C356    1.430   .     S
C331   O362    1.305   .     A
C332   O360    1.300   .     A
C332   C355    1.437   .     S
C332   O361    1.300   .     A
C333   C351    1.432   .     S
C333   O366    1.296   .     A
C333   O363    1.299   .     A
C334   O365    1.302   .     A
C334   O364    1.294   .     A
C334   C352    1.435   .     S
C335   N358    1.376   .     A
C335   C369    1.515   .     S
C336   N357    1.377   .     A
C336   C373    1.509   .     S
C336   C667    1.433   .     S
C337   N358    1.377   .     A
C337   C377    1.505   .     S
C338   C381    1.502   .     S
C338   N357    1.381   .     A
C338   C665    1.437   .     S
C339   O421    1.384   .     S
C339   C356    1.400   .     A
C339   C561    1.386   1_455 S
C340   O426    1.381   .     S
C340   C355    1.407   .     A
C340   C452    1.380   .     S
C341   C355    1.406   .     A
C341   O431    1.384   .     S
C341   C449    1.386   .     S
C342   C356    1.408   .     A
C342   O436    1.386   .     S
C342   C560    1.380   1_455 S
C343   C353    1.408   .     A
C343   C347    1.395   .     A
C343   O385    1.386   .     S
C344   C348    1.395   .     A
C344   C354    1.409   .     A
C344   O390    1.386   .     S
C345   C349    1.391   .     A
C345   O395    1.386   .     S
C345   C354    1.406   .     A
C346   O400    1.386   .     S
C346   C350    1.391   .     A
C346   C353    1.407   .     A
C347   C351    1.410   .     A
C347   C405    1.516   .     S
C348   C409    1.517   .     S
C348   C352    1.411   .     A
C349   C413    1.514   .     S
C349   C352    1.410   .     A
C350   C417    1.514   .     S
C350   C351    1.409   .     A
C353   C1344   1.451   1_554 S
C354   C1343   1.451   .     S
N357   Zn367   2.044   .     S
N358   Zn368   2.044   .     S
O359   Zn367   2.010   .     S
O360   Zn368   2.010   .     S
O361   Zn367   2.018   .     S
O362   Zn368   2.018   .     S
O363   Zn367   1.998   .     S
O364   Zn368   1.998   .     S
O365   Zn367   1.997   .     S
O366   Zn368   1.997   .     S
C369   H372    1.104   .     S
C369   H371    1.109   .     S
C369   H370    1.097   .     S
C373   H376    1.110   .     S
C373   H375    1.110   .     S
C373   H374    1.081   .     S
C377   H379    1.110   .     S
C377   H378    1.085   .     S
C377   H380    1.106   .     S
C381   H382    1.082   .     S
C381   H383    1.109   .     S
C381   H384    1.110   .     S
O385   C386    1.410   .     S
C386   H389    1.109   .     S
C386   H388    1.115   .     S
C386   H1377   1.110   1_554 S
H387   C1376   1.110   .     S
O390   C391    1.410   .     S
C391   H393    1.115   .     S
C391   H394    1.109   .     S
C391   H1382   1.110   .     S
H392   C1381   1.110   1_554 S
O395   C396    1.410   .     S
C396   H398    1.115   .     S
C396   H399    1.109   .     S
C396   H1387   1.110   .     S
H397   C1386   1.110   1_554 S
O400   C401    1.410   .     S
C401   H403    1.115   .     S
C401   H1392   1.110   1_554 S
C401   H1394   1.109   1_554 S
H402   C1391   1.110   .     S
H404   C1391   1.109   .     S
C405   H407    1.109   .     S
C405   H406    1.110   .     S
C405   H408    1.110   .     S
C409   H411    1.110   .     S
C409   H412    1.109   .     S
C409   H410    1.108   .     S
C413   H414    1.109   .     S
C413   H415    1.111   .     S
C413   H416    1.108   .     S
C417   H418    1.108   .     S
C417   H420    1.110   .     S
C417   H419    1.109   .     S
O421   C422    1.417   .     S
C422   H424    1.115   .     S
C422   H423    1.108   .     S
C422   H645    1.110   1_455 S
H425   C532    1.110   .     S
O426   C427    1.413   .     S
C427   H428    1.107   .     S
C427   H429    1.116   .     S
C427   H430    1.112   .     S
O431   C432    1.412   .     S
C432   H435    1.105   .     S
C432   H434    1.111   .     S
C432   H433    1.116   .     S
O436   C437    1.410   .     S
C437   H438    1.109   .     S
C437   H439    1.111   .     S
C437   H440    1.112   .     S
C441   O469    1.292   .     A
C441   C466    1.430   .     S
C441   O472    1.305   .     A
C442   O470    1.300   .     A
C442   C465    1.437   .     S
C442   O471    1.300   .     A
C443   C461    1.432   .     S
C443   O476    1.296   .     A
C443   O473    1.299   .     A
C444   O475    1.302   .     A
C444   O474    1.294   .     A
C444   C462    1.435   .     S
C445   N468    1.376   .     A
C445   C479    1.515   .     S
C446   N467    1.377   .     A
C446   C483    1.509   .     S
C446   C777    1.433   .     S
C447   N468    1.377   .     A
C447   C487    1.505   .     S
C448   C491    1.502   .     S
C448   N467    1.381   .     A
C448   C775    1.437   .     S
C449   O531    1.384   .     S
C449   C466    1.400   .     A
C450   O536    1.381   .     S
C450   C465    1.407   .     A
C450   C562    1.380   .     S
C451   C465    1.406   .     A
C451   O541    1.384   .     S
C451   C559    1.386   .     S
C452   C466    1.408   .     A
C452   O546    1.386   .     S
C453   C463    1.408   .     A
C453   C457    1.395   .     A
C453   O495    1.386   .     S
C454   C458    1.395   .     A
C454   C464    1.409   .     A
C454   O500    1.386   .     S
C455   C459    1.391   .     A
C455   O505    1.386   .     S
C455   C464    1.406   .     A
C456   O510    1.386   .     S
C456   C460    1.391   .     A
C456   C463    1.407   .     A
C457   C461    1.410   .     A
C457   C515    1.516   .     S
C458   C519    1.517   .     S
C458   C462    1.411   .     A
C459   C523    1.514   .     S
C459   C462    1.410   .     A
C460   C527    1.514   .     S
C460   C461    1.409   .     A
C463   C1454   1.451   1_554 S
C464   C1453   1.451   .     S
N467   Zn477   2.044   .     S
N468   Zn478   2.044   .     S
O469   Zn477   2.010   .     S
O470   Zn478   2.010   .     S
O471   Zn477   2.018   .     S
O472   Zn478   2.018   .     S
O473   Zn477   1.998   .     S
O474   Zn478   1.998   .     S
O475   Zn477   1.997   .     S
O476   Zn478   1.997   .     S
C479   H482    1.104   .     S
C479   H481    1.109   .     S
C479   H480    1.097   .     S
C483   H486    1.110   .     S
C483   H485    1.110   .     S
C483   H484    1.081   .     S
C487   H489    1.110   .     S
C487   H488    1.085   .     S
C487   H490    1.106   .     S
C491   H492    1.082   .     S
C491   H493    1.109   .     S
C491   H494    1.110   .     S
O495   C496    1.410   .     S
C496   H499    1.109   .     S
C496   H498    1.115   .     S
C496   H1487   1.110   1_554 S
H497   C1486   1.110   .     S
O500   C501    1.410   .     S
C501   H503    1.115   .     S
C501   H504    1.109   .     S
C501   H1492   1.110   .     S
H502   C1491   1.110   1_554 S
O505   C506    1.410   .     S
C506   H508    1.115   .     S
C506   H509    1.109   .     S
C506   H1497   1.110   .     S
H507   C1496   1.110   1_554 S
O510   C511    1.410   .     S
C511   H513    1.115   .     S
C511   H1502   1.110   1_554 S
C511   H1504   1.109   1_554 S
H512   C1501   1.110   .     S
H514   C1501   1.109   .     S
C515   H517    1.109   .     S
C515   H516    1.110   .     S
C515   H518    1.110   .     S
C519   H521    1.110   .     S
C519   H522    1.109   .     S
C519   H520    1.108   .     S
C523   H524    1.109   .     S
C523   H525    1.111   .     S
C523   H526    1.108   .     S
C527   H528    1.108   .     S
C527   H530    1.110   .     S
C527   H529    1.109   .     S
O531   C532    1.417   .     S
C532   H534    1.115   .     S
C532   H533    1.108   .     S
H535   C642    1.110   .     S
O536   C537    1.413   .     S
C537   H538    1.107   .     S
C537   H539    1.116   .     S
C537   H540    1.112   .     S
O541   C542    1.412   .     S
C542   H545    1.105   .     S
C542   H544    1.111   .     S
C542   H543    1.116   .     S
O546   C547    1.410   .     S
C547   H548    1.109   .     S
C547   H549    1.111   .     S
C547   H550    1.112   .     S
C551   O579    1.292   .     A
C551   C576    1.430   .     S
C551   O582    1.305   .     A
C552   O580    1.300   .     A
C552   C575    1.437   .     S
C552   O581    1.300   .     A
C553   C571    1.432   .     S
C553   O586    1.296   .     A
C553   O583    1.299   .     A
C554   O585    1.302   .     A
C554   O584    1.294   .     A
C554   C572    1.435   .     S
C555   N578    1.376   .     A
C555   C589    1.515   .     S
C556   N577    1.377   .     A
C556   C593    1.509   .     S
C556   C887    1.433   .     S
C557   N578    1.377   .     A
C557   C597    1.505   .     S
C558   C601    1.502   .     S
C558   N577    1.381   .     A
C558   C885    1.437   .     S
C559   O641    1.384   .     S
C559   C576    1.400   .     A
C560   O646    1.381   .     S
C560   C575    1.407   .     A
C560   C342    1.380   1_655 S
C561   C575    1.406   .     A
C561   O651    1.384   .     S
C561   C339    1.386   1_655 S
C562   C576    1.408   .     A
C562   O656    1.386   .     S
C563   C573    1.408   .     A
C563   C567    1.395   .     A
C563   O605    1.386   .     S
C564   C568    1.395   .     A
C564   C574    1.409   .     A
C564   O610    1.386   .     S
C565   C569    1.391   .     A
C565   O615    1.386   .     S
C565   C574    1.406   .     A
C566   O620    1.386   .     S
C566   C570    1.391   .     A
C566   C573    1.407   .     A
C567   C571    1.410   .     A
C567   C625    1.516   .     S
C568   C629    1.517   .     S
C568   C572    1.411   .     A
C569   C633    1.514   .     S
C569   C572    1.410   .     A
C570   C637    1.514   .     S
C570   C571    1.409   .     A
C573   C1564   1.451   1_554 S
C574   C1563   1.451   .     S
N577   Zn587   2.044   .     S
N578   Zn588   2.044   .     S
O579   Zn587   2.010   .     S
O580   Zn588   2.010   .     S
O581   Zn587   2.018   .     S
O582   Zn588   2.018   .     S
O583   Zn587   1.998   .     S
O584   Zn588   1.998   .     S
O585   Zn587   1.997   .     S
O586   Zn588   1.997   .     S
C589   H592    1.104   .     S
C589   H591    1.109   .     S
C589   H590    1.097   .     S
C593   H596    1.110   .     S
C593   H595    1.110   .     S
C593   H594    1.081   .     S
C597   H599    1.110   .     S
C597   H598    1.085   .     S
C597   H600    1.106   .     S
C601   H602    1.082   .     S
C601   H603    1.109   .     S
C601   H604    1.110   .     S
O605   C606    1.410   .     S
C606   H609    1.109   .     S
C606   H608    1.115   .     S
C606   H1597   1.110   1_554 S
H607   C1596   1.110   .     S
O610   C611    1.410   .     S
C611   H613    1.115   .     S
C611   H614    1.109   .     S
C611   H1602   1.110   .     S
H612   C1601   1.110   1_554 S
O615   C616    1.410   .     S
C616   H618    1.115   .     S
C616   H619    1.109   .     S
C616   H1607   1.110   .     S
H617   C1606   1.110   1_554 S
O620   C621    1.410   .     S
C621   H623    1.115   .     S
C621   H1612   1.110   1_554 S
C621   H1614   1.109   1_554 S
H622   C1611   1.110   .     S
H624   C1611   1.109   .     S
C625   H627    1.109   .     S
C625   H626    1.110   .     S
C625   H628    1.110   .     S
C629   H631    1.110   .     S
C629   H632    1.109   .     S
C629   H630    1.108   .     S
C633   H634    1.109   .     S
C633   H635    1.111   .     S
C633   H636    1.108   .     S
C637   H638    1.108   .     S
C637   H640    1.110   .     S
C637   H639    1.109   .     S
O641   C642    1.417   .     S
C642   H644    1.115   .     S
C642   H643    1.108   .     S
H645   C422    1.110   1_655 S
O646   C647    1.413   .     S
C647   H648    1.107   .     S
C647   H649    1.116   .     S
C647   H650    1.112   .     S
O651   C652    1.412   .     S
C652   H655    1.105   .     S
C652   H654    1.111   .     S
C652   H653    1.116   .     S
O656   C657    1.410   .     S
C657   H658    1.109   .     S
C657   H659    1.111   .     S
C657   H660    1.112   .     S
C661   O689    1.292   .     A
C661   C686    1.430   .     S
C661   O692    1.305   .     A
C662   O690    1.300   .     A
C662   C685    1.437   .     S
C662   O691    1.300   .     A
C663   C681    1.432   .     S
C663   O696    1.296   .     A
C663   O693    1.299   .     A
C664   O695    1.302   .     A
C664   O694    1.294   .     A
C664   C682    1.435   .     S
C665   N688    1.376   .     A
C665   C699    1.515   .     S
C666   N687    1.377   .     A
C666   C703    1.509   .     S
C666   C7      1.433   1_565 S
C667   N688    1.377   .     A
C667   C707    1.505   .     S
C668   C711    1.502   .     S
C668   N687    1.381   .     A
C668   C5      1.437   1_565 S
C669   O751    1.384   .     S
C669   C686    1.400   .     A
C669   C891    1.386   1_455 S
C670   O756    1.381   .     S
C670   C685    1.407   .     A
C670   C782    1.380   .     S
C671   C685    1.406   .     A
C671   O761    1.384   .     S
C671   C779    1.386   .     S
C672   C686    1.408   .     A
C672   O766    1.386   .     S
C672   C890    1.380   1_455 S
C673   C683    1.408   .     A
C673   C677    1.395   .     A
C673   O715    1.386   .     S
C674   C678    1.395   .     A
C674   C684    1.409   .     A
C674   O720    1.386   .     S
C675   C679    1.391   .     A
C675   O725    1.386   .     S
C675   C684    1.406   .     A
C676   O730    1.386   .     S
C676   C680    1.391   .     A
C676   C683    1.407   .     A
C677   C681    1.410   .     A
C677   C735    1.516   .     S
C678   C739    1.517   .     S
C678   C682    1.411   .     A
C679   C743    1.514   .     S
C679   C682    1.410   .     A
C680   C747    1.514   .     S
C680   C681    1.409   .     A
C683   C1674   1.451   1_554 S
C684   C1673   1.451   .     S
N687   Zn697   2.044   .     S
N688   Zn698   2.044   .     S
O689   Zn697   2.010   .     S
O690   Zn698   2.010   .     S
O691   Zn697   2.018   .     S
O692   Zn698   2.018   .     S
O693   Zn697   1.998   .     S
O694   Zn698   1.998   .     S
O695   Zn697   1.997   .     S
O696   Zn698   1.997   .     S
C699   H702    1.104   .     S
C699   H701    1.109   .     S
C699   H700    1.097   .     S
C703   H706    1.110   .     S
C703   H705    1.110   .     S
C703   H704    1.081   .     S
C707   H709    1.110   .     S
C707   H708    1.085   .     S
C707   H710    1.106   .     S
C711   H712    1.082   .     S
C711   H713    1.109   .     S
C711   H714    1.110   .     S
O715   C716    1.410   .     S
C716   H719    1.109   .     S
C716   H718    1.115   .     S
C716   H1707   1.110   1_554 S
H717   C1706   1.110   .     S
O720   C721    1.410   .     S
C721   H723    1.115   .     S
C721   H724    1.109   .     S
C721   H1712   1.110   .     S
H722   C1711   1.110   1_554 S
O725   C726    1.410   .     S
C726   H728    1.115   .     S
C726   H729    1.109   .     S
C726   H1717   1.110   .     S
H727   C1716   1.110   1_554 S
O730   C731    1.410   .     S
C731   H733    1.115   .     S
C731   H1722   1.110   1_554 S
C731   H1724   1.109   1_554 S
H732   C1721   1.110   .     S
H734   C1721   1.109   .     S
C735   H737    1.109   .     S
C735   H736    1.110   .     S
C735   H738    1.110   .     S
C739   H741    1.110   .     S
C739   H742    1.109   .     S
C739   H740    1.108   .     S
C743   H744    1.109   .     S
C743   H745    1.111   .     S
C743   H746    1.108   .     S
C747   H748    1.108   .     S
C747   H750    1.110   .     S
C747   H749    1.109   .     S
O751   C752    1.417   .     S
C752   H754    1.115   .     S
C752   H753    1.108   .     S
C752   H975    1.110   1_455 S
H755   C862    1.110   .     S
O756   C757    1.413   .     S
C757   H758    1.107   .     S
C757   H759    1.116   .     S
C757   H760    1.112   .     S
O761   C762    1.412   .     S
C762   H765    1.105   .     S
C762   H764    1.111   .     S
C762   H763    1.116   .     S
O766   C767    1.410   .     S
C767   H768    1.109   .     S
C767   H769    1.111   .     S
C767   H770    1.112   .     S
C771   O799    1.292   .     A
C771   C796    1.430   .     S
C771   O802    1.305   .     A
C772   O800    1.300   .     A
C772   C795    1.437   .     S
C772   O801    1.300   .     A
C773   C791    1.432   .     S
C773   O806    1.296   .     A
C773   O803    1.299   .     A
C774   O805    1.302   .     A
C774   O804    1.294   .     A
C774   C792    1.435   .     S
C775   N798    1.376   .     A
C775   C809    1.515   .     S
C776   N797    1.377   .     A
C776   C813    1.509   .     S
C776   C117    1.433   1_565 S
C777   N798    1.377   .     A
C777   C817    1.505   .     S
C778   C821    1.502   .     S
C778   N797    1.381   .     A
C778   C115    1.437   1_565 S
C779   O861    1.384   .     S
C779   C796    1.400   .     A
C780   O866    1.381   .     S
C780   C795    1.407   .     A
C780   C892    1.380   .     S
C781   C795    1.406   .     A
C781   O871    1.384   .     S
C781   C889    1.386   .     S
C782   C796    1.408   .     A
C782   O876    1.386   .     S
C783   C793    1.408   .     A
C783   C787    1.395   .     A
C783   O825    1.386   .     S
C784   C788    1.395   .     A
C784   C794    1.409   .     A
C784   O830    1.386   .     S
C785   C789    1.391   .     A
C785   O835    1.386   .     S
C785   C794    1.406   .     A
C786   O840    1.386   .     S
C786   C790    1.391   .     A
C786   C793    1.407   .     A
C787   C791    1.410   .     A
C787   C845    1.516   .     S
C788   C849    1.517   .     S
C788   C792    1.411   .     A
C789   C853    1.514   .     S
C789   C792    1.410   .     A
C790   C857    1.514   .     S
C790   C791    1.409   .     A
C793   C1784   1.451   1_554 S
C794   C1783   1.451   .     S
N797   Zn807   2.044   .     S
N798   Zn808   2.044   .     S
O799   Zn807   2.010   .     S
O800   Zn808   2.010   .     S
O801   Zn807   2.018   .     S
O802   Zn808   2.018   .     S
O803   Zn807   1.998   .     S
O804   Zn808   1.998   .     S
O805   Zn807   1.997   .     S
O806   Zn808   1.997   .     S
C809   H812    1.104   .     S
C809   H811    1.109   .     S
C809   H810    1.097   .     S
C813   H816    1.110   .     S
C813   H815    1.110   .     S
C813   H814    1.081   .     S
C817   H819    1.110   .     S
C817   H818    1.085   .     S
C817   H820    1.106   .     S
C821   H822    1.082   .     S
C821   H823    1.109   .     S
C821   H824    1.110   .     S
O825   C826    1.410   .     S
C826   H829    1.109   .     S
C826   H828    1.115   .     S
C826   H1817   1.110   1_554 S
H827   C1816   1.110   .     S
O830   C831    1.410   .     S
C831   H833    1.115   .     S
C831   H834    1.109   .     S
C831   H1822   1.110   .     S
H832   C1821   1.110   1_554 S
O835   C836    1.410   .     S
C836   H838    1.115   .     S
C836   H839    1.109   .     S
C836   H1827   1.110   .     S
H837   C1826   1.110   1_554 S
O840   C841    1.410   .     S
C841   H843    1.115   .     S
C841   H1832   1.110   1_554 S
C841   H1834   1.109   1_554 S
H842   C1831   1.110   .     S
H844   C1831   1.109   .     S
C845   H847    1.109   .     S
C845   H846    1.110   .     S
C845   H848    1.110   .     S
C849   H851    1.110   .     S
C849   H852    1.109   .     S
C849   H850    1.108   .     S
C853   H854    1.109   .     S
C853   H855    1.111   .     S
C853   H856    1.108   .     S
C857   H858    1.108   .     S
C857   H860    1.110   .     S
C857   H859    1.109   .     S
O861   C862    1.417   .     S
C862   H864    1.115   .     S
C862   H863    1.108   .     S
H865   C972    1.110   .     S
O866   C867    1.413   .     S
C867   H868    1.107   .     S
C867   H869    1.116   .     S
C867   H870    1.112   .     S
O871   C872    1.412   .     S
C872   H875    1.105   .     S
C872   H874    1.111   .     S
C872   H873    1.116   .     S
O876   C877    1.410   .     S
C877   H878    1.109   .     S
C877   H879    1.111   .     S
C877   H880    1.112   .     S
C881   O909    1.292   .     A
C881   C906    1.430   .     S
C881   O912    1.305   .     A
C882   O910    1.300   .     A
C882   C905    1.437   .     S
C882   O911    1.300   .     A
C883   C901    1.432   .     S
C883   O916    1.296   .     A
C883   O913    1.299   .     A
C884   O915    1.302   .     A
C884   O914    1.294   .     A
C884   C902    1.435   .     S
C885   N908    1.376   .     A
C885   C919    1.515   .     S
C886   N907    1.377   .     A
C886   C923    1.509   .     S
C886   C227    1.433   1_565 S
C887   N908    1.377   .     A
C887   C927    1.505   .     S
C888   C931    1.502   .     S
C888   N907    1.381   .     A
C888   C225    1.437   1_565 S
C889   O971    1.384   .     S
C889   C906    1.400   .     A
C890   O976    1.381   .     S
C890   C905    1.407   .     A
C890   C672    1.380   1_655 S
C891   C905    1.406   .     A
C891   O981    1.384   .     S
C891   C669    1.386   1_655 S
C892   C906    1.408   .     A
C892   O986    1.386   .     S
C893   C903    1.408   .     A
C893   C897    1.395   .     A
C893   O935    1.386   .     S
C894   C898    1.395   .     A
C894   C904    1.409   .     A
C894   O940    1.386   .     S
C895   C899    1.391   .     A
C895   O945    1.386   .     S
C895   C904    1.406   .     A
C896   O950    1.386   .     S
C896   C900    1.391   .     A
C896   C903    1.407   .     A
C897   C901    1.410   .     A
C897   C955    1.516   .     S
C898   C959    1.517   .     S
C898   C902    1.411   .     A
C899   C963    1.514   .     S
C899   C902    1.410   .     A
C900   C967    1.514   .     S
C900   C901    1.409   .     A
C903   C1894   1.451   1_554 S
C904   C1893   1.451   .     S
N907   Zn917   2.044   .     S
N908   Zn918   2.044   .     S
O909   Zn917   2.010   .     S
O910   Zn918   2.010   .     S
O911   Zn917   2.018   .     S
O912   Zn918   2.018   .     S
O913   Zn917   1.998   .     S
O914   Zn918   1.998   .     S
O915   Zn917   1.997   .     S
O916   Zn918   1.997   .     S
C919   H922    1.104   .     S
C919   H921    1.109   .     S
C919   H920    1.097   .     S
C923   H926    1.110   .     S
C923   H925    1.110   .     S
C923   H924    1.081   .     S
C927   H929    1.110   .     S
C927   H928    1.085   .     S
C927   H930    1.106   .     S
C931   H932    1.082   .     S
C931   H933    1.109   .     S
C931   H934    1.110   .     S
O935   C936    1.410   .     S
C936   H939    1.109   .     S
C936   H938    1.115   .     S
C936   H1927   1.110   1_554 S
H937   C1926   1.110   .     S
O940   C941    1.410   .     S
C941   H943    1.115   .     S
C941   H944    1.109   .     S
C941   H1932   1.110   .     S
H942   C1931   1.110   1_554 S
O945   C946    1.410   .     S
C946   H948    1.115   .     S
C946   H949    1.109   .     S
C946   H1937   1.110   .     S
H947   C1936   1.110   1_554 S
O950   C951    1.410   .     S
C951   H953    1.115   .     S
C951   H1942   1.110   1_554 S
C951   H1944   1.109   1_554 S
H952   C1941   1.110   .     S
H954   C1941   1.109   .     S
C955   H957    1.109   .     S
C955   H956    1.110   .     S
C955   H958    1.110   .     S
C959   H961    1.110   .     S
C959   H962    1.109   .     S
C959   H960    1.108   .     S
C963   H964    1.109   .     S
C963   H965    1.111   .     S
C963   H966    1.108   .     S
C967   H968    1.108   .     S
C967   H970    1.110   .     S
C967   H969    1.109   .     S
O971   C972    1.417   .     S
C972   H974    1.115   .     S
C972   H973    1.108   .     S
H975   C752    1.110   1_655 S
O976   C977    1.413   .     S
C977   H978    1.107   .     S
C977   H979    1.116   .     S
C977   H980    1.112   .     S
O981   C982    1.412   .     S
C982   H985    1.105   .     S
C982   H984    1.111   .     S
C982   H983    1.116   .     S
O986   C987    1.410   .     S
C987   H988    1.109   .     S
C987   H989    1.111   .     S
C987   H990    1.112   .     S
C991   O1019   1.292   .     A
C991   C1016   1.430   .     S
C991   O1022   1.305   .     A
C992   O1020   1.300   .     A
C992   C1015   1.437   .     S
C992   O1021   1.300   .     A
C993   C1011   1.432   .     S
C993   O1026   1.296   .     A
C993   O1023   1.299   .     A
C994   O1025   1.302   .     A
C994   O1024   1.294   .     A
C994   C1012   1.435   .     S
C995   N1018   1.376   .     A
C995   C1029   1.515   .     S
C995   C1658   1.437   1_545 S
C996   N1017   1.377   .     A
C996   C1033   1.509   .     S
C996   C1327   1.433   .     S
C997   N1018   1.377   .     A
C997   C1037   1.505   .     S
C997   C1656   1.433   1_545 S
C998   C1041   1.502   .     S
C998   N1017   1.381   .     A
C998   C1325   1.437   .     S
C999   O1081   1.384   .     S
C999   C1016   1.400   .     A
C999   C1221   1.386   1_455 S
C1000  O1086   1.381   .     S
C1000  C1015   1.407   .     A
C1000  C1112   1.380   .     S
C1001  C1015   1.406   .     A
C1001  O1091   1.384   .     S
C1001  C1109   1.386   .     S
C1002  C1016   1.408   .     A
C1002  O1096   1.386   .     S
C1002  C1220   1.380   1_455 S
C1003  C1013   1.408   .     A
C1003  C1007   1.395   .     A
C1003  O1045   1.386   .     S
C1004  C1008   1.395   .     A
C1004  C1014   1.409   .     A
C1004  O1050   1.386   .     S
C1005  C1009   1.391   .     A
C1005  O1055   1.386   .     S
C1005  C1014   1.406   .     A
C1006  O1060   1.386   .     S
C1006  C1010   1.391   .     A
C1006  C1013   1.407   .     A
C1007  C1011   1.410   .     A
C1007  C1065   1.516   .     S
C1008  C1069   1.517   .     S
C1008  C1012   1.411   .     A
C1009  C1073   1.514   .     S
C1009  C1012   1.410   .     A
C1010  C1077   1.514   .     S
C1010  C1011   1.409   .     A
C1014  C23     1.451   1_556 S
N1017  Zn1027  2.044   .     S
N1018  Zn1028  2.044   .     S
O1019  Zn1027  2.010   .     S
O1020  Zn1028  2.010   .     S
O1021  Zn1027  2.018   .     S
O1022  Zn1028  2.018   .     S
O1023  Zn1027  1.998   .     S
O1024  Zn1028  1.998   .     S
O1025  Zn1027  1.997   .     S
O1026  Zn1028  1.997   .     S
C1029  H1032   1.104   .     S
C1029  H1031   1.109   .     S
C1029  H1030   1.097   .     S
C1033  H1036   1.110   .     S
C1033  H1035   1.110   .     S
C1033  H1034   1.081   .     S
C1037  H1039   1.110   .     S
C1037  H1038   1.085   .     S
C1037  H1040   1.106   .     S
C1041  H1042   1.082   .     S
C1041  H1043   1.109   .     S
C1041  H1044   1.110   .     S
O1045  C1046   1.410   .     S
C1046  H1049   1.109   .     S
C1046  H1048   1.115   .     S
H1047  C56     1.110   1_556 S
O1050  C1051   1.410   .     S
C1051  H1053   1.115   .     S
C1051  H1054   1.109   .     S
C1051  H62     1.110   1_556 S
O1055  C1056   1.410   .     S
C1056  H1058   1.115   .     S
C1056  H1059   1.109   .     S
C1056  H67     1.110   1_556 S
O1060  C1061   1.410   .     S
C1061  H1063   1.115   .     S
H1062  C71     1.110   1_556 S
H1064  C71     1.109   1_556 S
C1065  H1067   1.109   .     S
C1065  H1066   1.110   .     S
C1065  H1068   1.110   .     S
C1069  H1071   1.110   .     S
C1069  H1072   1.109   .     S
C1069  H1070   1.108   .     S
C1073  H1074   1.109   .     S
C1073  H1075   1.111   .     S
C1073  H1076   1.108   .     S
C1077  H1078   1.108   .     S
C1077  H1080   1.110   .     S
C1077  H1079   1.109   .     S
O1081  C1082   1.417   .     S
C1082  H1084   1.115   .     S
C1082  H1083   1.108   .     S
C1082  H1305   1.110   1_455 S
H1085  C1192   1.110   .     S
O1086  C1087   1.413   .     S
C1087  H1088   1.107   .     S
C1087  H1089   1.116   .     S
C1087  H1090   1.112   .     S
O1091  C1092   1.412   .     S
C1092  H1095   1.105   .     S
C1092  H1094   1.111   .     S
C1092  H1093   1.116   .     S
O1096  C1097   1.410   .     S
C1097  H1098   1.109   .     S
C1097  H1099   1.111   .     S
C1097  H1100   1.112   .     S
C1101  O1129   1.292   .     A
C1101  C1126   1.430   .     S
C1101  O1132   1.305   .     A
C1102  O1130   1.300   .     A
C1102  C1125   1.437   .     S
C1102  O1131   1.300   .     A
C1103  C1121   1.432   .     S
C1103  O1136   1.296   .     A
C1103  O1133   1.299   .     A
C1104  O1135   1.302   .     A
C1104  O1134   1.294   .     A
C1104  C1122   1.435   .     S
C1105  N1128   1.376   .     A
C1105  C1139   1.515   .     S
C1105  C1768   1.437   1_545 S
C1106  N1127   1.377   .     A
C1106  C1143   1.509   .     S
C1106  C1437   1.433   .     S
C1107  N1128   1.377   .     A
C1107  C1147   1.505   .     S
C1107  C1766   1.433   1_545 S
C1108  C1151   1.502   .     S
C1108  N1127   1.381   .     A
C1108  C1435   1.437   .     S
C1109  O1191   1.384   .     S
C1109  C1126   1.400   .     A
C1110  O1196   1.381   .     S
C1110  C1125   1.407   .     A
C1110  C1222   1.380   .     S
C1111  C1125   1.406   .     A
C1111  O1201   1.384   .     S
C1111  C1219   1.386   .     S
C1112  C1126   1.408   .     A
C1112  O1206   1.386   .     S
C1113  C1123   1.408   .     A
C1113  C1117   1.395   .     A
C1113  O1155   1.386   .     S
C1114  C1118   1.395   .     A
C1114  C1124   1.409   .     A
C1114  O1160   1.386   .     S
C1115  C1119   1.391   .     A
C1115  O1165   1.386   .     S
C1115  C1124   1.406   .     A
C1116  O1170   1.386   .     S
C1116  C1120   1.391   .     A
C1116  C1123   1.407   .     A
C1117  C1121   1.410   .     A
C1117  C1175   1.516   .     S
C1118  C1179   1.517   .     S
C1118  C1122   1.411   .     A
C1119  C1183   1.514   .     S
C1119  C1122   1.410   .     A
C1120  C1187   1.514   .     S
C1120  C1121   1.409   .     A
C1124  C133    1.451   1_556 S
N1127  Zn1137  2.044   .     S
N1128  Zn1138  2.044   .     S
O1129  Zn1137  2.010   .     S
O1130  Zn1138  2.010   .     S
O1131  Zn1137  2.018   .     S
O1132  Zn1138  2.018   .     S
O1133  Zn1137  1.998   .     S
O1134  Zn1138  1.998   .     S
O1135  Zn1137  1.997   .     S
O1136  Zn1138  1.997   .     S
C1139  H1142   1.104   .     S
C1139  H1141   1.109   .     S
C1139  H1140   1.097   .     S
C1143  H1146   1.110   .     S
C1143  H1145   1.110   .     S
C1143  H1144   1.081   .     S
C1147  H1149   1.110   .     S
C1147  H1148   1.085   .     S
C1147  H1150   1.106   .     S
C1151  H1152   1.082   .     S
C1151  H1153   1.109   .     S
C1151  H1154   1.110   .     S
O1155  C1156   1.410   .     S
C1156  H1159   1.109   .     S
C1156  H1158   1.115   .     S
H1157  C166    1.110   1_556 S
O1160  C1161   1.410   .     S
C1161  H1163   1.115   .     S
C1161  H1164   1.109   .     S
C1161  H172    1.110   1_556 S
O1165  C1166   1.410   .     S
C1166  H1168   1.115   .     S
C1166  H1169   1.109   .     S
C1166  H177    1.110   1_556 S
O1170  C1171   1.410   .     S
C1171  H1173   1.115   .     S
H1172  C181    1.110   1_556 S
H1174  C181    1.109   1_556 S
C1175  H1177   1.109   .     S
C1175  H1176   1.110   .     S
C1175  H1178   1.110   .     S
C1179  H1181   1.110   .     S
C1179  H1182   1.109   .     S
C1179  H1180   1.108   .     S
C1183  H1184   1.109   .     S
C1183  H1185   1.111   .     S
C1183  H1186   1.108   .     S
C1187  H1188   1.108   .     S
C1187  H1190   1.110   .     S
C1187  H1189   1.109   .     S
O1191  C1192   1.417   .     S
C1192  H1194   1.115   .     S
C1192  H1193   1.108   .     S
H1195  C1302   1.110   .     S
O1196  C1197   1.413   .     S
C1197  H1198   1.107   .     S
C1197  H1199   1.116   .     S
C1197  H1200   1.112   .     S
O1201  C1202   1.412   .     S
C1202  H1205   1.105   .     S
C1202  H1204   1.111   .     S
C1202  H1203   1.116   .     S
O1206  C1207   1.410   .     S
C1207  H1208   1.109   .     S
C1207  H1209   1.111   .     S
C1207  H1210   1.112   .     S
C1211  O1239   1.292   .     A
C1211  C1236   1.430   .     S
C1211  O1242   1.305   .     A
C1212  O1240   1.300   .     A
C1212  C1235   1.437   .     S
C1212  O1241   1.300   .     A
C1213  C1231   1.432   .     S
C1213  O1246   1.296   .     A
C1213  O1243   1.299   .     A
C1214  O1245   1.302   .     A
C1214  O1244   1.294   .     A
C1214  C1232   1.435   .     S
C1215  N1238   1.376   .     A
C1215  C1249   1.515   .     S
C1215  C1878   1.437   1_545 S
C1216  N1237   1.377   .     A
C1216  C1253   1.509   .     S
C1216  C1547   1.433   .     S
C1217  N1238   1.377   .     A
C1217  C1257   1.505   .     S
C1217  C1876   1.433   1_545 S
C1218  C1261   1.502   .     S
C1218  N1237   1.381   .     A
C1218  C1545   1.437   .     S
C1219  O1301   1.384   .     S
C1219  C1236   1.400   .     A
C1220  O1306   1.381   .     S
C1220  C1235   1.407   .     A
C1220  C1002   1.380   1_655 S
C1221  C1235   1.406   .     A
C1221  O1311   1.384   .     S
C1221  C999    1.386   1_655 S
C1222  C1236   1.408   .     A
C1222  O1316   1.386   .     S
C1223  C1233   1.408   .     A
C1223  C1227   1.395   .     A
C1223  O1265   1.386   .     S
C1224  C1228   1.395   .     A
C1224  C1234   1.409   .     A
C1224  O1270   1.386   .     S
C1225  C1229   1.391   .     A
C1225  O1275   1.386   .     S
C1225  C1234   1.406   .     A
C1226  O1280   1.386   .     S
C1226  C1230   1.391   .     A
C1226  C1233   1.407   .     A
C1227  C1231   1.410   .     A
C1227  C1285   1.516   .     S
C1228  C1289   1.517   .     S
C1228  C1232   1.411   .     A
C1229  C1293   1.514   .     S
C1229  C1232   1.410   .     A
C1230  C1297   1.514   .     S
C1230  C1231   1.409   .     A
C1234  C243    1.451   1_556 S
N1237  Zn1247  2.044   .     S
N1238  Zn1248  2.044   .     S
O1239  Zn1247  2.010   .     S
O1240  Zn1248  2.010   .     S
O1241  Zn1247  2.018   .     S
O1242  Zn1248  2.018   .     S
O1243  Zn1247  1.998   .     S
O1244  Zn1248  1.998   .     S
O1245  Zn1247  1.997   .     S
O1246  Zn1248  1.997   .     S
C1249  H1252   1.104   .     S
C1249  H1251   1.109   .     S
C1249  H1250   1.097   .     S
C1253  H1256   1.110   .     S
C1253  H1255   1.110   .     S
C1253  H1254   1.081   .     S
C1257  H1259   1.110   .     S
C1257  H1258   1.085   .     S
C1257  H1260   1.106   .     S
C1261  H1262   1.082   .     S
C1261  H1263   1.109   .     S
C1261  H1264   1.110   .     S
O1265  C1266   1.410   .     S
C1266  H1269   1.109   .     S
C1266  H1268   1.115   .     S
H1267  C276    1.110   1_556 S
O1270  C1271   1.410   .     S
C1271  H1273   1.115   .     S
C1271  H1274   1.109   .     S
C1271  H282    1.110   1_556 S
O1275  C1276   1.410   .     S
C1276  H1278   1.115   .     S
C1276  H1279   1.109   .     S
C1276  H287    1.110   1_556 S
O1280  C1281   1.410   .     S
C1281  H1283   1.115   .     S
H1282  C291    1.110   1_556 S
H1284  C291    1.109   1_556 S
C1285  H1287   1.109   .     S
C1285  H1286   1.110   .     S
C1285  H1288   1.110   .     S
C1289  H1291   1.110   .     S
C1289  H1292   1.109   .     S
C1289  H1290   1.108   .     S
C1293  H1294   1.109   .     S
C1293  H1295   1.111   .     S
C1293  H1296   1.108   .     S
C1297  H1298   1.108   .     S
C1297  H1300   1.110   .     S
C1297  H1299   1.109   .     S
O1301  C1302   1.417   .     S
C1302  H1304   1.115   .     S
C1302  H1303   1.108   .     S
H1305  C1082   1.110   1_655 S
O1306  C1307   1.413   .     S
C1307  H1308   1.107   .     S
C1307  H1309   1.116   .     S
C1307  H1310   1.112   .     S
O1311  C1312   1.412   .     S
C1312  H1315   1.105   .     S
C1312  H1314   1.111   .     S
C1312  H1313   1.116   .     S
O1316  C1317   1.410   .     S
C1317  H1318   1.109   .     S
C1317  H1319   1.111   .     S
C1317  H1320   1.112   .     S
C1321  O1349   1.292   .     A
C1321  C1346   1.430   .     S
C1321  O1352   1.305   .     A
C1322  O1350   1.300   .     A
C1322  C1345   1.437   .     S
C1322  O1351   1.300   .     A
C1323  C1341   1.432   .     S
C1323  O1356   1.296   .     A
C1323  O1353   1.299   .     A
C1324  O1355   1.302   .     A
C1324  O1354   1.294   .     A
C1324  C1342   1.435   .     S
C1325  N1348   1.376   .     A
C1325  C1359   1.515   .     S
C1326  N1347   1.377   .     A
C1326  C1363   1.509   .     S
C1326  C1657   1.433   .     S
C1327  N1348   1.377   .     A
C1327  C1367   1.505   .     S
C1328  C1371   1.502   .     S
C1328  N1347   1.381   .     A
C1328  C1655   1.437   .     S
C1329  O1411   1.384   .     S
C1329  C1346   1.400   .     A
C1329  C1551   1.386   1_455 S
C1330  O1416   1.381   .     S
C1330  C1345   1.407   .     A
C1330  C1442   1.380   .     S
C1331  C1345   1.406   .     A
C1331  O1421   1.384   .     S
C1331  C1439   1.386   .     S
C1332  C1346   1.408   .     A
C1332  O1426   1.386   .     S
C1332  C1550   1.380   1_455 S
C1333  C1343   1.408   .     A
C1333  C1337   1.395   .     A
C1333  O1375   1.386   .     S
C1334  C1338   1.395   .     A
C1334  C1344   1.409   .     A
C1334  O1380   1.386   .     S
C1335  C1339   1.391   .     A
C1335  O1385   1.386   .     S
C1335  C1344   1.406   .     A
C1336  O1390   1.386   .     S
C1336  C1340   1.391   .     A
C1336  C1343   1.407   .     A
C1337  C1341   1.410   .     A
C1337  C1395   1.516   .     S
C1338  C1399   1.517   .     S
C1338  C1342   1.411   .     A
C1339  C1403   1.514   .     S
C1339  C1342   1.410   .     A
C1340  C1407   1.514   .     S
C1340  C1341   1.409   .     A
C1344  C353    1.451   1_556 S
N1347  Zn1357  2.044   .     S
N1348  Zn1358  2.044   .     S
O1349  Zn1357  2.010   .     S
O1350  Zn1358  2.010   .     S
O1351  Zn1357  2.018   .     S
O1352  Zn1358  2.018   .     S
O1353  Zn1357  1.998   .     S
O1354  Zn1358  1.998   .     S
O1355  Zn1357  1.997   .     S
O1356  Zn1358  1.997   .     S
C1359  H1362   1.104   .     S
C1359  H1361   1.109   .     S
C1359  H1360   1.097   .     S
C1363  H1366   1.110   .     S
C1363  H1365   1.110   .     S
C1363  H1364   1.081   .     S
C1367  H1369   1.110   .     S
C1367  H1368   1.085   .     S
C1367  H1370   1.106   .     S
C1371  H1372   1.082   .     S
C1371  H1373   1.109   .     S
C1371  H1374   1.110   .     S
O1375  C1376   1.410   .     S
C1376  H1379   1.109   .     S
C1376  H1378   1.115   .     S
H1377  C386    1.110   1_556 S
O1380  C1381   1.410   .     S
C1381  H1383   1.115   .     S
C1381  H1384   1.109   .     S
C1381  H392    1.110   1_556 S
O1385  C1386   1.410   .     S
C1386  H1388   1.115   .     S
C1386  H1389   1.109   .     S
C1386  H397    1.110   1_556 S
O1390  C1391   1.410   .     S
C1391  H1393   1.115   .     S
H1392  C401    1.110   1_556 S
H1394  C401    1.109   1_556 S
C1395  H1397   1.109   .     S
C1395  H1396   1.110   .     S
C1395  H1398   1.110   .     S
C1399  H1401   1.110   .     S
C1399  H1402   1.109   .     S
C1399  H1400   1.108   .     S
C1403  H1404   1.109   .     S
C1403  H1405   1.111   .     S
C1403  H1406   1.108   .     S
C1407  H1408   1.108   .     S
C1407  H1410   1.110   .     S
C1407  H1409   1.109   .     S
O1411  C1412   1.417   .     S
C1412  H1414   1.115   .     S
C1412  H1413   1.108   .     S
C1412  H1635   1.110   1_455 S
H1415  C1522   1.110   .     S
O1416  C1417   1.413   .     S
C1417  H1418   1.107   .     S
C1417  H1419   1.116   .     S
C1417  H1420   1.112   .     S
O1421  C1422   1.412   .     S
C1422  H1425   1.105   .     S
C1422  H1424   1.111   .     S
C1422  H1423   1.116   .     S
O1426  C1427   1.410   .     S
C1427  H1428   1.109   .     S
C1427  H1429   1.111   .     S
C1427  H1430   1.112   .     S
C1431  O1459   1.292   .     A
C1431  C1456   1.430   .     S
C1431  O1462   1.305   .     A
C1432  O1460   1.300   .     A
C1432  C1455   1.437   .     S
C1432  O1461   1.300   .     A
C1433  C1451   1.432   .     S
C1433  O1466   1.296   .     A
C1433  O1463   1.299   .     A
C1434  O1465   1.302   .     A
C1434  O1464   1.294   .     A
C1434  C1452   1.435   .     S
C1435  N1458   1.376   .     A
C1435  C1469   1.515   .     S
C1436  N1457   1.377   .     A
C1436  C1473   1.509   .     S
C1436  C1767   1.433   .     S
C1437  N1458   1.377   .     A
C1437  C1477   1.505   .     S
C1438  C1481   1.502   .     S
C1438  N1457   1.381   .     A
C1438  C1765   1.437   .     S
C1439  O1521   1.384   .     S
C1439  C1456   1.400   .     A
C1440  O1526   1.381   .     S
C1440  C1455   1.407   .     A
C1440  C1552   1.380   .     S
C1441  C1455   1.406   .     A
C1441  O1531   1.384   .     S
C1441  C1549   1.386   .     S
C1442  C1456   1.408   .     A
C1442  O1536   1.386   .     S
C1443  C1453   1.408   .     A
C1443  C1447   1.395   .     A
C1443  O1485   1.386   .     S
C1444  C1448   1.395   .     A
C1444  C1454   1.409   .     A
C1444  O1490   1.386   .     S
C1445  C1449   1.391   .     A
C1445  O1495   1.386   .     S
C1445  C1454   1.406   .     A
C1446  O1500   1.386   .     S
C1446  C1450   1.391   .     A
C1446  C1453   1.407   .     A
C1447  C1451   1.410   .     A
C1447  C1505   1.516   .     S
C1448  C1509   1.517   .     S
C1448  C1452   1.411   .     A
C1449  C1513   1.514   .     S
C1449  C1452   1.410   .     A
C1450  C1517   1.514   .     S
C1450  C1451   1.409   .     A
C1454  C463    1.451   1_556 S
N1457  Zn1467  2.044   .     S
N1458  Zn1468  2.044   .     S
O1459  Zn1467  2.010   .     S
O1460  Zn1468  2.010   .     S
O1461  Zn1467  2.018   .     S
O1462  Zn1468  2.018   .     S
O1463  Zn1467  1.998   .     S
O1464  Zn1468  1.998   .     S
O1465  Zn1467  1.997   .     S
O1466  Zn1468  1.997   .     S
C1469  H1472   1.104   .     S
C1469  H1471   1.109   .     S
C1469  H1470   1.097   .     S
C1473  H1476   1.110   .     S
C1473  H1475   1.110   .     S
C1473  H1474   1.081   .     S
C1477  H1479   1.110   .     S
C1477  H1478   1.085   .     S
C1477  H1480   1.106   .     S
C1481  H1482   1.082   .     S
C1481  H1483   1.109   .     S
C1481  H1484   1.110   .     S
O1485  C1486   1.410   .     S
C1486  H1489   1.109   .     S
C1486  H1488   1.115   .     S
H1487  C496    1.110   1_556 S
O1490  C1491   1.410   .     S
C1491  H1493   1.115   .     S
C1491  H1494   1.109   .     S
C1491  H502    1.110   1_556 S
O1495  C1496   1.410   .     S
C1496  H1498   1.115   .     S
C1496  H1499   1.109   .     S
C1496  H507    1.110   1_556 S
O1500  C1501   1.410   .     S
C1501  H1503   1.115   .     S
H1502  C511    1.110   1_556 S
H1504  C511    1.109   1_556 S
C1505  H1507   1.109   .     S
C1505  H1506   1.110   .     S
C1505  H1508   1.110   .     S
C1509  H1511   1.110   .     S
C1509  H1512   1.109   .     S
C1509  H1510   1.108   .     S
C1513  H1514   1.109   .     S
C1513  H1515   1.111   .     S
C1513  H1516   1.108   .     S
C1517  H1518   1.108   .     S
C1517  H1520   1.110   .     S
C1517  H1519   1.109   .     S
O1521  C1522   1.417   .     S
C1522  H1524   1.115   .     S
C1522  H1523   1.108   .     S
H1525  C1632   1.110   .     S
O1526  C1527   1.413   .     S
C1527  H1528   1.107   .     S
C1527  H1529   1.116   .     S
C1527  H1530   1.112   .     S
O1531  C1532   1.412   .     S
C1532  H1535   1.105   .     S
C1532  H1534   1.111   .     S
C1532  H1533   1.116   .     S
O1536  C1537   1.410   .     S
C1537  H1538   1.109   .     S
C1537  H1539   1.111   .     S
C1537  H1540   1.112   .     S
C1541  O1569   1.292   .     A
C1541  C1566   1.430   .     S
C1541  O1572   1.305   .     A
C1542  O1570   1.300   .     A
C1542  C1565   1.437   .     S
C1542  O1571   1.300   .     A
C1543  C1561   1.432   .     S
C1543  O1576   1.296   .     A
C1543  O1573   1.299   .     A
C1544  O1575   1.302   .     A
C1544  O1574   1.294   .     A
C1544  C1562   1.435   .     S
C1545  N1568   1.376   .     A
C1545  C1579   1.515   .     S
C1546  N1567   1.377   .     A
C1546  C1583   1.509   .     S
C1546  C1877   1.433   .     S
C1547  N1568   1.377   .     A
C1547  C1587   1.505   .     S
C1548  C1591   1.502   .     S
C1548  N1567   1.381   .     A
C1548  C1875   1.437   .     S
C1549  O1631   1.384   .     S
C1549  C1566   1.400   .     A
C1550  O1636   1.381   .     S
C1550  C1565   1.407   .     A
C1550  C1332   1.380   1_655 S
C1551  C1565   1.406   .     A
C1551  O1641   1.384   .     S
C1551  C1329   1.386   1_655 S
C1552  C1566   1.408   .     A
C1552  O1646   1.386   .     S
C1553  C1563   1.408   .     A
C1553  C1557   1.395   .     A
C1553  O1595   1.386   .     S
C1554  C1558   1.395   .     A
C1554  C1564   1.409   .     A
C1554  O1600   1.386   .     S
C1555  C1559   1.391   .     A
C1555  O1605   1.386   .     S
C1555  C1564   1.406   .     A
C1556  O1610   1.386   .     S
C1556  C1560   1.391   .     A
C1556  C1563   1.407   .     A
C1557  C1561   1.410   .     A
C1557  C1615   1.516   .     S
C1558  C1619   1.517   .     S
C1558  C1562   1.411   .     A
C1559  C1623   1.514   .     S
C1559  C1562   1.410   .     A
C1560  C1627   1.514   .     S
C1560  C1561   1.409   .     A
C1564  C573    1.451   1_556 S
N1567  Zn1577  2.044   .     S
N1568  Zn1578  2.044   .     S
O1569  Zn1577  2.010   .     S
O1570  Zn1578  2.010   .     S
O1571  Zn1577  2.018   .     S
O1572  Zn1578  2.018   .     S
O1573  Zn1577  1.998   .     S
O1574  Zn1578  1.998   .     S
O1575  Zn1577  1.997   .     S
O1576  Zn1578  1.997   .     S
C1579  H1582   1.104   .     S
C1579  H1581   1.109   .     S
C1579  H1580   1.097   .     S
C1583  H1586   1.110   .     S
C1583  H1585   1.110   .     S
C1583  H1584   1.081   .     S
C1587  H1589   1.110   .     S
C1587  H1588   1.085   .     S
C1587  H1590   1.106   .     S
C1591  H1592   1.082   .     S
C1591  H1593   1.109   .     S
C1591  H1594   1.110   .     S
O1595  C1596   1.410   .     S
C1596  H1599   1.109   .     S
C1596  H1598   1.115   .     S
H1597  C606    1.110   1_556 S
O1600  C1601   1.410   .     S
C1601  H1603   1.115   .     S
C1601  H1604   1.109   .     S
C1601  H612    1.110   1_556 S
O1605  C1606   1.410   .     S
C1606  H1608   1.115   .     S
C1606  H1609   1.109   .     S
C1606  H617    1.110   1_556 S
O1610  C1611   1.410   .     S
C1611  H1613   1.115   .     S
H1612  C621    1.110   1_556 S
H1614  C621    1.109   1_556 S
C1615  H1617   1.109   .     S
C1615  H1616   1.110   .     S
C1615  H1618   1.110   .     S
C1619  H1621   1.110   .     S
C1619  H1622   1.109   .     S
C1619  H1620   1.108   .     S
C1623  H1624   1.109   .     S
C1623  H1625   1.111   .     S
C1623  H1626   1.108   .     S
C1627  H1628   1.108   .     S
C1627  H1630   1.110   .     S
C1627  H1629   1.109   .     S
O1631  C1632   1.417   .     S
C1632  H1634   1.115   .     S
C1632  H1633   1.108   .     S
H1635  C1412   1.110   1_655 S
O1636  C1637   1.413   .     S
C1637  H1638   1.107   .     S
C1637  H1639   1.116   .     S
C1637  H1640   1.112   .     S
O1641  C1642   1.412   .     S
C1642  H1645   1.105   .     S
C1642  H1644   1.111   .     S
C1642  H1643   1.116   .     S
O1646  C1647   1.410   .     S
C1647  H1648   1.109   .     S
C1647  H1649   1.111   .     S
C1647  H1650   1.112   .     S
C1651  O1679   1.292   .     A
C1651  C1676   1.430   .     S
C1651  O1682   1.305   .     A
C1652  O1680   1.300   .     A
C1652  C1675   1.437   .     S
C1652  O1681   1.300   .     A
C1653  C1671   1.432   .     S
C1653  O1686   1.296   .     A
C1653  O1683   1.299   .     A
C1654  O1685   1.302   .     A
C1654  O1684   1.294   .     A
C1654  C1672   1.435   .     S
C1655  N1678   1.376   .     A
C1655  C1689   1.515   .     S
C1656  N1677   1.377   .     A
C1656  C1693   1.509   .     S
C1656  C997    1.433   1_565 S
C1657  N1678   1.377   .     A
C1657  C1697   1.505   .     S
C1658  C1701   1.502   .     S
C1658  N1677   1.381   .     A
C1658  C995    1.437   1_565 S
C1659  O1741   1.384   .     S
C1659  C1676   1.400   .     A
C1659  C1881   1.386   1_455 S
C1660  O1746   1.381   .     S
C1660  C1675   1.407   .     A
C1660  C1772   1.380   .     S
C1661  C1675   1.406   .     A
C1661  O1751   1.384   .     S
C1661  C1769   1.386   .     S
C1662  C1676   1.408   .     A
C1662  O1756   1.386   .     S
C1662  C1880   1.380   1_455 S
C1663  C1673   1.408   .     A
C1663  C1667   1.395   .     A
C1663  O1705   1.386   .     S
C1664  C1668   1.395   .     A
C1664  C1674   1.409   .     A
C1664  O1710   1.386   .     S
C1665  C1669   1.391   .     A
C1665  O1715   1.386   .     S
C1665  C1674   1.406   .     A
C1666  O1720   1.386   .     S
C1666  C1670   1.391   .     A
C1666  C1673   1.407   .     A
C1667  C1671   1.410   .     A
C1667  C1725   1.516   .     S
C1668  C1729   1.517   .     S
C1668  C1672   1.411   .     A
C1669  C1733   1.514   .     S
C1669  C1672   1.410   .     A
C1670  C1737   1.514   .     S
C1670  C1671   1.409   .     A
C1674  C683    1.451   1_556 S
N1677  Zn1687  2.044   .     S
N1678  Zn1688  2.044   .     S
O1679  Zn1687  2.010   .     S
O1680  Zn1688  2.010   .     S
O1681  Zn1687  2.018   .     S
O1682  Zn1688  2.018   .     S
O1683  Zn1687  1.998   .     S
O1684  Zn1688  1.998   .     S
O1685  Zn1687  1.997   .     S
O1686  Zn1688  1.997   .     S
C1689  H1692   1.104   .     S
C1689  H1691   1.109   .     S
C1689  H1690   1.097   .     S
C1693  H1696   1.110   .     S
C1693  H1695   1.110   .     S
C1693  H1694   1.081   .     S
C1697  H1699   1.110   .     S
C1697  H1698   1.085   .     S
C1697  H1700   1.106   .     S
C1701  H1702   1.082   .     S
C1701  H1703   1.109   .     S
C1701  H1704   1.110   .     S
O1705  C1706   1.410   .     S
C1706  H1709   1.109   .     S
C1706  H1708   1.115   .     S
H1707  C716    1.110   1_556 S
O1710  C1711   1.410   .     S
C1711  H1713   1.115   .     S
C1711  H1714   1.109   .     S
C1711  H722    1.110   1_556 S
O1715  C1716   1.410   .     S
C1716  H1718   1.115   .     S
C1716  H1719   1.109   .     S
C1716  H727    1.110   1_556 S
O1720  C1721   1.410   .     S
C1721  H1723   1.115   .     S
H1722  C731    1.110   1_556 S
H1724  C731    1.109   1_556 S
C1725  H1727   1.109   .     S
C1725  H1726   1.110   .     S
C1725  H1728   1.110   .     S
C1729  H1731   1.110   .     S
C1729  H1732   1.109   .     S
C1729  H1730   1.108   .     S
C1733  H1734   1.109   .     S
C1733  H1735   1.111   .     S
C1733  H1736   1.108   .     S
C1737  H1738   1.108   .     S
C1737  H1740   1.110   .     S
C1737  H1739   1.109   .     S
O1741  C1742   1.417   .     S
C1742  H1744   1.115   .     S
C1742  H1743   1.108   .     S
C1742  H1965   1.110   1_455 S
H1745  C1852   1.110   .     S
O1746  C1747   1.413   .     S
C1747  H1748   1.107   .     S
C1747  H1749   1.116   .     S
C1747  H1750   1.112   .     S
O1751  C1752   1.412   .     S
C1752  H1755   1.105   .     S
C1752  H1754   1.111   .     S
C1752  H1753   1.116   .     S
O1756  C1757   1.410   .     S
C1757  H1758   1.109   .     S
C1757  H1759   1.111   .     S
C1757  H1760   1.112   .     S
C1761  O1789   1.292   .     A
C1761  C1786   1.430   .     S
C1761  O1792   1.305   .     A
C1762  O1790   1.300   .     A
C1762  C1785   1.437   .     S
C1762  O1791   1.300   .     A
C1763  C1781   1.432   .     S
C1763  O1796   1.296   .     A
C1763  O1793   1.299   .     A
C1764  O1795   1.302   .     A
C1764  O1794   1.294   .     A
C1764  C1782   1.435   .     S
C1765  N1788   1.376   .     A
C1765  C1799   1.515   .     S
C1766  N1787   1.377   .     A
C1766  C1803   1.509   .     S
C1766  C1107   1.433   1_565 S
C1767  N1788   1.377   .     A
C1767  C1807   1.505   .     S
C1768  C1811   1.502   .     S
C1768  N1787   1.381   .     A
C1768  C1105   1.437   1_565 S
C1769  O1851   1.384   .     S
C1769  C1786   1.400   .     A
C1770  O1856   1.381   .     S
C1770  C1785   1.407   .     A
C1770  C1882   1.380   .     S
C1771  C1785   1.406   .     A
C1771  O1861   1.384   .     S
C1771  C1879   1.386   .     S
C1772  C1786   1.408   .     A
C1772  O1866   1.386   .     S
C1773  C1783   1.408   .     A
C1773  C1777   1.395   .     A
C1773  O1815   1.386   .     S
C1774  C1778   1.395   .     A
C1774  C1784   1.409   .     A
C1774  O1820   1.386   .     S
C1775  C1779   1.391   .     A
C1775  O1825   1.386   .     S
C1775  C1784   1.406   .     A
C1776  O1830   1.386   .     S
C1776  C1780   1.391   .     A
C1776  C1783   1.407   .     A
C1777  C1781   1.410   .     A
C1777  C1835   1.516   .     S
C1778  C1839   1.517   .     S
C1778  C1782   1.411   .     A
C1779  C1843   1.514   .     S
C1779  C1782   1.410   .     A
C1780  C1847   1.514   .     S
C1780  C1781   1.409   .     A
C1784  C793    1.451   1_556 S
N1787  Zn1797  2.044   .     S
N1788  Zn1798  2.044   .     S
O1789  Zn1797  2.010   .     S
O1790  Zn1798  2.010   .     S
O1791  Zn1797  2.018   .     S
O1792  Zn1798  2.018   .     S
O1793  Zn1797  1.998   .     S
O1794  Zn1798  1.998   .     S
O1795  Zn1797  1.997   .     S
O1796  Zn1798  1.997   .     S
C1799  H1802   1.104   .     S
C1799  H1801   1.109   .     S
C1799  H1800   1.097   .     S
C1803  H1806   1.110   .     S
C1803  H1805   1.110   .     S
C1803  H1804   1.081   .     S
C1807  H1809   1.110   .     S
C1807  H1808   1.085   .     S
C1807  H1810   1.106   .     S
C1811  H1812   1.082   .     S
C1811  H1813   1.109   .     S
C1811  H1814   1.110   .     S
O1815  C1816   1.410   .     S
C1816  H1819   1.109   .     S
C1816  H1818   1.115   .     S
H1817  C826    1.110   1_556 S
O1820  C1821   1.410   .     S
C1821  H1823   1.115   .     S
C1821  H1824   1.109   .     S
C1821  H832    1.110   1_556 S
O1825  C1826   1.410   .     S
C1826  H1828   1.115   .     S
C1826  H1829   1.109   .     S
C1826  H837    1.110   1_556 S
O1830  C1831   1.410   .     S
C1831  H1833   1.115   .     S
H1832  C841    1.110   1_556 S
H1834  C841    1.109   1_556 S
C1835  H1837   1.109   .     S
C1835  H1836   1.110   .     S
C1835  H1838   1.110   .     S
C1839  H1841   1.110   .     S
C1839  H1842   1.109   .     S
C1839  H1840   1.108   .     S
C1843  H1844   1.109   .     S
C1843  H1845   1.111   .     S
C1843  H1846   1.108   .     S
C1847  H1848   1.108   .     S
C1847  H1850   1.110   .     S
C1847  H1849   1.109   .     S
O1851  C1852   1.417   .     S
C1852  H1854   1.115   .     S
C1852  H1853   1.108   .     S
H1855  C1962   1.110   .     S
O1856  C1857   1.413   .     S
C1857  H1858   1.107   .     S
C1857  H1859   1.116   .     S
C1857  H1860   1.112   .     S
O1861  C1862   1.412   .     S
C1862  H1865   1.105   .     S
C1862  H1864   1.111   .     S
C1862  H1863   1.116   .     S
O1866  C1867   1.410   .     S
C1867  H1868   1.109   .     S
C1867  H1869   1.111   .     S
C1867  H1870   1.112   .     S
C1871  O1899   1.292   .     A
C1871  C1896   1.430   .     S
C1871  O1902   1.305   .     A
C1872  O1900   1.300   .     A
C1872  C1895   1.437   .     S
C1872  O1901   1.300   .     A
C1873  C1891   1.432   .     S
C1873  O1906   1.296   .     A
C1873  O1903   1.299   .     A
C1874  O1905   1.302   .     A
C1874  O1904   1.294   .     A
C1874  C1892   1.435   .     S
C1875  N1898   1.376   .     A
C1875  C1909   1.515   .     S
C1876  N1897   1.377   .     A
C1876  C1913   1.509   .     S
C1876  C1217   1.433   1_565 S
C1877  N1898   1.377   .     A
C1877  C1917   1.505   .     S
C1878  C1921   1.502   .     S
C1878  N1897   1.381   .     A
C1878  C1215   1.437   1_565 S
C1879  O1961   1.384   .     S
C1879  C1896   1.400   .     A
C1880  O1966   1.381   .     S
C1880  C1895   1.407   .     A
C1880  C1662   1.380   1_655 S
C1881  C1895   1.406   .     A
C1881  O1971   1.384   .     S
C1881  C1659   1.386   1_655 S
C1882  C1896   1.408   .     A
C1882  O1976   1.386   .     S
C1883  C1893   1.408   .     A
C1883  C1887   1.395   .     A
C1883  O1925   1.386   .     S
C1884  C1888   1.395   .     A
C1884  C1894   1.409   .     A
C1884  O1930   1.386   .     S
C1885  C1889   1.391   .     A
C1885  O1935   1.386   .     S
C1885  C1894   1.406   .     A
C1886  O1940   1.386   .     S
C1886  C1890   1.391   .     A
C1886  C1893   1.407   .     A
C1887  C1891   1.410   .     A
C1887  C1945   1.516   .     S
C1888  C1949   1.517   .     S
C1888  C1892   1.411   .     A
C1889  C1953   1.514   .     S
C1889  C1892   1.410   .     A
C1890  C1957   1.514   .     S
C1890  C1891   1.409   .     A
C1894  C903    1.451   1_556 S
N1897  Zn1907  2.044   .     S
N1898  Zn1908  2.044   .     S
O1899  Zn1907  2.010   .     S
O1900  Zn1908  2.010   .     S
O1901  Zn1907  2.018   .     S
O1902  Zn1908  2.018   .     S
O1903  Zn1907  1.998   .     S
O1904  Zn1908  1.998   .     S
O1905  Zn1907  1.997   .     S
O1906  Zn1908  1.997   .     S
C1909  H1912   1.104   .     S
C1909  H1911   1.109   .     S
C1909  H1910   1.097   .     S
C1913  H1916   1.110   .     S
C1913  H1915   1.110   .     S
C1913  H1914   1.081   .     S
C1917  H1919   1.110   .     S
C1917  H1918   1.085   .     S
C1917  H1920   1.106   .     S
C1921  H1922   1.082   .     S
C1921  H1923   1.109   .     S
C1921  H1924   1.110   .     S
O1925  C1926   1.410   .     S
C1926  H1929   1.109   .     S
C1926  H1928   1.115   .     S
H1927  C936    1.110   1_556 S
O1930  C1931   1.410   .     S
C1931  H1933   1.115   .     S
C1931  H1934   1.109   .     S
C1931  H942    1.110   1_556 S
O1935  C1936   1.410   .     S
C1936  H1938   1.115   .     S
C1936  H1939   1.109   .     S
C1936  H947    1.110   1_556 S
O1940  C1941   1.410   .     S
C1941  H1943   1.115   .     S
H1942  C951    1.110   1_556 S
H1944  C951    1.109   1_556 S
C1945  H1947   1.109   .     S
C1945  H1946   1.110   .     S
C1945  H1948   1.110   .     S
C1949  H1951   1.110   .     S
C1949  H1952   1.109   .     S
C1949  H1950   1.108   .     S
C1953  H1954   1.109   .     S
C1953  H1955   1.111   .     S
C1953  H1956   1.108   .     S
C1957  H1958   1.108   .     S
C1957  H1960   1.110   .     S
C1957  H1959   1.109   .     S
O1961  C1962   1.417   .     S
C1962  H1964   1.115   .     S
C1962  H1963   1.108   .     S
H1965  C1742   1.110   1_655 S
O1966  C1967   1.413   .     S
C1967  H1968   1.107   .     S
C1967  H1969   1.116   .     S
C1967  H1970   1.112   .     S
O1971  C1972   1.412   .     S
C1972  H1975   1.105   .     S
C1972  H1974   1.111   .     S
C1972  H1973   1.116   .     S
O1976  C1977   1.410   .     S
C1977  H1978   1.109   .     S
C1977  H1979   1.111   .     S
C1977  H1980   1.112   .     S
