data_str_m2_o10_o16_pcu_sym.24
_audit_creation_date              2020-01-03
_audit_creation_method            'Materials Studio'
_symmetry_space_group_name_H-M    'P1'
_symmetry_Int_Tables_number       1
_symmetry_cell_setting            triclinic
loop_
_symmetry_equiv_pos_as_xyz
  x,y,z
_cell_length_a                    22.2568
_cell_length_b                    26.0744
_cell_length_c                    26.6839
_cell_angle_alpha                 93.7953
_cell_angle_beta                  77.3594
_cell_angle_gamma                 102.5202
loop_
_atom_site_label
_atom_site_type_symbol
_atom_site_fract_x
_atom_site_fract_y
_atom_site_fract_z
_atom_site_U_iso_or_equiv
_atom_site_adp_type
_atom_site_occupancy
C1     C     0.18022   0.26654   0.25421   0.00000  Uiso   1.00
C2     C     0.11242   0.16701   0.40385   0.00000  Uiso   1.00
C3     C     0.18715   0.32233   0.25508   0.00000  Uiso   1.00
C4     C     0.13315   0.16643   0.34737   0.00000  Uiso   1.00
C5     C     0.13785   0.01266   0.26652   0.00000  Uiso   1.00
C6     C     0.15029   0.06698   0.25285   0.00000  Uiso   1.00
C7     C     0.20060   0.16999   0.15288   0.00000  Uiso   1.00
C8     C     0.28761   0.23541   0.03029   0.00000  Uiso   1.00
C9     C     0.22169   0.17862   0.09761   0.00000  Uiso   1.00
C10    C     0.04992   0.14417   0.42612   0.00000  Uiso   1.00
C11    C     0.03129   0.13850   0.47906   0.00000  Uiso   1.00
C12    C     0.13950   0.17169   0.48831   0.00000  Uiso   1.00
C13    C     0.07554   0.15189   0.00997   0.00000  Uiso   1.00
C14    C     0.07110   0.32062   0.29406   0.00000  Uiso   1.00
C15    C     0.04623   0.01861   0.34258   0.00000  Uiso   1.00
C16    C     0.31165   0.02342   0.34563   0.00000  Uiso   1.00
C17    C     0.14523   0.09863   0.07427   0.00000  Uiso   1.00
C18    C     0.16248   0.06090   0.02916   0.00000  Uiso   1.00
C19    C     0.13037   0.00399   0.04222   0.00000  Uiso   1.00
C20    C     0.15559   0.18632   0.43616   0.00000  Uiso   1.00
C21    C     0.18706   0.18154   0.01776   0.00000  Uiso   1.00
C22    C     0.24354   0.21861   0.49934   0.00000  Uiso   1.00
C23    C     0.25532   0.23886   0.45028   0.00000  Uiso   1.00
C24    C     0.21287   0.22184   0.41858   0.00000  Uiso   1.00
C25    C     0.18204   0.15525   0.06405   0.00000  Uiso   1.00
C26    C     0.27524   0.21738   0.08004   0.00000  Uiso   1.00
Cu27   Cu    0.10710   0.16105   0.24435   0.00000  Uiso   1.00
Cu28   Cu    0.22623   0.17228   0.25564   0.00000  Uiso   1.00
H29    H     0.30663   0.23473   0.10526   0.00000  Uiso   1.00
H30    H     0.23456   0.01111   0.24040   0.00000  Uiso   1.00
H31    H     0.28150   0.31754   0.34135   0.00000  Uiso   1.00
H32    H     0.29298   0.04088   0.38337   0.00000  Uiso   1.00
H33    H     0.30960   0.04908   0.31469   0.00000  Uiso   1.00
H34    H     0.04837   0.33181   0.37742   0.00000  Uiso   1.00
H35    H     0.07544   0.05862   0.34429   0.00000  Uiso   1.00
H36    H     0.03998   0.31647   0.26596   0.00000  Uiso   1.00
H37    H     0.06810   0.28102   0.30796   0.00000  Uiso   1.00
H38    H     0.14277   0.31125   0.00862   0.00000  Uiso   1.00
H39    H     0.14620   0.32462   0.07522   0.00000  Uiso   1.00
H40    H     0.00238   0.20374   0.29143   0.00000  Uiso   1.00
H41    H     0.07844   0.33320   0.05199   0.00000  Uiso   1.00
H42    H     0.14802   0.07120   0.49453   0.00000  Uiso   1.00
H43    H     0.21424   0.06384   0.01976   0.00000  Uiso   1.00
H44    H     0.15680   0.08345   0.10818   0.00000  Uiso   1.00
H45    H     0.09383   0.09578   0.08471   0.00000  Uiso   1.00
H46    H     0.33040   0.12870   0.20928   0.00000  Uiso   1.00
H47    H     0.29806   0.26735   0.43600   0.00000  Uiso   1.00
H48    H     0.33014   0.26445   0.01685   0.00000  Uiso   1.00
H49    H     0.01534   0.13092   0.40263   0.00000  Uiso   1.00
H50    H     0.05847   0.15004   0.05097   0.00000  Uiso   1.00
H51    H     0.31578   0.12318   0.49622   0.00000  Uiso   1.00
H52    H     0.22386   0.23940   0.38133   0.00000  Uiso   1.00
N53    N     0.31574   0.18074   0.26416   0.00000  Uiso   1.00
N54    N     0.01759   0.15259   0.23584   0.00000  Uiso   1.00
O55    O     0.12797   0.23807   0.24633   0.00000  Uiso   1.00
O56    O     0.22858   0.24755   0.25586   0.00000  Uiso   1.00
O57    O     0.09181   0.15960   0.31839   0.00000  Uiso   1.00
O58    O     0.19242   0.16908   0.32793   0.00000  Uiso   1.00
O59    O     0.10476   0.08578   0.24414   0.00000  Uiso   1.00
O60    O     0.20536   0.09526   0.25367   0.00000  Uiso   1.00
O61    O     0.14092   0.16425   0.17207   0.00000  Uiso   1.00
O62    O     0.24152   0.17373   0.18160   0.00000  Uiso   1.00
C63    C     0.51355   0.26654   0.25421   0.00000  Uiso   1.00
C64    C     0.44576   0.16701   0.40385   0.00000  Uiso   1.00
C65    C     0.52049   0.32233   0.25508   0.00000  Uiso   1.00
C66    C     0.46649   0.16643   0.34737   0.00000  Uiso   1.00
C67    C     0.47118   0.01266   0.26652   0.00000  Uiso   1.00
C68    C     0.48362   0.06698   0.25285   0.00000  Uiso   1.00
C69    C     0.53393   0.16999   0.15288   0.00000  Uiso   1.00
C70    C     0.62095   0.23541   0.03029   0.00000  Uiso   1.00
C71    C     0.55502   0.17862   0.09761   0.00000  Uiso   1.00
C72    C     0.38326   0.14417   0.42612   0.00000  Uiso   1.00
C73    C     0.36463   0.13850   0.47906   0.00000  Uiso   1.00
C74    C     0.47283   0.17169   0.48831   0.00000  Uiso   1.00
C75    C     0.40888   0.15189   0.00997   0.00000  Uiso   1.00
C76    C     0.40443   0.32062   0.29406   0.00000  Uiso   1.00
C77    C     0.37956   0.01861   0.34258   0.00000  Uiso   1.00
C78    C     0.64498   0.02342   0.34563   0.00000  Uiso   1.00
C79    C     0.47856   0.09863   0.07427   0.00000  Uiso   1.00
C80    C     0.49581   0.06090   0.02916   0.00000  Uiso   1.00
C81    C     0.46371   0.00399   0.04222   0.00000  Uiso   1.00
C82    C     0.48892   0.18632   0.43616   0.00000  Uiso   1.00
C83    C     0.52039   0.18154   0.01776   0.00000  Uiso   1.00
C84    C     0.57687   0.21861   0.49934   0.00000  Uiso   1.00
C85    C     0.58865   0.23886   0.45028   0.00000  Uiso   1.00
C86    C     0.54620   0.22184   0.41858   0.00000  Uiso   1.00
C87    C     0.51537   0.15525   0.06405   0.00000  Uiso   1.00
C88    C     0.60858   0.21738   0.08004   0.00000  Uiso   1.00
Cu89   Cu    0.44043   0.16105   0.24435   0.00000  Uiso   1.00
Cu90   Cu    0.55957   0.17228   0.25564   0.00000  Uiso   1.00
H91    H     0.63996   0.23473   0.10526   0.00000  Uiso   1.00
H92    H     0.56790   0.01111   0.24040   0.00000  Uiso   1.00
H93    H     0.61483   0.31754   0.34135   0.00000  Uiso   1.00
H94    H     0.62631   0.04088   0.38337   0.00000  Uiso   1.00
H95    H     0.64293   0.04908   0.31469   0.00000  Uiso   1.00
H96    H     0.38171   0.33181   0.37742   0.00000  Uiso   1.00
H97    H     0.40877   0.05862   0.34429   0.00000  Uiso   1.00
H98    H     0.37331   0.31647   0.26596   0.00000  Uiso   1.00
H99    H     0.40143   0.28102   0.30796   0.00000  Uiso   1.00
H100   H     0.47610   0.31125   0.00862   0.00000  Uiso   1.00
H101   H     0.47953   0.32462   0.07522   0.00000  Uiso   1.00
H102   H     0.33571   0.20374   0.29143   0.00000  Uiso   1.00
H103   H     0.41178   0.33320   0.05199   0.00000  Uiso   1.00
H104   H     0.48135   0.07120   0.49453   0.00000  Uiso   1.00
H105   H     0.54758   0.06384   0.01976   0.00000  Uiso   1.00
H106   H     0.49013   0.08345   0.10818   0.00000  Uiso   1.00
H107   H     0.42717   0.09578   0.08471   0.00000  Uiso   1.00
H108   H     0.66374   0.12870   0.20928   0.00000  Uiso   1.00
H109   H     0.63140   0.26735   0.43600   0.00000  Uiso   1.00
H110   H     0.66347   0.26445   0.01685   0.00000  Uiso   1.00
H111   H     0.34868   0.13092   0.40263   0.00000  Uiso   1.00
H112   H     0.39180   0.15004   0.05097   0.00000  Uiso   1.00
H113   H     0.64911   0.12318   0.49622   0.00000  Uiso   1.00
H114   H     0.55719   0.23940   0.38133   0.00000  Uiso   1.00
N115   N     0.64908   0.18074   0.26416   0.00000  Uiso   1.00
N116   N     0.35092   0.15259   0.23584   0.00000  Uiso   1.00
O117   O     0.46131   0.23807   0.24633   0.00000  Uiso   1.00
O118   O     0.56191   0.24755   0.25586   0.00000  Uiso   1.00
O119   O     0.42515   0.15960   0.31839   0.00000  Uiso   1.00
O120   O     0.52575   0.16908   0.32793   0.00000  Uiso   1.00
O121   O     0.43809   0.08578   0.24414   0.00000  Uiso   1.00
O122   O     0.53869   0.09526   0.25367   0.00000  Uiso   1.00
O123   O     0.47425   0.16425   0.17207   0.00000  Uiso   1.00
O124   O     0.57485   0.17373   0.18160   0.00000  Uiso   1.00
C125   C     0.84688   0.26654   0.25421   0.00000  Uiso   1.00
C126   C     0.77909   0.16701   0.40385   0.00000  Uiso   1.00
C127   C     0.85382   0.32233   0.25508   0.00000  Uiso   1.00
C128   C     0.79982   0.16643   0.34737   0.00000  Uiso   1.00
C129   C     0.80451   0.01266   0.26652   0.00000  Uiso   1.00
C130   C     0.81696   0.06698   0.25285   0.00000  Uiso   1.00
C131   C     0.86726   0.16999   0.15288   0.00000  Uiso   1.00
C132   C     0.95428   0.23541   0.03029   0.00000  Uiso   1.00
C133   C     0.88835   0.17862   0.09761   0.00000  Uiso   1.00
C134   C     0.71659   0.14417   0.42612   0.00000  Uiso   1.00
C135   C     0.69796   0.13850   0.47906   0.00000  Uiso   1.00
C136   C     0.80616   0.17169   0.48831   0.00000  Uiso   1.00
C137   C     0.74221   0.15189   0.00997   0.00000  Uiso   1.00
C138   C     0.73776   0.32062   0.29406   0.00000  Uiso   1.00
C139   C     0.71289   0.01861   0.34258   0.00000  Uiso   1.00
C140   C     0.97832   0.02342   0.34563   0.00000  Uiso   1.00
C141   C     0.81189   0.09863   0.07427   0.00000  Uiso   1.00
C142   C     0.82915   0.06090   0.02916   0.00000  Uiso   1.00
C143   C     0.79704   0.00399   0.04222   0.00000  Uiso   1.00
C144   C     0.82226   0.18632   0.43616   0.00000  Uiso   1.00
C145   C     0.85372   0.18154   0.01776   0.00000  Uiso   1.00
C146   C     0.91020   0.21861   0.49934   0.00000  Uiso   1.00
C147   C     0.92199   0.23886   0.45028   0.00000  Uiso   1.00
C148   C     0.87954   0.22184   0.41858   0.00000  Uiso   1.00
C149   C     0.84870   0.15525   0.06405   0.00000  Uiso   1.00
C150   C     0.94191   0.21738   0.08004   0.00000  Uiso   1.00
Cu151  Cu    0.77377   0.16105   0.24435   0.00000  Uiso   1.00
Cu152  Cu    0.89290   0.17228   0.25564   0.00000  Uiso   1.00
H153   H     0.97329   0.23473   0.10526   0.00000  Uiso   1.00
H154   H     0.90123   0.01111   0.24040   0.00000  Uiso   1.00
H155   H     0.94817   0.31754   0.34135   0.00000  Uiso   1.00
H156   H     0.95965   0.04088   0.38337   0.00000  Uiso   1.00
H157   H     0.97626   0.04908   0.31469   0.00000  Uiso   1.00
H158   H     0.71504   0.33181   0.37742   0.00000  Uiso   1.00
H159   H     0.74210   0.05862   0.34429   0.00000  Uiso   1.00
H160   H     0.70665   0.31647   0.26596   0.00000  Uiso   1.00
H161   H     0.73477   0.28102   0.30796   0.00000  Uiso   1.00
H162   H     0.80943   0.31125   0.00862   0.00000  Uiso   1.00
H163   H     0.81286   0.32462   0.07522   0.00000  Uiso   1.00
H164   H     0.66905   0.20374   0.29143   0.00000  Uiso   1.00
H165   H     0.74511   0.33320   0.05199   0.00000  Uiso   1.00
H166   H     0.81468   0.07120   0.49453   0.00000  Uiso   1.00
H167   H     0.88091   0.06384   0.01976   0.00000  Uiso   1.00
H168   H     0.82347   0.08345   0.10818   0.00000  Uiso   1.00
H169   H     0.76050   0.09578   0.08471   0.00000  Uiso   1.00
H170   H     0.99707   0.12870   0.20928   0.00000  Uiso   1.00
H171   H     0.96473   0.26735   0.43600   0.00000  Uiso   1.00
H172   H     0.99680   0.26445   0.01685   0.00000  Uiso   1.00
H173   H     0.68201   0.13092   0.40263   0.00000  Uiso   1.00
H174   H     0.72514   0.15004   0.05097   0.00000  Uiso   1.00
H175   H     0.98244   0.12318   0.49622   0.00000  Uiso   1.00
H176   H     0.89052   0.23940   0.38133   0.00000  Uiso   1.00
N177   N     0.98241   0.18074   0.26416   0.00000  Uiso   1.00
N178   N     0.68426   0.15259   0.23584   0.00000  Uiso   1.00
O179   O     0.79464   0.23807   0.24633   0.00000  Uiso   1.00
O180   O     0.89524   0.24755   0.25586   0.00000  Uiso   1.00
O181   O     0.75848   0.15960   0.31839   0.00000  Uiso   1.00
O182   O     0.85908   0.16908   0.32793   0.00000  Uiso   1.00
O183   O     0.77142   0.08578   0.24414   0.00000  Uiso   1.00
O184   O     0.87203   0.09526   0.25367   0.00000  Uiso   1.00
O185   O     0.80758   0.16425   0.17207   0.00000  Uiso   1.00
O186   O     0.90819   0.17373   0.18160   0.00000  Uiso   1.00
C187   C     0.18022   0.59988   0.25421   0.00000  Uiso   1.00
C188   C     0.11242   0.50034   0.40385   0.00000  Uiso   1.00
C189   C     0.18715   0.65566   0.25508   0.00000  Uiso   1.00
C190   C     0.13315   0.49976   0.34737   0.00000  Uiso   1.00
C191   C     0.13785   0.34600   0.26652   0.00000  Uiso   1.00
C192   C     0.15029   0.40031   0.25285   0.00000  Uiso   1.00
C193   C     0.20060   0.50333   0.15288   0.00000  Uiso   1.00
C194   C     0.28761   0.56875   0.03029   0.00000  Uiso   1.00
C195   C     0.22169   0.51195   0.09761   0.00000  Uiso   1.00
C196   C     0.04992   0.47750   0.42612   0.00000  Uiso   1.00
C197   C     0.03129   0.47184   0.47906   0.00000  Uiso   1.00
C198   C     0.13950   0.50503   0.48831   0.00000  Uiso   1.00
C199   C     0.07554   0.48523   0.00997   0.00000  Uiso   1.00
C200   C     0.07110   0.65395   0.29406   0.00000  Uiso   1.00
C201   C     0.04623   0.35194   0.34258   0.00000  Uiso   1.00
C202   C     0.31165   0.35675   0.34563   0.00000  Uiso   1.00
C203   C     0.14523   0.43196   0.07427   0.00000  Uiso   1.00
C204   C     0.16248   0.39423   0.02916   0.00000  Uiso   1.00
C205   C     0.13037   0.33732   0.04222   0.00000  Uiso   1.00
C206   C     0.15559   0.51965   0.43616   0.00000  Uiso   1.00
C207   C     0.18706   0.51487   0.01776   0.00000  Uiso   1.00
C208   C     0.24354   0.55195   0.49934   0.00000  Uiso   1.00
C209   C     0.25532   0.57219   0.45028   0.00000  Uiso   1.00
C210   C     0.21287   0.55517   0.41858   0.00000  Uiso   1.00
C211   C     0.18204   0.48858   0.06405   0.00000  Uiso   1.00
C212   C     0.27524   0.55071   0.08004   0.00000  Uiso   1.00
Cu213  Cu    0.10710   0.49439   0.24435   0.00000  Uiso   1.00
Cu214  Cu    0.22623   0.50561   0.25564   0.00000  Uiso   1.00
H215   H     0.30663   0.56806   0.10526   0.00000  Uiso   1.00
H216   H     0.23456   0.34444   0.24040   0.00000  Uiso   1.00
H217   H     0.28150   0.65087   0.34135   0.00000  Uiso   1.00
H218   H     0.29298   0.37421   0.38337   0.00000  Uiso   1.00
H219   H     0.30960   0.38242   0.31469   0.00000  Uiso   1.00
H220   H     0.04837   0.66514   0.37742   0.00000  Uiso   1.00
H221   H     0.07544   0.39195   0.34429   0.00000  Uiso   1.00
H222   H     0.03998   0.64980   0.26596   0.00000  Uiso   1.00
H223   H     0.06810   0.61436   0.30796   0.00000  Uiso   1.00
H224   H     0.14277   0.64458   0.00862   0.00000  Uiso   1.00
H225   H     0.14620   0.65795   0.07522   0.00000  Uiso   1.00
H226   H     0.00238   0.53707   0.29143   0.00000  Uiso   1.00
H227   H     0.07844   0.66653   0.05199   0.00000  Uiso   1.00
H228   H     0.14802   0.40453   0.49453   0.00000  Uiso   1.00
H229   H     0.21424   0.39717   0.01976   0.00000  Uiso   1.00
H230   H     0.15680   0.41678   0.10818   0.00000  Uiso   1.00
H231   H     0.09383   0.42911   0.08471   0.00000  Uiso   1.00
H232   H     0.33040   0.46203   0.20928   0.00000  Uiso   1.00
H233   H     0.29806   0.60068   0.43600   0.00000  Uiso   1.00
H234   H     0.33014   0.59778   0.01685   0.00000  Uiso   1.00
H235   H     0.01534   0.46425   0.40263   0.00000  Uiso   1.00
H236   H     0.05847   0.48337   0.05097   0.00000  Uiso   1.00
H237   H     0.31578   0.45652   0.49622   0.00000  Uiso   1.00
H238   H     0.22386   0.57274   0.38133   0.00000  Uiso   1.00
N239   N     0.31574   0.51407   0.26416   0.00000  Uiso   1.00
N240   N     0.01759   0.48593   0.23584   0.00000  Uiso   1.00
O241   O     0.12797   0.57141   0.24633   0.00000  Uiso   1.00
O242   O     0.22858   0.58089   0.25586   0.00000  Uiso   1.00
O243   O     0.09181   0.49293   0.31839   0.00000  Uiso   1.00
O244   O     0.19242   0.50241   0.32793   0.00000  Uiso   1.00
O245   O     0.10476   0.41911   0.24414   0.00000  Uiso   1.00
O246   O     0.20536   0.42859   0.25367   0.00000  Uiso   1.00
O247   O     0.14092   0.49759   0.17207   0.00000  Uiso   1.00
O248   O     0.24152   0.50707   0.18160   0.00000  Uiso   1.00
C249   C     0.51355   0.59988   0.25421   0.00000  Uiso   1.00
C250   C     0.44576   0.50034   0.40385   0.00000  Uiso   1.00
C251   C     0.52049   0.65566   0.25508   0.00000  Uiso   1.00
C252   C     0.46649   0.49976   0.34737   0.00000  Uiso   1.00
C253   C     0.47118   0.34600   0.26652   0.00000  Uiso   1.00
C254   C     0.48362   0.40031   0.25285   0.00000  Uiso   1.00
C255   C     0.53393   0.50333   0.15288   0.00000  Uiso   1.00
C256   C     0.62095   0.56875   0.03029   0.00000  Uiso   1.00
C257   C     0.55502   0.51195   0.09761   0.00000  Uiso   1.00
C258   C     0.38326   0.47750   0.42612   0.00000  Uiso   1.00
C259   C     0.36463   0.47184   0.47906   0.00000  Uiso   1.00
C260   C     0.47283   0.50503   0.48831   0.00000  Uiso   1.00
C261   C     0.40888   0.48523   0.00997   0.00000  Uiso   1.00
C262   C     0.40443   0.65395   0.29406   0.00000  Uiso   1.00
C263   C     0.37956   0.35194   0.34258   0.00000  Uiso   1.00
C264   C     0.64498   0.35675   0.34563   0.00000  Uiso   1.00
C265   C     0.47856   0.43196   0.07427   0.00000  Uiso   1.00
C266   C     0.49581   0.39423   0.02916   0.00000  Uiso   1.00
C267   C     0.46371   0.33732   0.04222   0.00000  Uiso   1.00
C268   C     0.48892   0.51965   0.43616   0.00000  Uiso   1.00
C269   C     0.52039   0.51487   0.01776   0.00000  Uiso   1.00
C270   C     0.57687   0.55195   0.49934   0.00000  Uiso   1.00
C271   C     0.58865   0.57219   0.45028   0.00000  Uiso   1.00
C272   C     0.54620   0.55517   0.41858   0.00000  Uiso   1.00
C273   C     0.51537   0.48858   0.06405   0.00000  Uiso   1.00
C274   C     0.60858   0.55071   0.08004   0.00000  Uiso   1.00
Cu275  Cu    0.44043   0.49439   0.24435   0.00000  Uiso   1.00
Cu276  Cu    0.55957   0.50561   0.25564   0.00000  Uiso   1.00
H277   H     0.63996   0.56806   0.10526   0.00000  Uiso   1.00
H278   H     0.56790   0.34444   0.24040   0.00000  Uiso   1.00
H279   H     0.61483   0.65087   0.34135   0.00000  Uiso   1.00
H280   H     0.62631   0.37421   0.38337   0.00000  Uiso   1.00
H281   H     0.64293   0.38242   0.31469   0.00000  Uiso   1.00
H282   H     0.38171   0.66514   0.37742   0.00000  Uiso   1.00
H283   H     0.40877   0.39195   0.34429   0.00000  Uiso   1.00
H284   H     0.37331   0.64980   0.26596   0.00000  Uiso   1.00
H285   H     0.40143   0.61436   0.30796   0.00000  Uiso   1.00
H286   H     0.47610   0.64458   0.00862   0.00000  Uiso   1.00
H287   H     0.47953   0.65795   0.07522   0.00000  Uiso   1.00
H288   H     0.33571   0.53707   0.29143   0.00000  Uiso   1.00
H289   H     0.41178   0.66653   0.05199   0.00000  Uiso   1.00
H290   H     0.48135   0.40453   0.49453   0.00000  Uiso   1.00
H291   H     0.54758   0.39717   0.01976   0.00000  Uiso   1.00
H292   H     0.49013   0.41678   0.10818   0.00000  Uiso   1.00
H293   H     0.42717   0.42911   0.08471   0.00000  Uiso   1.00
H294   H     0.66374   0.46203   0.20928   0.00000  Uiso   1.00
H295   H     0.63140   0.60068   0.43600   0.00000  Uiso   1.00
H296   H     0.66347   0.59778   0.01685   0.00000  Uiso   1.00
H297   H     0.34868   0.46425   0.40263   0.00000  Uiso   1.00
H298   H     0.39180   0.48337   0.05097   0.00000  Uiso   1.00
H299   H     0.64911   0.45652   0.49622   0.00000  Uiso   1.00
H300   H     0.55719   0.57274   0.38133   0.00000  Uiso   1.00
N301   N     0.64908   0.51407   0.26416   0.00000  Uiso   1.00
N302   N     0.35092   0.48593   0.23584   0.00000  Uiso   1.00
O303   O     0.46131   0.57141   0.24633   0.00000  Uiso   1.00
O304   O     0.56191   0.58089   0.25586   0.00000  Uiso   1.00
O305   O     0.42515   0.49293   0.31839   0.00000  Uiso   1.00
O306   O     0.52575   0.50241   0.32793   0.00000  Uiso   1.00
O307   O     0.43809   0.41911   0.24414   0.00000  Uiso   1.00
O308   O     0.53869   0.42859   0.25367   0.00000  Uiso   1.00
O309   O     0.47425   0.49759   0.17207   0.00000  Uiso   1.00
O310   O     0.57485   0.50707   0.18160   0.00000  Uiso   1.00
C311   C     0.84688   0.59988   0.25421   0.00000  Uiso   1.00
C312   C     0.77909   0.50034   0.40385   0.00000  Uiso   1.00
C313   C     0.85382   0.65566   0.25508   0.00000  Uiso   1.00
C314   C     0.79982   0.49976   0.34737   0.00000  Uiso   1.00
C315   C     0.80451   0.34600   0.26652   0.00000  Uiso   1.00
C316   C     0.81696   0.40031   0.25285   0.00000  Uiso   1.00
C317   C     0.86726   0.50333   0.15288   0.00000  Uiso   1.00
C318   C     0.95428   0.56875   0.03029   0.00000  Uiso   1.00
C319   C     0.88835   0.51195   0.09761   0.00000  Uiso   1.00
C320   C     0.71659   0.47750   0.42612   0.00000  Uiso   1.00
C321   C     0.69796   0.47184   0.47906   0.00000  Uiso   1.00
C322   C     0.80616   0.50503   0.48831   0.00000  Uiso   1.00
C323   C     0.74221   0.48523   0.00997   0.00000  Uiso   1.00
C324   C     0.73776   0.65395   0.29406   0.00000  Uiso   1.00
C325   C     0.71289   0.35194   0.34258   0.00000  Uiso   1.00
C326   C     0.97832   0.35675   0.34563   0.00000  Uiso   1.00
C327   C     0.81189   0.43196   0.07427   0.00000  Uiso   1.00
C328   C     0.82915   0.39423   0.02916   0.00000  Uiso   1.00
C329   C     0.79704   0.33732   0.04222   0.00000  Uiso   1.00
C330   C     0.82226   0.51965   0.43616   0.00000  Uiso   1.00
C331   C     0.85372   0.51487   0.01776   0.00000  Uiso   1.00
C332   C     0.91020   0.55195   0.49934   0.00000  Uiso   1.00
C333   C     0.92199   0.57219   0.45028   0.00000  Uiso   1.00
C334   C     0.87954   0.55517   0.41858   0.00000  Uiso   1.00
C335   C     0.84870   0.48858   0.06405   0.00000  Uiso   1.00
C336   C     0.94191   0.55071   0.08004   0.00000  Uiso   1.00
Cu337  Cu    0.77377   0.49439   0.24435   0.00000  Uiso   1.00
Cu338  Cu    0.89290   0.50561   0.25564   0.00000  Uiso   1.00
H339   H     0.97329   0.56806   0.10526   0.00000  Uiso   1.00
H340   H     0.90123   0.34444   0.24040   0.00000  Uiso   1.00
H341   H     0.94817   0.65087   0.34135   0.00000  Uiso   1.00
H342   H     0.95965   0.37421   0.38337   0.00000  Uiso   1.00
H343   H     0.97626   0.38242   0.31469   0.00000  Uiso   1.00
H344   H     0.71504   0.66514   0.37742   0.00000  Uiso   1.00
H345   H     0.74210   0.39195   0.34429   0.00000  Uiso   1.00
H346   H     0.70665   0.64980   0.26596   0.00000  Uiso   1.00
H347   H     0.73477   0.61436   0.30796   0.00000  Uiso   1.00
H348   H     0.80943   0.64458   0.00862   0.00000  Uiso   1.00
H349   H     0.81286   0.65795   0.07522   0.00000  Uiso   1.00
H350   H     0.66905   0.53707   0.29143   0.00000  Uiso   1.00
H351   H     0.74511   0.66653   0.05199   0.00000  Uiso   1.00
H352   H     0.81468   0.40453   0.49453   0.00000  Uiso   1.00
H353   H     0.88091   0.39717   0.01976   0.00000  Uiso   1.00
H354   H     0.82347   0.41678   0.10818   0.00000  Uiso   1.00
H355   H     0.76050   0.42911   0.08471   0.00000  Uiso   1.00
H356   H     0.99707   0.46203   0.20928   0.00000  Uiso   1.00
H357   H     0.96473   0.60068   0.43600   0.00000  Uiso   1.00
H358   H     0.99680   0.59778   0.01685   0.00000  Uiso   1.00
H359   H     0.68201   0.46425   0.40263   0.00000  Uiso   1.00
H360   H     0.72514   0.48337   0.05097   0.00000  Uiso   1.00
H361   H     0.98244   0.45652   0.49622   0.00000  Uiso   1.00
H362   H     0.89052   0.57274   0.38133   0.00000  Uiso   1.00
N363   N     0.98241   0.51407   0.26416   0.00000  Uiso   1.00
N364   N     0.68426   0.48593   0.23584   0.00000  Uiso   1.00
O365   O     0.79464   0.57141   0.24633   0.00000  Uiso   1.00
O366   O     0.89524   0.58089   0.25586   0.00000  Uiso   1.00
O367   O     0.75848   0.49293   0.31839   0.00000  Uiso   1.00
O368   O     0.85908   0.50241   0.32793   0.00000  Uiso   1.00
O369   O     0.77142   0.41911   0.24414   0.00000  Uiso   1.00
O370   O     0.87203   0.42859   0.25367   0.00000  Uiso   1.00
O371   O     0.80758   0.49759   0.17207   0.00000  Uiso   1.00
O372   O     0.90819   0.50707   0.18160   0.00000  Uiso   1.00
C373   C     0.18022   0.93321   0.25421   0.00000  Uiso   1.00
C374   C     0.11242   0.83367   0.40385   0.00000  Uiso   1.00
C375   C     0.18715   0.98900   0.25508   0.00000  Uiso   1.00
C376   C     0.13315   0.83310   0.34737   0.00000  Uiso   1.00
C377   C     0.13785   0.67933   0.26652   0.00000  Uiso   1.00
C378   C     0.15029   0.73365   0.25285   0.00000  Uiso   1.00
C379   C     0.20060   0.83666   0.15288   0.00000  Uiso   1.00
C380   C     0.28761   0.90208   0.03029   0.00000  Uiso   1.00
C381   C     0.22169   0.84529   0.09761   0.00000  Uiso   1.00
C382   C     0.04992   0.81084   0.42612   0.00000  Uiso   1.00
C383   C     0.03129   0.80517   0.47906   0.00000  Uiso   1.00
C384   C     0.13950   0.83836   0.48831   0.00000  Uiso   1.00
C385   C     0.07554   0.81856   0.00997   0.00000  Uiso   1.00
C386   C     0.07110   0.98728   0.29406   0.00000  Uiso   1.00
C387   C     0.04623   0.68528   0.34258   0.00000  Uiso   1.00
C388   C     0.31165   0.69008   0.34563   0.00000  Uiso   1.00
C389   C     0.14523   0.76529   0.07427   0.00000  Uiso   1.00
C390   C     0.16248   0.72756   0.02916   0.00000  Uiso   1.00
C391   C     0.13037   0.67065   0.04222   0.00000  Uiso   1.00
C392   C     0.15559   0.85298   0.43616   0.00000  Uiso   1.00
C393   C     0.18706   0.84820   0.01776   0.00000  Uiso   1.00
C394   C     0.24354   0.88528   0.49934   0.00000  Uiso   1.00
C395   C     0.25532   0.90552   0.45028   0.00000  Uiso   1.00
C396   C     0.21287   0.88850   0.41858   0.00000  Uiso   1.00
C397   C     0.18204   0.82192   0.06405   0.00000  Uiso   1.00
C398   C     0.27524   0.88405   0.08004   0.00000  Uiso   1.00
Cu399  Cu    0.10710   0.82772   0.24435   0.00000  Uiso   1.00
Cu400  Cu    0.22623   0.83895   0.25564   0.00000  Uiso   1.00
H401   H     0.30663   0.90140   0.10526   0.00000  Uiso   1.00
H402   H     0.23456   0.67777   0.24040   0.00000  Uiso   1.00
H403   H     0.28150   0.98421   0.34135   0.00000  Uiso   1.00
H404   H     0.29298   0.70754   0.38337   0.00000  Uiso   1.00
H405   H     0.30960   0.71575   0.31469   0.00000  Uiso   1.00
H406   H     0.04837   0.99847   0.37742   0.00000  Uiso   1.00
H407   H     0.07544   0.72528   0.34429   0.00000  Uiso   1.00
H408   H     0.03998   0.98313   0.26596   0.00000  Uiso   1.00
H409   H     0.06810   0.94769   0.30796   0.00000  Uiso   1.00
H410   H     0.14277   0.97792   0.00862   0.00000  Uiso   1.00
H411   H     0.14620   0.99128   0.07522   0.00000  Uiso   1.00
H412   H     0.00238   0.87041   0.29143   0.00000  Uiso   1.00
H413   H     0.07844   0.99987   0.05199   0.00000  Uiso   1.00
H414   H     0.14802   0.73786   0.49453   0.00000  Uiso   1.00
H415   H     0.21424   0.73050   0.01976   0.00000  Uiso   1.00
H416   H     0.15680   0.75012   0.10818   0.00000  Uiso   1.00
H417   H     0.09383   0.76244   0.08471   0.00000  Uiso   1.00
H418   H     0.33040   0.79536   0.20928   0.00000  Uiso   1.00
H419   H     0.29806   0.93401   0.43600   0.00000  Uiso   1.00
H420   H     0.33014   0.93111   0.01685   0.00000  Uiso   1.00
H421   H     0.01534   0.79758   0.40263   0.00000  Uiso   1.00
H422   H     0.05847   0.81671   0.05097   0.00000  Uiso   1.00
H423   H     0.31578   0.78985   0.49622   0.00000  Uiso   1.00
H424   H     0.22386   0.90607   0.38133   0.00000  Uiso   1.00
N425   N     0.31574   0.84741   0.26416   0.00000  Uiso   1.00
N426   N     0.01759   0.81926   0.23584   0.00000  Uiso   1.00
O427   O     0.12797   0.90474   0.24633   0.00000  Uiso   1.00
O428   O     0.22858   0.91422   0.25586   0.00000  Uiso   1.00
O429   O     0.09181   0.82627   0.31839   0.00000  Uiso   1.00
O430   O     0.19242   0.83575   0.32793   0.00000  Uiso   1.00
O431   O     0.10476   0.75245   0.24414   0.00000  Uiso   1.00
O432   O     0.20536   0.76193   0.25367   0.00000  Uiso   1.00
O433   O     0.14092   0.83092   0.17207   0.00000  Uiso   1.00
O434   O     0.24152   0.84040   0.18160   0.00000  Uiso   1.00
C435   C     0.51355   0.93321   0.25421   0.00000  Uiso   1.00
C436   C     0.44576   0.83367   0.40385   0.00000  Uiso   1.00
C437   C     0.52049   0.98900   0.25508   0.00000  Uiso   1.00
C438   C     0.46649   0.83310   0.34737   0.00000  Uiso   1.00
C439   C     0.47118   0.67933   0.26652   0.00000  Uiso   1.00
C440   C     0.48362   0.73365   0.25285   0.00000  Uiso   1.00
C441   C     0.53393   0.83666   0.15288   0.00000  Uiso   1.00
C442   C     0.62095   0.90208   0.03029   0.00000  Uiso   1.00
C443   C     0.55502   0.84529   0.09761   0.00000  Uiso   1.00
C444   C     0.38326   0.81084   0.42612   0.00000  Uiso   1.00
C445   C     0.36463   0.80517   0.47906   0.00000  Uiso   1.00
C446   C     0.47283   0.83836   0.48831   0.00000  Uiso   1.00
C447   C     0.40888   0.81856   0.00997   0.00000  Uiso   1.00
C448   C     0.40443   0.98728   0.29406   0.00000  Uiso   1.00
C449   C     0.37956   0.68528   0.34258   0.00000  Uiso   1.00
C450   C     0.64498   0.69008   0.34563   0.00000  Uiso   1.00
C451   C     0.47856   0.76529   0.07427   0.00000  Uiso   1.00
C452   C     0.49581   0.72756   0.02916   0.00000  Uiso   1.00
C453   C     0.46371   0.67065   0.04222   0.00000  Uiso   1.00
C454   C     0.48892   0.85298   0.43616   0.00000  Uiso   1.00
C455   C     0.52039   0.84820   0.01776   0.00000  Uiso   1.00
C456   C     0.57687   0.88528   0.49934   0.00000  Uiso   1.00
C457   C     0.58865   0.90552   0.45028   0.00000  Uiso   1.00
C458   C     0.54620   0.88850   0.41858   0.00000  Uiso   1.00
C459   C     0.51537   0.82192   0.06405   0.00000  Uiso   1.00
C460   C     0.60858   0.88405   0.08004   0.00000  Uiso   1.00
Cu461  Cu    0.44043   0.82772   0.24435   0.00000  Uiso   1.00
Cu462  Cu    0.55957   0.83895   0.25564   0.00000  Uiso   1.00
H463   H     0.63996   0.90140   0.10526   0.00000  Uiso   1.00
H464   H     0.56790   0.67777   0.24040   0.00000  Uiso   1.00
H465   H     0.61483   0.98421   0.34135   0.00000  Uiso   1.00
H466   H     0.62631   0.70754   0.38337   0.00000  Uiso   1.00
H467   H     0.64293   0.71575   0.31469   0.00000  Uiso   1.00
H468   H     0.38171   0.99847   0.37742   0.00000  Uiso   1.00
H469   H     0.40877   0.72528   0.34429   0.00000  Uiso   1.00
H470   H     0.37331   0.98313   0.26596   0.00000  Uiso   1.00
H471   H     0.40143   0.94769   0.30796   0.00000  Uiso   1.00
H472   H     0.47610   0.97792   0.00862   0.00000  Uiso   1.00
H473   H     0.47953   0.99128   0.07522   0.00000  Uiso   1.00
H474   H     0.33571   0.87041   0.29143   0.00000  Uiso   1.00
H475   H     0.41178   0.99987   0.05199   0.00000  Uiso   1.00
H476   H     0.48135   0.73786   0.49453   0.00000  Uiso   1.00
H477   H     0.54758   0.73050   0.01976   0.00000  Uiso   1.00
H478   H     0.49013   0.75012   0.10818   0.00000  Uiso   1.00
H479   H     0.42717   0.76244   0.08471   0.00000  Uiso   1.00
H480   H     0.66374   0.79536   0.20928   0.00000  Uiso   1.00
H481   H     0.63140   0.93401   0.43600   0.00000  Uiso   1.00
H482   H     0.66347   0.93111   0.01685   0.00000  Uiso   1.00
H483   H     0.34868   0.79758   0.40263   0.00000  Uiso   1.00
H484   H     0.39180   0.81671   0.05097   0.00000  Uiso   1.00
H485   H     0.64911   0.78985   0.49622   0.00000  Uiso   1.00
H486   H     0.55719   0.90607   0.38133   0.00000  Uiso   1.00
N487   N     0.64908   0.84741   0.26416   0.00000  Uiso   1.00
N488   N     0.35092   0.81926   0.23584   0.00000  Uiso   1.00
O489   O     0.46131   0.90474   0.24633   0.00000  Uiso   1.00
O490   O     0.56191   0.91422   0.25586   0.00000  Uiso   1.00
O491   O     0.42515   0.82627   0.31839   0.00000  Uiso   1.00
O492   O     0.52575   0.83575   0.32793   0.00000  Uiso   1.00
O493   O     0.43809   0.75245   0.24414   0.00000  Uiso   1.00
O494   O     0.53869   0.76193   0.25367   0.00000  Uiso   1.00
O495   O     0.47425   0.83092   0.17207   0.00000  Uiso   1.00
O496   O     0.57485   0.84040   0.18160   0.00000  Uiso   1.00
C497   C     0.84688   0.93321   0.25421   0.00000  Uiso   1.00
C498   C     0.77909   0.83367   0.40385   0.00000  Uiso   1.00
C499   C     0.85382   0.98900   0.25508   0.00000  Uiso   1.00
C500   C     0.79982   0.83310   0.34737   0.00000  Uiso   1.00
C501   C     0.80451   0.67933   0.26652   0.00000  Uiso   1.00
C502   C     0.81696   0.73365   0.25285   0.00000  Uiso   1.00
C503   C     0.86726   0.83666   0.15288   0.00000  Uiso   1.00
C504   C     0.95428   0.90208   0.03029   0.00000  Uiso   1.00
C505   C     0.88835   0.84529   0.09761   0.00000  Uiso   1.00
C506   C     0.71659   0.81084   0.42612   0.00000  Uiso   1.00
C507   C     0.69796   0.80517   0.47906   0.00000  Uiso   1.00
C508   C     0.80616   0.83836   0.48831   0.00000  Uiso   1.00
C509   C     0.74221   0.81856   0.00997   0.00000  Uiso   1.00
C510   C     0.73776   0.98728   0.29406   0.00000  Uiso   1.00
C511   C     0.71289   0.68528   0.34258   0.00000  Uiso   1.00
C512   C     0.97832   0.69008   0.34563   0.00000  Uiso   1.00
C513   C     0.81189   0.76529   0.07427   0.00000  Uiso   1.00
C514   C     0.82915   0.72756   0.02916   0.00000  Uiso   1.00
C515   C     0.79704   0.67065   0.04222   0.00000  Uiso   1.00
C516   C     0.82226   0.85298   0.43616   0.00000  Uiso   1.00
C517   C     0.85372   0.84820   0.01776   0.00000  Uiso   1.00
C518   C     0.91020   0.88528   0.49934   0.00000  Uiso   1.00
C519   C     0.92199   0.90552   0.45028   0.00000  Uiso   1.00
C520   C     0.87954   0.88850   0.41858   0.00000  Uiso   1.00
C521   C     0.84870   0.82192   0.06405   0.00000  Uiso   1.00
C522   C     0.94191   0.88405   0.08004   0.00000  Uiso   1.00
Cu523  Cu    0.77377   0.82772   0.24435   0.00000  Uiso   1.00
Cu524  Cu    0.89290   0.83895   0.25564   0.00000  Uiso   1.00
H525   H     0.97329   0.90140   0.10526   0.00000  Uiso   1.00
H526   H     0.90123   0.67777   0.24040   0.00000  Uiso   1.00
H527   H     0.94817   0.98421   0.34135   0.00000  Uiso   1.00
H528   H     0.95965   0.70754   0.38337   0.00000  Uiso   1.00
H529   H     0.97626   0.71575   0.31469   0.00000  Uiso   1.00
H530   H     0.71504   0.99847   0.37742   0.00000  Uiso   1.00
H531   H     0.74210   0.72528   0.34429   0.00000  Uiso   1.00
H532   H     0.70665   0.98313   0.26596   0.00000  Uiso   1.00
H533   H     0.73477   0.94769   0.30796   0.00000  Uiso   1.00
H534   H     0.80943   0.97792   0.00862   0.00000  Uiso   1.00
H535   H     0.81286   0.99128   0.07522   0.00000  Uiso   1.00
H536   H     0.66905   0.87041   0.29143   0.00000  Uiso   1.00
H537   H     0.74511   0.99987   0.05199   0.00000  Uiso   1.00
H538   H     0.81468   0.73786   0.49453   0.00000  Uiso   1.00
H539   H     0.88091   0.73050   0.01976   0.00000  Uiso   1.00
H540   H     0.82347   0.75012   0.10818   0.00000  Uiso   1.00
H541   H     0.76050   0.76244   0.08471   0.00000  Uiso   1.00
H542   H     0.99707   0.79536   0.20928   0.00000  Uiso   1.00
H543   H     0.96473   0.93401   0.43600   0.00000  Uiso   1.00
H544   H     0.99680   0.93111   0.01685   0.00000  Uiso   1.00
H545   H     0.68201   0.79758   0.40263   0.00000  Uiso   1.00
H546   H     0.72514   0.81671   0.05097   0.00000  Uiso   1.00
H547   H     0.98244   0.78985   0.49622   0.00000  Uiso   1.00
H548   H     0.89052   0.90607   0.38133   0.00000  Uiso   1.00
N549   N     0.98241   0.84741   0.26416   0.00000  Uiso   1.00
N550   N     0.68426   0.81926   0.23584   0.00000  Uiso   1.00
O551   O     0.79464   0.90474   0.24633   0.00000  Uiso   1.00
O552   O     0.89524   0.91422   0.25586   0.00000  Uiso   1.00
O553   O     0.75848   0.82627   0.31839   0.00000  Uiso   1.00
O554   O     0.85908   0.83575   0.32793   0.00000  Uiso   1.00
O555   O     0.77142   0.75245   0.24414   0.00000  Uiso   1.00
O556   O     0.87203   0.76193   0.25367   0.00000  Uiso   1.00
O557   O     0.80758   0.83092   0.17207   0.00000  Uiso   1.00
O558   O     0.90819   0.84040   0.18160   0.00000  Uiso   1.00
C559   C     0.18022   0.26654   0.75421   0.00000  Uiso   1.00
C560   C     0.11242   0.16701   0.90385   0.00000  Uiso   1.00
C561   C     0.18715   0.32233   0.75508   0.00000  Uiso   1.00
C562   C     0.13315   0.16643   0.84737   0.00000  Uiso   1.00
C563   C     0.13785   0.01266   0.76652   0.00000  Uiso   1.00
C564   C     0.15029   0.06698   0.75285   0.00000  Uiso   1.00
C565   C     0.20060   0.16999   0.65288   0.00000  Uiso   1.00
C566   C     0.28761   0.23541   0.53029   0.00000  Uiso   1.00
C567   C     0.22169   0.17862   0.59761   0.00000  Uiso   1.00
C568   C     0.04992   0.14417   0.92612   0.00000  Uiso   1.00
C569   C     0.03129   0.13850   0.97906   0.00000  Uiso   1.00
C570   C     0.13950   0.17169   0.98831   0.00000  Uiso   1.00
C571   C     0.07554   0.15189   0.50997   0.00000  Uiso   1.00
C572   C     0.07110   0.32062   0.79406   0.00000  Uiso   1.00
C573   C     0.04623   0.01861   0.84258   0.00000  Uiso   1.00
C574   C     0.31165   0.02342   0.84563   0.00000  Uiso   1.00
C575   C     0.14523   0.09863   0.57427   0.00000  Uiso   1.00
C576   C     0.16248   0.06090   0.52916   0.00000  Uiso   1.00
C577   C     0.13037   0.00399   0.54222   0.00000  Uiso   1.00
C578   C     0.15559   0.18632   0.93616   0.00000  Uiso   1.00
C579   C     0.18706   0.18154   0.51776   0.00000  Uiso   1.00
C580   C     0.24354   0.21861   0.99934   0.00000  Uiso   1.00
C581   C     0.25532   0.23886   0.95028   0.00000  Uiso   1.00
C582   C     0.21287   0.22184   0.91858   0.00000  Uiso   1.00
C583   C     0.18204   0.15525   0.56405   0.00000  Uiso   1.00
C584   C     0.27524   0.21738   0.58004   0.00000  Uiso   1.00
Cu585  Cu    0.10710   0.16105   0.74435   0.00000  Uiso   1.00
Cu586  Cu    0.22623   0.17228   0.75564   0.00000  Uiso   1.00
H587   H     0.30663   0.23473   0.60526   0.00000  Uiso   1.00
H588   H     0.23456   0.01111   0.74040   0.00000  Uiso   1.00
H589   H     0.28150   0.31754   0.84135   0.00000  Uiso   1.00
H590   H     0.29298   0.04088   0.88337   0.00000  Uiso   1.00
H591   H     0.30960   0.04908   0.81469   0.00000  Uiso   1.00
H592   H     0.04837   0.33181   0.87742   0.00000  Uiso   1.00
H593   H     0.07544   0.05862   0.84429   0.00000  Uiso   1.00
H594   H     0.03998   0.31647   0.76596   0.00000  Uiso   1.00
H595   H     0.06810   0.28102   0.80796   0.00000  Uiso   1.00
H596   H     0.14277   0.31125   0.50862   0.00000  Uiso   1.00
H597   H     0.14620   0.32462   0.57522   0.00000  Uiso   1.00
H598   H     0.00238   0.20374   0.79143   0.00000  Uiso   1.00
H599   H     0.07844   0.33320   0.55199   0.00000  Uiso   1.00
H600   H     0.14802   0.07120   0.99453   0.00000  Uiso   1.00
H601   H     0.21424   0.06384   0.51976   0.00000  Uiso   1.00
H602   H     0.15680   0.08345   0.60818   0.00000  Uiso   1.00
H603   H     0.09383   0.09578   0.58471   0.00000  Uiso   1.00
H604   H     0.33040   0.12870   0.70928   0.00000  Uiso   1.00
H605   H     0.29806   0.26735   0.93600   0.00000  Uiso   1.00
H606   H     0.33014   0.26445   0.51685   0.00000  Uiso   1.00
H607   H     0.01534   0.13092   0.90263   0.00000  Uiso   1.00
H608   H     0.05847   0.15004   0.55097   0.00000  Uiso   1.00
H609   H     0.31578   0.12318   0.99622   0.00000  Uiso   1.00
H610   H     0.22386   0.23940   0.88133   0.00000  Uiso   1.00
N611   N     0.31574   0.18074   0.76416   0.00000  Uiso   1.00
N612   N     0.01759   0.15259   0.73584   0.00000  Uiso   1.00
O613   O     0.12797   0.23807   0.74633   0.00000  Uiso   1.00
O614   O     0.22858   0.24755   0.75586   0.00000  Uiso   1.00
O615   O     0.09181   0.15960   0.81839   0.00000  Uiso   1.00
O616   O     0.19242   0.16908   0.82793   0.00000  Uiso   1.00
O617   O     0.10476   0.08578   0.74414   0.00000  Uiso   1.00
O618   O     0.20536   0.09526   0.75367   0.00000  Uiso   1.00
O619   O     0.14092   0.16425   0.67207   0.00000  Uiso   1.00
O620   O     0.24152   0.17373   0.68160   0.00000  Uiso   1.00
C621   C     0.51355   0.26654   0.75421   0.00000  Uiso   1.00
C622   C     0.44576   0.16701   0.90385   0.00000  Uiso   1.00
C623   C     0.52049   0.32233   0.75508   0.00000  Uiso   1.00
C624   C     0.46649   0.16643   0.84737   0.00000  Uiso   1.00
C625   C     0.47118   0.01266   0.76652   0.00000  Uiso   1.00
C626   C     0.48362   0.06698   0.75285   0.00000  Uiso   1.00
C627   C     0.53393   0.16999   0.65288   0.00000  Uiso   1.00
C628   C     0.62095   0.23541   0.53029   0.00000  Uiso   1.00
C629   C     0.55502   0.17862   0.59761   0.00000  Uiso   1.00
C630   C     0.38326   0.14417   0.92612   0.00000  Uiso   1.00
C631   C     0.36463   0.13850   0.97906   0.00000  Uiso   1.00
C632   C     0.47283   0.17169   0.98831   0.00000  Uiso   1.00
C633   C     0.40888   0.15189   0.50997   0.00000  Uiso   1.00
C634   C     0.40443   0.32062   0.79406   0.00000  Uiso   1.00
C635   C     0.37956   0.01861   0.84258   0.00000  Uiso   1.00
C636   C     0.64498   0.02342   0.84563   0.00000  Uiso   1.00
C637   C     0.47856   0.09863   0.57427   0.00000  Uiso   1.00
C638   C     0.49581   0.06090   0.52916   0.00000  Uiso   1.00
C639   C     0.46371   0.00399   0.54222   0.00000  Uiso   1.00
C640   C     0.48892   0.18632   0.93616   0.00000  Uiso   1.00
C641   C     0.52039   0.18154   0.51776   0.00000  Uiso   1.00
C642   C     0.57687   0.21861   0.99934   0.00000  Uiso   1.00
C643   C     0.58865   0.23886   0.95028   0.00000  Uiso   1.00
C644   C     0.54620   0.22184   0.91858   0.00000  Uiso   1.00
C645   C     0.51537   0.15525   0.56405   0.00000  Uiso   1.00
C646   C     0.60858   0.21738   0.58004   0.00000  Uiso   1.00
Cu647  Cu    0.44043   0.16105   0.74435   0.00000  Uiso   1.00
Cu648  Cu    0.55957   0.17228   0.75564   0.00000  Uiso   1.00
H649   H     0.63996   0.23473   0.60526   0.00000  Uiso   1.00
H650   H     0.56790   0.01111   0.74040   0.00000  Uiso   1.00
H651   H     0.61483   0.31754   0.84135   0.00000  Uiso   1.00
H652   H     0.62631   0.04088   0.88337   0.00000  Uiso   1.00
H653   H     0.64293   0.04908   0.81469   0.00000  Uiso   1.00
H654   H     0.38171   0.33181   0.87742   0.00000  Uiso   1.00
H655   H     0.40877   0.05862   0.84429   0.00000  Uiso   1.00
H656   H     0.37331   0.31647   0.76596   0.00000  Uiso   1.00
H657   H     0.40143   0.28102   0.80796   0.00000  Uiso   1.00
H658   H     0.47610   0.31125   0.50862   0.00000  Uiso   1.00
H659   H     0.47953   0.32462   0.57522   0.00000  Uiso   1.00
H660   H     0.33571   0.20374   0.79143   0.00000  Uiso   1.00
H661   H     0.41178   0.33320   0.55199   0.00000  Uiso   1.00
H662   H     0.48135   0.07120   0.99453   0.00000  Uiso   1.00
H663   H     0.54758   0.06384   0.51976   0.00000  Uiso   1.00
H664   H     0.49013   0.08345   0.60818   0.00000  Uiso   1.00
H665   H     0.42717   0.09578   0.58471   0.00000  Uiso   1.00
H666   H     0.66374   0.12870   0.70928   0.00000  Uiso   1.00
H667   H     0.63140   0.26735   0.93600   0.00000  Uiso   1.00
H668   H     0.66347   0.26445   0.51685   0.00000  Uiso   1.00
H669   H     0.34868   0.13092   0.90263   0.00000  Uiso   1.00
H670   H     0.39180   0.15004   0.55097   0.00000  Uiso   1.00
H671   H     0.64911   0.12318   0.99622   0.00000  Uiso   1.00
H672   H     0.55719   0.23940   0.88133   0.00000  Uiso   1.00
N673   N     0.64908   0.18074   0.76416   0.00000  Uiso   1.00
N674   N     0.35092   0.15259   0.73584   0.00000  Uiso   1.00
O675   O     0.46131   0.23807   0.74633   0.00000  Uiso   1.00
O676   O     0.56191   0.24755   0.75586   0.00000  Uiso   1.00
O677   O     0.42515   0.15960   0.81839   0.00000  Uiso   1.00
O678   O     0.52575   0.16908   0.82793   0.00000  Uiso   1.00
O679   O     0.43809   0.08578   0.74414   0.00000  Uiso   1.00
O680   O     0.53869   0.09526   0.75367   0.00000  Uiso   1.00
O681   O     0.47425   0.16425   0.67207   0.00000  Uiso   1.00
O682   O     0.57485   0.17373   0.68160   0.00000  Uiso   1.00
C683   C     0.84688   0.26654   0.75421   0.00000  Uiso   1.00
C684   C     0.77909   0.16701   0.90385   0.00000  Uiso   1.00
C685   C     0.85382   0.32233   0.75508   0.00000  Uiso   1.00
C686   C     0.79982   0.16643   0.84737   0.00000  Uiso   1.00
C687   C     0.80451   0.01266   0.76652   0.00000  Uiso   1.00
C688   C     0.81696   0.06698   0.75285   0.00000  Uiso   1.00
C689   C     0.86726   0.16999   0.65288   0.00000  Uiso   1.00
C690   C     0.95428   0.23541   0.53029   0.00000  Uiso   1.00
C691   C     0.88835   0.17862   0.59761   0.00000  Uiso   1.00
C692   C     0.71659   0.14417   0.92612   0.00000  Uiso   1.00
C693   C     0.69796   0.13850   0.97906   0.00000  Uiso   1.00
C694   C     0.80616   0.17169   0.98831   0.00000  Uiso   1.00
C695   C     0.74221   0.15189   0.50997   0.00000  Uiso   1.00
C696   C     0.73776   0.32062   0.79406   0.00000  Uiso   1.00
C697   C     0.71289   0.01861   0.84258   0.00000  Uiso   1.00
C698   C     0.97832   0.02342   0.84563   0.00000  Uiso   1.00
C699   C     0.81189   0.09863   0.57427   0.00000  Uiso   1.00
C700   C     0.82915   0.06090   0.52916   0.00000  Uiso   1.00
C701   C     0.79704   0.00399   0.54222   0.00000  Uiso   1.00
C702   C     0.82226   0.18632   0.93616   0.00000  Uiso   1.00
C703   C     0.85372   0.18154   0.51776   0.00000  Uiso   1.00
C704   C     0.91020   0.21861   0.99934   0.00000  Uiso   1.00
C705   C     0.92199   0.23886   0.95028   0.00000  Uiso   1.00
C706   C     0.87954   0.22184   0.91858   0.00000  Uiso   1.00
C707   C     0.84870   0.15525   0.56405   0.00000  Uiso   1.00
C708   C     0.94191   0.21738   0.58004   0.00000  Uiso   1.00
Cu709  Cu    0.77377   0.16105   0.74435   0.00000  Uiso   1.00
Cu710  Cu    0.89290   0.17228   0.75564   0.00000  Uiso   1.00
H711   H     0.97329   0.23473   0.60526   0.00000  Uiso   1.00
H712   H     0.90123   0.01111   0.74040   0.00000  Uiso   1.00
H713   H     0.94817   0.31754   0.84135   0.00000  Uiso   1.00
H714   H     0.95965   0.04088   0.88337   0.00000  Uiso   1.00
H715   H     0.97626   0.04908   0.81469   0.00000  Uiso   1.00
H716   H     0.71504   0.33181   0.87742   0.00000  Uiso   1.00
H717   H     0.74210   0.05862   0.84429   0.00000  Uiso   1.00
H718   H     0.70665   0.31647   0.76596   0.00000  Uiso   1.00
H719   H     0.73477   0.28102   0.80796   0.00000  Uiso   1.00
H720   H     0.80943   0.31125   0.50862   0.00000  Uiso   1.00
H721   H     0.81286   0.32462   0.57522   0.00000  Uiso   1.00
H722   H     0.66905   0.20374   0.79143   0.00000  Uiso   1.00
H723   H     0.74511   0.33320   0.55199   0.00000  Uiso   1.00
H724   H     0.81468   0.07120   0.99453   0.00000  Uiso   1.00
H725   H     0.88091   0.06384   0.51976   0.00000  Uiso   1.00
H726   H     0.82347   0.08345   0.60818   0.00000  Uiso   1.00
H727   H     0.76050   0.09578   0.58471   0.00000  Uiso   1.00
H728   H     0.99707   0.12870   0.70928   0.00000  Uiso   1.00
H729   H     0.96473   0.26735   0.93600   0.00000  Uiso   1.00
H730   H     0.99680   0.26445   0.51685   0.00000  Uiso   1.00
H731   H     0.68201   0.13092   0.90263   0.00000  Uiso   1.00
H732   H     0.72514   0.15004   0.55097   0.00000  Uiso   1.00
H733   H     0.98244   0.12318   0.99622   0.00000  Uiso   1.00
H734   H     0.89052   0.23940   0.88133   0.00000  Uiso   1.00
N735   N     0.98241   0.18074   0.76416   0.00000  Uiso   1.00
N736   N     0.68426   0.15259   0.73584   0.00000  Uiso   1.00
O737   O     0.79464   0.23807   0.74633   0.00000  Uiso   1.00
O738   O     0.89524   0.24755   0.75586   0.00000  Uiso   1.00
O739   O     0.75848   0.15960   0.81839   0.00000  Uiso   1.00
O740   O     0.85908   0.16908   0.82793   0.00000  Uiso   1.00
O741   O     0.77142   0.08578   0.74414   0.00000  Uiso   1.00
O742   O     0.87203   0.09526   0.75367   0.00000  Uiso   1.00
O743   O     0.80758   0.16425   0.67207   0.00000  Uiso   1.00
O744   O     0.90819   0.17373   0.68160   0.00000  Uiso   1.00
C745   C     0.18022   0.59988   0.75421   0.00000  Uiso   1.00
C746   C     0.11242   0.50034   0.90385   0.00000  Uiso   1.00
C747   C     0.18715   0.65566   0.75508   0.00000  Uiso   1.00
C748   C     0.13315   0.49976   0.84737   0.00000  Uiso   1.00
C749   C     0.13785   0.34600   0.76652   0.00000  Uiso   1.00
C750   C     0.15029   0.40031   0.75285   0.00000  Uiso   1.00
C751   C     0.20060   0.50333   0.65288   0.00000  Uiso   1.00
C752   C     0.28761   0.56875   0.53029   0.00000  Uiso   1.00
C753   C     0.22169   0.51195   0.59761   0.00000  Uiso   1.00
C754   C     0.04992   0.47750   0.92612   0.00000  Uiso   1.00
C755   C     0.03129   0.47184   0.97906   0.00000  Uiso   1.00
C756   C     0.13950   0.50503   0.98831   0.00000  Uiso   1.00
C757   C     0.07554   0.48523   0.50997   0.00000  Uiso   1.00
C758   C     0.07110   0.65395   0.79406   0.00000  Uiso   1.00
C759   C     0.04623   0.35194   0.84258   0.00000  Uiso   1.00
C760   C     0.31165   0.35675   0.84563   0.00000  Uiso   1.00
C761   C     0.14523   0.43196   0.57427   0.00000  Uiso   1.00
C762   C     0.16248   0.39423   0.52916   0.00000  Uiso   1.00
C763   C     0.13037   0.33732   0.54222   0.00000  Uiso   1.00
C764   C     0.15559   0.51965   0.93616   0.00000  Uiso   1.00
C765   C     0.18706   0.51487   0.51776   0.00000  Uiso   1.00
C766   C     0.24354   0.55195   0.99934   0.00000  Uiso   1.00
C767   C     0.25532   0.57219   0.95028   0.00000  Uiso   1.00
C768   C     0.21287   0.55517   0.91858   0.00000  Uiso   1.00
C769   C     0.18204   0.48858   0.56405   0.00000  Uiso   1.00
C770   C     0.27524   0.55071   0.58004   0.00000  Uiso   1.00
Cu771  Cu    0.10710   0.49439   0.74435   0.00000  Uiso   1.00
Cu772  Cu    0.22623   0.50561   0.75564   0.00000  Uiso   1.00
H773   H     0.30663   0.56806   0.60526   0.00000  Uiso   1.00
H774   H     0.23456   0.34444   0.74040   0.00000  Uiso   1.00
H775   H     0.28150   0.65087   0.84135   0.00000  Uiso   1.00
H776   H     0.29298   0.37421   0.88337   0.00000  Uiso   1.00
H777   H     0.30960   0.38242   0.81469   0.00000  Uiso   1.00
H778   H     0.04837   0.66514   0.87742   0.00000  Uiso   1.00
H779   H     0.07544   0.39195   0.84429   0.00000  Uiso   1.00
H780   H     0.03998   0.64980   0.76596   0.00000  Uiso   1.00
H781   H     0.06810   0.61436   0.80796   0.00000  Uiso   1.00
H782   H     0.14277   0.64458   0.50862   0.00000  Uiso   1.00
H783   H     0.14620   0.65795   0.57522   0.00000  Uiso   1.00
H784   H     0.00238   0.53707   0.79143   0.00000  Uiso   1.00
H785   H     0.07844   0.66653   0.55199   0.00000  Uiso   1.00
H786   H     0.14802   0.40453   0.99453   0.00000  Uiso   1.00
H787   H     0.21424   0.39717   0.51976   0.00000  Uiso   1.00
H788   H     0.15680   0.41678   0.60818   0.00000  Uiso   1.00
H789   H     0.09383   0.42911   0.58471   0.00000  Uiso   1.00
H790   H     0.33040   0.46203   0.70928   0.00000  Uiso   1.00
H791   H     0.29806   0.60068   0.93600   0.00000  Uiso   1.00
H792   H     0.33014   0.59778   0.51685   0.00000  Uiso   1.00
H793   H     0.01534   0.46425   0.90263   0.00000  Uiso   1.00
H794   H     0.05847   0.48337   0.55097   0.00000  Uiso   1.00
H795   H     0.31578   0.45652   0.99622   0.00000  Uiso   1.00
H796   H     0.22386   0.57274   0.88133   0.00000  Uiso   1.00
N797   N     0.31574   0.51407   0.76416   0.00000  Uiso   1.00
N798   N     0.01759   0.48593   0.73584   0.00000  Uiso   1.00
O799   O     0.12797   0.57141   0.74633   0.00000  Uiso   1.00
O800   O     0.22858   0.58089   0.75586   0.00000  Uiso   1.00
O801   O     0.09181   0.49293   0.81839   0.00000  Uiso   1.00
O802   O     0.19242   0.50241   0.82793   0.00000  Uiso   1.00
O803   O     0.10476   0.41911   0.74414   0.00000  Uiso   1.00
O804   O     0.20536   0.42859   0.75367   0.00000  Uiso   1.00
O805   O     0.14092   0.49759   0.67207   0.00000  Uiso   1.00
O806   O     0.24152   0.50707   0.68160   0.00000  Uiso   1.00
C807   C     0.51355   0.59988   0.75421   0.00000  Uiso   1.00
C808   C     0.44576   0.50034   0.90385   0.00000  Uiso   1.00
C809   C     0.52049   0.65566   0.75508   0.00000  Uiso   1.00
C810   C     0.46649   0.49976   0.84737   0.00000  Uiso   1.00
C811   C     0.47118   0.34600   0.76652   0.00000  Uiso   1.00
C812   C     0.48362   0.40031   0.75285   0.00000  Uiso   1.00
C813   C     0.53393   0.50333   0.65288   0.00000  Uiso   1.00
C814   C     0.62095   0.56875   0.53029   0.00000  Uiso   1.00
C815   C     0.55502   0.51195   0.59761   0.00000  Uiso   1.00
C816   C     0.38326   0.47750   0.92612   0.00000  Uiso   1.00
C817   C     0.36463   0.47184   0.97906   0.00000  Uiso   1.00
C818   C     0.47283   0.50503   0.98831   0.00000  Uiso   1.00
C819   C     0.40888   0.48523   0.50997   0.00000  Uiso   1.00
C820   C     0.40443   0.65395   0.79406   0.00000  Uiso   1.00
C821   C     0.37956   0.35194   0.84258   0.00000  Uiso   1.00
C822   C     0.64498   0.35675   0.84563   0.00000  Uiso   1.00
C823   C     0.47856   0.43196   0.57427   0.00000  Uiso   1.00
C824   C     0.49581   0.39423   0.52916   0.00000  Uiso   1.00
C825   C     0.46371   0.33732   0.54222   0.00000  Uiso   1.00
C826   C     0.48892   0.51965   0.93616   0.00000  Uiso   1.00
C827   C     0.52039   0.51487   0.51776   0.00000  Uiso   1.00
C828   C     0.57687   0.55195   0.99934   0.00000  Uiso   1.00
C829   C     0.58865   0.57219   0.95028   0.00000  Uiso   1.00
C830   C     0.54620   0.55517   0.91858   0.00000  Uiso   1.00
C831   C     0.51537   0.48858   0.56405   0.00000  Uiso   1.00
C832   C     0.60858   0.55071   0.58004   0.00000  Uiso   1.00
Cu833  Cu    0.44043   0.49439   0.74435   0.00000  Uiso   1.00
Cu834  Cu    0.55957   0.50561   0.75564   0.00000  Uiso   1.00
H835   H     0.63996   0.56806   0.60526   0.00000  Uiso   1.00
H836   H     0.56790   0.34444   0.74040   0.00000  Uiso   1.00
H837   H     0.61483   0.65087   0.84135   0.00000  Uiso   1.00
H838   H     0.62631   0.37421   0.88337   0.00000  Uiso   1.00
H839   H     0.64293   0.38242   0.81469   0.00000  Uiso   1.00
H840   H     0.38171   0.66514   0.87742   0.00000  Uiso   1.00
H841   H     0.40877   0.39195   0.84429   0.00000  Uiso   1.00
H842   H     0.37331   0.64980   0.76596   0.00000  Uiso   1.00
H843   H     0.40143   0.61436   0.80796   0.00000  Uiso   1.00
H844   H     0.47610   0.64458   0.50862   0.00000  Uiso   1.00
H845   H     0.47953   0.65795   0.57522   0.00000  Uiso   1.00
H846   H     0.33571   0.53707   0.79143   0.00000  Uiso   1.00
H847   H     0.41178   0.66653   0.55199   0.00000  Uiso   1.00
H848   H     0.48135   0.40453   0.99453   0.00000  Uiso   1.00
H849   H     0.54758   0.39717   0.51976   0.00000  Uiso   1.00
H850   H     0.49013   0.41678   0.60818   0.00000  Uiso   1.00
H851   H     0.42717   0.42911   0.58471   0.00000  Uiso   1.00
H852   H     0.66374   0.46203   0.70928   0.00000  Uiso   1.00
H853   H     0.63140   0.60068   0.93600   0.00000  Uiso   1.00
H854   H     0.66347   0.59778   0.51685   0.00000  Uiso   1.00
H855   H     0.34868   0.46425   0.90263   0.00000  Uiso   1.00
H856   H     0.39180   0.48337   0.55097   0.00000  Uiso   1.00
H857   H     0.64911   0.45652   0.99622   0.00000  Uiso   1.00
H858   H     0.55719   0.57274   0.88133   0.00000  Uiso   1.00
N859   N     0.64908   0.51407   0.76416   0.00000  Uiso   1.00
N860   N     0.35092   0.48593   0.73584   0.00000  Uiso   1.00
O861   O     0.46131   0.57141   0.74633   0.00000  Uiso   1.00
O862   O     0.56191   0.58089   0.75586   0.00000  Uiso   1.00
O863   O     0.42515   0.49293   0.81839   0.00000  Uiso   1.00
O864   O     0.52575   0.50241   0.82793   0.00000  Uiso   1.00
O865   O     0.43809   0.41911   0.74414   0.00000  Uiso   1.00
O866   O     0.53869   0.42859   0.75367   0.00000  Uiso   1.00
O867   O     0.47425   0.49759   0.67207   0.00000  Uiso   1.00
O868   O     0.57485   0.50707   0.68160   0.00000  Uiso   1.00
C869   C     0.84688   0.59988   0.75421   0.00000  Uiso   1.00
C870   C     0.77909   0.50034   0.90385   0.00000  Uiso   1.00
C871   C     0.85382   0.65566   0.75508   0.00000  Uiso   1.00
C872   C     0.79982   0.49976   0.84737   0.00000  Uiso   1.00
C873   C     0.80451   0.34600   0.76652   0.00000  Uiso   1.00
C874   C     0.81696   0.40031   0.75285   0.00000  Uiso   1.00
C875   C     0.86726   0.50333   0.65288   0.00000  Uiso   1.00
C876   C     0.95428   0.56875   0.53029   0.00000  Uiso   1.00
C877   C     0.88835   0.51195   0.59761   0.00000  Uiso   1.00
C878   C     0.71659   0.47750   0.92612   0.00000  Uiso   1.00
C879   C     0.69796   0.47184   0.97906   0.00000  Uiso   1.00
C880   C     0.80616   0.50503   0.98831   0.00000  Uiso   1.00
C881   C     0.74221   0.48523   0.50997   0.00000  Uiso   1.00
C882   C     0.73776   0.65395   0.79406   0.00000  Uiso   1.00
C883   C     0.71289   0.35194   0.84258   0.00000  Uiso   1.00
C884   C     0.97832   0.35675   0.84563   0.00000  Uiso   1.00
C885   C     0.81189   0.43196   0.57427   0.00000  Uiso   1.00
C886   C     0.82915   0.39423   0.52916   0.00000  Uiso   1.00
C887   C     0.79704   0.33732   0.54222   0.00000  Uiso   1.00
C888   C     0.82226   0.51965   0.93616   0.00000  Uiso   1.00
C889   C     0.85372   0.51487   0.51776   0.00000  Uiso   1.00
C890   C     0.91020   0.55195   0.99934   0.00000  Uiso   1.00
C891   C     0.92199   0.57219   0.95028   0.00000  Uiso   1.00
C892   C     0.87954   0.55517   0.91858   0.00000  Uiso   1.00
C893   C     0.84870   0.48858   0.56405   0.00000  Uiso   1.00
C894   C     0.94191   0.55071   0.58004   0.00000  Uiso   1.00
Cu895  Cu    0.77377   0.49439   0.74435   0.00000  Uiso   1.00
Cu896  Cu    0.89290   0.50561   0.75564   0.00000  Uiso   1.00
H897   H     0.97329   0.56806   0.60526   0.00000  Uiso   1.00
H898   H     0.90123   0.34444   0.74040   0.00000  Uiso   1.00
H899   H     0.94817   0.65087   0.84135   0.00000  Uiso   1.00
H900   H     0.95965   0.37421   0.88337   0.00000  Uiso   1.00
H901   H     0.97626   0.38242   0.81469   0.00000  Uiso   1.00
H902   H     0.71504   0.66514   0.87742   0.00000  Uiso   1.00
H903   H     0.74210   0.39195   0.84429   0.00000  Uiso   1.00
H904   H     0.70665   0.64980   0.76596   0.00000  Uiso   1.00
H905   H     0.73477   0.61436   0.80796   0.00000  Uiso   1.00
H906   H     0.80943   0.64458   0.50862   0.00000  Uiso   1.00
H907   H     0.81286   0.65795   0.57522   0.00000  Uiso   1.00
H908   H     0.66905   0.53707   0.79143   0.00000  Uiso   1.00
H909   H     0.74511   0.66653   0.55199   0.00000  Uiso   1.00
H910   H     0.81468   0.40453   0.99453   0.00000  Uiso   1.00
H911   H     0.88091   0.39717   0.51976   0.00000  Uiso   1.00
H912   H     0.82347   0.41678   0.60818   0.00000  Uiso   1.00
H913   H     0.76050   0.42911   0.58471   0.00000  Uiso   1.00
H914   H     0.99707   0.46203   0.70928   0.00000  Uiso   1.00
H915   H     0.96473   0.60068   0.93600   0.00000  Uiso   1.00
H916   H     0.99680   0.59778   0.51685   0.00000  Uiso   1.00
H917   H     0.68201   0.46425   0.90263   0.00000  Uiso   1.00
H918   H     0.72514   0.48337   0.55097   0.00000  Uiso   1.00
H919   H     0.98244   0.45652   0.99622   0.00000  Uiso   1.00
H920   H     0.89052   0.57274   0.88133   0.00000  Uiso   1.00
N921   N     0.98241   0.51407   0.76416   0.00000  Uiso   1.00
N922   N     0.68426   0.48593   0.73584   0.00000  Uiso   1.00
O923   O     0.79464   0.57141   0.74633   0.00000  Uiso   1.00
O924   O     0.89524   0.58089   0.75586   0.00000  Uiso   1.00
O925   O     0.75848   0.49293   0.81839   0.00000  Uiso   1.00
O926   O     0.85908   0.50241   0.82793   0.00000  Uiso   1.00
O927   O     0.77142   0.41911   0.74414   0.00000  Uiso   1.00
O928   O     0.87203   0.42859   0.75367   0.00000  Uiso   1.00
O929   O     0.80758   0.49759   0.67207   0.00000  Uiso   1.00
O930   O     0.90819   0.50707   0.68160   0.00000  Uiso   1.00
C931   C     0.18022   0.93321   0.75421   0.00000  Uiso   1.00
C932   C     0.11242   0.83367   0.90385   0.00000  Uiso   1.00
C933   C     0.18715   0.98900   0.75508   0.00000  Uiso   1.00
C934   C     0.13315   0.83310   0.84737   0.00000  Uiso   1.00
C935   C     0.13785   0.67933   0.76652   0.00000  Uiso   1.00
C936   C     0.15029   0.73365   0.75285   0.00000  Uiso   1.00
C937   C     0.20060   0.83666   0.65288   0.00000  Uiso   1.00
C938   C     0.28761   0.90208   0.53029   0.00000  Uiso   1.00
C939   C     0.22169   0.84529   0.59761   0.00000  Uiso   1.00
C940   C     0.04992   0.81084   0.92612   0.00000  Uiso   1.00
C941   C     0.03129   0.80517   0.97906   0.00000  Uiso   1.00
C942   C     0.13950   0.83836   0.98831   0.00000  Uiso   1.00
C943   C     0.07554   0.81856   0.50997   0.00000  Uiso   1.00
C944   C     0.07110   0.98728   0.79406   0.00000  Uiso   1.00
C945   C     0.04623   0.68528   0.84258   0.00000  Uiso   1.00
C946   C     0.31165   0.69008   0.84563   0.00000  Uiso   1.00
C947   C     0.14523   0.76529   0.57427   0.00000  Uiso   1.00
C948   C     0.16248   0.72756   0.52916   0.00000  Uiso   1.00
C949   C     0.13037   0.67065   0.54222   0.00000  Uiso   1.00
C950   C     0.15559   0.85298   0.93616   0.00000  Uiso   1.00
C951   C     0.18706   0.84820   0.51776   0.00000  Uiso   1.00
C952   C     0.24354   0.88528   0.99934   0.00000  Uiso   1.00
C953   C     0.25532   0.90552   0.95028   0.00000  Uiso   1.00
C954   C     0.21287   0.88850   0.91858   0.00000  Uiso   1.00
C955   C     0.18204   0.82192   0.56405   0.00000  Uiso   1.00
C956   C     0.27524   0.88405   0.58004   0.00000  Uiso   1.00
Cu957  Cu    0.10710   0.82772   0.74435   0.00000  Uiso   1.00
Cu958  Cu    0.22623   0.83895   0.75564   0.00000  Uiso   1.00
H959   H     0.30663   0.90140   0.60526   0.00000  Uiso   1.00
H960   H     0.23456   0.67777   0.74040   0.00000  Uiso   1.00
H961   H     0.28150   0.98421   0.84135   0.00000  Uiso   1.00
H962   H     0.29298   0.70754   0.88337   0.00000  Uiso   1.00
H963   H     0.30960   0.71575   0.81469   0.00000  Uiso   1.00
H964   H     0.04837   0.99847   0.87742   0.00000  Uiso   1.00
H965   H     0.07544   0.72528   0.84429   0.00000  Uiso   1.00
H966   H     0.03998   0.98313   0.76596   0.00000  Uiso   1.00
H967   H     0.06810   0.94769   0.80796   0.00000  Uiso   1.00
H968   H     0.14277   0.97792   0.50862   0.00000  Uiso   1.00
H969   H     0.14620   0.99128   0.57522   0.00000  Uiso   1.00
H970   H     0.00238   0.87041   0.79143   0.00000  Uiso   1.00
H971   H     0.07844   0.99987   0.55199   0.00000  Uiso   1.00
H972   H     0.14802   0.73786   0.99453   0.00000  Uiso   1.00
H973   H     0.21424   0.73050   0.51976   0.00000  Uiso   1.00
H974   H     0.15680   0.75012   0.60818   0.00000  Uiso   1.00
H975   H     0.09383   0.76244   0.58471   0.00000  Uiso   1.00
H976   H     0.33040   0.79536   0.70928   0.00000  Uiso   1.00
H977   H     0.29806   0.93401   0.93600   0.00000  Uiso   1.00
H978   H     0.33014   0.93111   0.51685   0.00000  Uiso   1.00
H979   H     0.01534   0.79758   0.90263   0.00000  Uiso   1.00
H980   H     0.05847   0.81671   0.55097   0.00000  Uiso   1.00
H981   H     0.31578   0.78985   0.99622   0.00000  Uiso   1.00
H982   H     0.22386   0.90607   0.88133   0.00000  Uiso   1.00
N983   N     0.31574   0.84741   0.76416   0.00000  Uiso   1.00
N984   N     0.01759   0.81926   0.73584   0.00000  Uiso   1.00
O985   O     0.12797   0.90474   0.74633   0.00000  Uiso   1.00
O986   O     0.22858   0.91422   0.75586   0.00000  Uiso   1.00
O987   O     0.09181   0.82627   0.81839   0.00000  Uiso   1.00
O988   O     0.19242   0.83575   0.82793   0.00000  Uiso   1.00
O989   O     0.10476   0.75245   0.74414   0.00000  Uiso   1.00
O990   O     0.20536   0.76193   0.75367   0.00000  Uiso   1.00
O991   O     0.14092   0.83092   0.67207   0.00000  Uiso   1.00
O992   O     0.24152   0.84040   0.68160   0.00000  Uiso   1.00
C993   C     0.51355   0.93321   0.75421   0.00000  Uiso   1.00
C994   C     0.44576   0.83367   0.90385   0.00000  Uiso   1.00
C995   C     0.52049   0.98900   0.75508   0.00000  Uiso   1.00
C996   C     0.46649   0.83310   0.84737   0.00000  Uiso   1.00
C997   C     0.47118   0.67933   0.76652   0.00000  Uiso   1.00
C998   C     0.48362   0.73365   0.75285   0.00000  Uiso   1.00
C999   C     0.53393   0.83666   0.65288   0.00000  Uiso   1.00
C1000  C     0.62095   0.90208   0.53029   0.00000  Uiso   1.00
C1001  C     0.55502   0.84529   0.59761   0.00000  Uiso   1.00
C1002  C     0.38326   0.81084   0.92612   0.00000  Uiso   1.00
C1003  C     0.36463   0.80517   0.97906   0.00000  Uiso   1.00
C1004  C     0.47283   0.83836   0.98831   0.00000  Uiso   1.00
C1005  C     0.40888   0.81856   0.50997   0.00000  Uiso   1.00
C1006  C     0.40443   0.98728   0.79406   0.00000  Uiso   1.00
C1007  C     0.37956   0.68528   0.84258   0.00000  Uiso   1.00
C1008  C     0.64498   0.69008   0.84563   0.00000  Uiso   1.00
C1009  C     0.47856   0.76529   0.57427   0.00000  Uiso   1.00
C1010  C     0.49581   0.72756   0.52916   0.00000  Uiso   1.00
C1011  C     0.46371   0.67065   0.54222   0.00000  Uiso   1.00
C1012  C     0.48892   0.85298   0.93616   0.00000  Uiso   1.00
C1013  C     0.52039   0.84820   0.51776   0.00000  Uiso   1.00
C1014  C     0.57687   0.88528   0.99934   0.00000  Uiso   1.00
C1015  C     0.58865   0.90552   0.95028   0.00000  Uiso   1.00
C1016  C     0.54620   0.88850   0.91858   0.00000  Uiso   1.00
C1017  C     0.51537   0.82192   0.56405   0.00000  Uiso   1.00
C1018  C     0.60858   0.88405   0.58004   0.00000  Uiso   1.00
Cu1019 Cu    0.44043   0.82772   0.74435   0.00000  Uiso   1.00
Cu1020 Cu    0.55957   0.83895   0.75564   0.00000  Uiso   1.00
H1021  H     0.63996   0.90140   0.60526   0.00000  Uiso   1.00
H1022  H     0.56790   0.67777   0.74040   0.00000  Uiso   1.00
H1023  H     0.61483   0.98421   0.84135   0.00000  Uiso   1.00
H1024  H     0.62631   0.70754   0.88337   0.00000  Uiso   1.00
H1025  H     0.64293   0.71575   0.81469   0.00000  Uiso   1.00
H1026  H     0.38171   0.99847   0.87742   0.00000  Uiso   1.00
H1027  H     0.40877   0.72528   0.84429   0.00000  Uiso   1.00
H1028  H     0.37331   0.98313   0.76596   0.00000  Uiso   1.00
H1029  H     0.40143   0.94769   0.80796   0.00000  Uiso   1.00
H1030  H     0.47610   0.97792   0.50862   0.00000  Uiso   1.00
H1031  H     0.47953   0.99128   0.57522   0.00000  Uiso   1.00
H1032  H     0.33571   0.87041   0.79143   0.00000  Uiso   1.00
H1033  H     0.41178   0.99987   0.55199   0.00000  Uiso   1.00
H1034  H     0.48135   0.73786   0.99453   0.00000  Uiso   1.00
H1035  H     0.54758   0.73050   0.51976   0.00000  Uiso   1.00
H1036  H     0.49013   0.75012   0.60818   0.00000  Uiso   1.00
H1037  H     0.42717   0.76244   0.58471   0.00000  Uiso   1.00
H1038  H     0.66374   0.79536   0.70928   0.00000  Uiso   1.00
H1039  H     0.63140   0.93401   0.93600   0.00000  Uiso   1.00
H1040  H     0.66347   0.93111   0.51685   0.00000  Uiso   1.00
H1041  H     0.34868   0.79758   0.90263   0.00000  Uiso   1.00
H1042  H     0.39180   0.81671   0.55097   0.00000  Uiso   1.00
H1043  H     0.64911   0.78985   0.99622   0.00000  Uiso   1.00
H1044  H     0.55719   0.90607   0.88133   0.00000  Uiso   1.00
N1045  N     0.64908   0.84741   0.76416   0.00000  Uiso   1.00
N1046  N     0.35092   0.81926   0.73584   0.00000  Uiso   1.00
O1047  O     0.46131   0.90474   0.74633   0.00000  Uiso   1.00
O1048  O     0.56191   0.91422   0.75586   0.00000  Uiso   1.00
O1049  O     0.42515   0.82627   0.81839   0.00000  Uiso   1.00
O1050  O     0.52575   0.83575   0.82793   0.00000  Uiso   1.00
O1051  O     0.43809   0.75245   0.74414   0.00000  Uiso   1.00
O1052  O     0.53869   0.76193   0.75367   0.00000  Uiso   1.00
O1053  O     0.47425   0.83092   0.67207   0.00000  Uiso   1.00
O1054  O     0.57485   0.84040   0.68160   0.00000  Uiso   1.00
C1055  C     0.84688   0.93321   0.75421   0.00000  Uiso   1.00
C1056  C     0.77909   0.83367   0.90385   0.00000  Uiso   1.00
C1057  C     0.85382   0.98900   0.75508   0.00000  Uiso   1.00
C1058  C     0.79982   0.83310   0.84737   0.00000  Uiso   1.00
C1059  C     0.80451   0.67933   0.76652   0.00000  Uiso   1.00
C1060  C     0.81696   0.73365   0.75285   0.00000  Uiso   1.00
C1061  C     0.86726   0.83666   0.65288   0.00000  Uiso   1.00
C1062  C     0.95428   0.90208   0.53029   0.00000  Uiso   1.00
C1063  C     0.88835   0.84529   0.59761   0.00000  Uiso   1.00
C1064  C     0.71659   0.81084   0.92612   0.00000  Uiso   1.00
C1065  C     0.69796   0.80517   0.97906   0.00000  Uiso   1.00
C1066  C     0.80616   0.83836   0.98831   0.00000  Uiso   1.00
C1067  C     0.74221   0.81856   0.50997   0.00000  Uiso   1.00
C1068  C     0.73776   0.98728   0.79406   0.00000  Uiso   1.00
C1069  C     0.71289   0.68528   0.84258   0.00000  Uiso   1.00
C1070  C     0.97832   0.69008   0.84563   0.00000  Uiso   1.00
C1071  C     0.81189   0.76529   0.57427   0.00000  Uiso   1.00
C1072  C     0.82915   0.72756   0.52916   0.00000  Uiso   1.00
C1073  C     0.79704   0.67065   0.54222   0.00000  Uiso   1.00
C1074  C     0.82226   0.85298   0.93616   0.00000  Uiso   1.00
C1075  C     0.85372   0.84820   0.51776   0.00000  Uiso   1.00
C1076  C     0.91020   0.88528   0.99934   0.00000  Uiso   1.00
C1077  C     0.92199   0.90552   0.95028   0.00000  Uiso   1.00
C1078  C     0.87954   0.88850   0.91858   0.00000  Uiso   1.00
C1079  C     0.84870   0.82192   0.56405   0.00000  Uiso   1.00
C1080  C     0.94191   0.88405   0.58004   0.00000  Uiso   1.00
Cu1081 Cu    0.77377   0.82772   0.74435   0.00000  Uiso   1.00
Cu1082 Cu    0.89290   0.83895   0.75564   0.00000  Uiso   1.00
H1083  H     0.97329   0.90140   0.60526   0.00000  Uiso   1.00
H1084  H     0.90123   0.67777   0.74040   0.00000  Uiso   1.00
H1085  H     0.94817   0.98421   0.84135   0.00000  Uiso   1.00
H1086  H     0.95965   0.70754   0.88337   0.00000  Uiso   1.00
H1087  H     0.97626   0.71575   0.81469   0.00000  Uiso   1.00
H1088  H     0.71504   0.99847   0.87742   0.00000  Uiso   1.00
H1089  H     0.74210   0.72528   0.84429   0.00000  Uiso   1.00
H1090  H     0.70665   0.98313   0.76596   0.00000  Uiso   1.00
H1091  H     0.73477   0.94769   0.80796   0.00000  Uiso   1.00
H1092  H     0.80943   0.97792   0.50862   0.00000  Uiso   1.00
H1093  H     0.81286   0.99128   0.57522   0.00000  Uiso   1.00
H1094  H     0.66905   0.87041   0.79143   0.00000  Uiso   1.00
H1095  H     0.74511   0.99987   0.55199   0.00000  Uiso   1.00
H1096  H     0.81468   0.73786   0.99453   0.00000  Uiso   1.00
H1097  H     0.88091   0.73050   0.51976   0.00000  Uiso   1.00
H1098  H     0.82347   0.75012   0.60818   0.00000  Uiso   1.00
H1099  H     0.76050   0.76244   0.58471   0.00000  Uiso   1.00
H1100  H     0.99707   0.79536   0.70928   0.00000  Uiso   1.00
H1101  H     0.96473   0.93401   0.93600   0.00000  Uiso   1.00
H1102  H     0.99680   0.93111   0.51685   0.00000  Uiso   1.00
H1103  H     0.68201   0.79758   0.90263   0.00000  Uiso   1.00
H1104  H     0.72514   0.81671   0.55097   0.00000  Uiso   1.00
H1105  H     0.98244   0.78985   0.99622   0.00000  Uiso   1.00
H1106  H     0.89052   0.90607   0.88133   0.00000  Uiso   1.00
N1107  N     0.98241   0.84741   0.76416   0.00000  Uiso   1.00
N1108  N     0.68426   0.81926   0.73584   0.00000  Uiso   1.00
O1109  O     0.79464   0.90474   0.74633   0.00000  Uiso   1.00
O1110  O     0.89524   0.91422   0.75586   0.00000  Uiso   1.00
O1111  O     0.75848   0.82627   0.81839   0.00000  Uiso   1.00
O1112  O     0.85908   0.83575   0.82793   0.00000  Uiso   1.00
O1113  O     0.77142   0.75245   0.74414   0.00000  Uiso   1.00
O1114  O     0.87203   0.76193   0.75367   0.00000  Uiso   1.00
O1115  O     0.80758   0.83092   0.67207   0.00000  Uiso   1.00
O1116  O     0.90819   0.84040   0.68160   0.00000  Uiso   1.00
loop_
_geom_bond_atom_site_label_1
_geom_bond_atom_site_label_2
_geom_bond_distance
_geom_bond_site_symmetry_2
_ccdc_geom_bond_type
C1     O56     1.289   .     A
C1     O55     1.288   .     A
C1     C3      1.428   .     S
C2     C4      1.476   .     S
C2     C20     1.420   .     A
C2     C10     1.403   .     A
C3     C191    1.342   .     S
C3     H216    1.088   .     S
C4     O57     1.303   .     A
C4     O58     1.296   .     A
C5     C6      1.439   .     S
C5     C375    1.342   1_545 S
C5     C386    1.531   1_545 S
C6     O59     1.286   .     A
C6     O60     1.290   .     A
C7     O62     1.298   .     A
C7     C9      1.463   .     S
C7     O61     1.294   .     A
C8     H48     1.084   .     S
C8     C26     1.388   .     A
C8     C580    1.399   1_554 S
C9     C25     1.412   .     A
C9     C26     1.399   .     A
C10    C11     1.391   .     A
C10    H49     1.082   .     S
C11    C571    1.393   .     S
C11    H175    1.081   1_455 S
C12    C20     1.415   .     A
C12    C571    1.410   .     S
C12    C579    1.422   .     S
C13    H50     1.078   .     S
C13    C570    1.410   1_554 S
C13    C569    1.393   1_554 S
C14    H37     1.104   .     S
C14    H36     1.112   .     S
C14    C191    1.531   .     S
C14    C201    1.547   .     S
C15    H35     1.107   .     S
C15    C386    1.547   1_545 S
C15    C140    1.528   1_455 S
C15    H406    1.112   1_545 S
C16    H33     1.111   .     S
C16    H32     1.110   .     S
C16    C77     1.528   .     S
C16    H403    1.109   1_545 S
C17    C25     1.535   .     S
C17    C18     1.539   .     S
C17    H45     1.104   .     S
C17    H44     1.112   .     S
C18    H43     1.111   .     S
C18    C19     1.528   .     S
C18    H600    1.109   1_554 S
C19    H410    1.111   1_545 S
C19    H411    1.111   1_545 S
C19    H413    1.111   1_545 S
C20    C24     1.410   .     A
C21    C25     1.423   .     A
C21    C570    1.422   1_554 S
C21    C580    1.422   1_554 S
C22    C23     1.394   .     A
C22    C579    1.422   .     S
C22    C566    1.399   .     S
C23    C24     1.387   .     A
C23    H47     1.084   .     S
C24    H52     1.078   .     S
C26    H29     1.083   .     S
Cu27   N54     2.017   .     S
Cu27   O59     1.952   .     S
Cu27   O57     1.931   .     S
Cu27   O55     1.961   .     S
Cu27   Cu28    2.685   .     S
Cu27   O61     1.911   .     S
Cu28   N53     2.017   .     S
Cu28   O58     1.911   .     S
Cu28   O56     1.952   .     S
Cu28   O60     1.961   .     S
Cu28   O62     1.931   .     S
H30    C375    1.088   1_545 S
H31    C202    1.109   .     S
H34    C201    1.112   .     S
H38    C205    1.111   .     S
H39    C205    1.111   .     S
H40    N177    1.027   1_455 S
H41    C205    1.111   .     S
H42    C576    1.109   .     S
H46    N116    1.029   .     S
H51    C73     1.081   .     S
N53    H102    1.027   .     S
N53    N116    1.280   .     S
N54    N177    1.280   1_455 S
N54    H170    1.029   1_455 S
C63    O118    1.289   .     A
C63    O117    1.288   .     A
C63    C65     1.428   .     S
C64    C66     1.476   .     S
C64    C82     1.420   .     A
C64    C72     1.403   .     A
C65    C253    1.342   .     S
C65    H278    1.088   .     S
C66    O119    1.303   .     A
C66    O120    1.296   .     A
C67    C68     1.439   .     S
C67    C437    1.342   1_545 S
C67    C448    1.531   1_545 S
C68    O121    1.286   .     A
C68    O122    1.290   .     A
C69    O124    1.298   .     A
C69    C71     1.463   .     S
C69    O123    1.294   .     A
C70    H110    1.084   .     S
C70    C88     1.388   .     A
C70    C642    1.399   1_554 S
C71    C87     1.412   .     A
C71    C88     1.399   .     A
C72    C73     1.391   .     A
C72    H111    1.082   .     S
C73    C633    1.393   .     S
C74    C82     1.415   .     A
C74    C633    1.410   .     S
C74    C641    1.422   .     S
C75    H112    1.078   .     S
C75    C632    1.410   1_554 S
C75    C631    1.393   1_554 S
C76    H99     1.104   .     S
C76    H98     1.112   .     S
C76    C253    1.531   .     S
C76    C263    1.547   .     S
C77    H97     1.107   .     S
C77    C448    1.547   1_545 S
C77    H468    1.112   1_545 S
C78    H95     1.111   .     S
C78    H94     1.110   .     S
C78    C139    1.528   .     S
C78    H465    1.109   1_545 S
C79    C87     1.535   .     S
C79    C80     1.539   .     S
C79    H107    1.104   .     S
C79    H106    1.112   .     S
C80    H105    1.111   .     S
C80    C81     1.528   .     S
C80    H662    1.109   1_554 S
C81    H472    1.111   1_545 S
C81    H473    1.111   1_545 S
C81    H475    1.111   1_545 S
C82    C86     1.410   .     A
C83    C87     1.423   .     A
C83    C632    1.422   1_554 S
C83    C642    1.422   1_554 S
C84    C85     1.394   .     A
C84    C641    1.422   .     S
C84    C628    1.399   .     S
C85    C86     1.387   .     A
C85    H109    1.084   .     S
C86    H114    1.078   .     S
C88    H91     1.083   .     S
Cu89   N116    2.017   .     S
Cu89   O121    1.952   .     S
Cu89   O119    1.931   .     S
Cu89   O117    1.961   .     S
Cu89   Cu90    2.685   .     S
Cu89   O123    1.911   .     S
Cu90   N115    2.017   .     S
Cu90   O120    1.911   .     S
Cu90   O118    1.952   .     S
Cu90   O122    1.961   .     S
Cu90   O124    1.931   .     S
H92    C437    1.088   1_545 S
H93    C264    1.109   .     S
H96    C263    1.112   .     S
H100   C267    1.111   .     S
H101   C267    1.111   .     S
H103   C267    1.111   .     S
H104   C638    1.109   .     S
H108   N178    1.029   .     S
H113   C135    1.081   .     S
N115   H164    1.027   .     S
N115   N178    1.280   .     S
C125   O180    1.289   .     A
C125   O179    1.288   .     A
C125   C127    1.428   .     S
C126   C128    1.476   .     S
C126   C144    1.420   .     A
C126   C134    1.403   .     A
C127   C315    1.342   .     S
C127   H340    1.088   .     S
C128   O181    1.303   .     A
C128   O182    1.296   .     A
C129   C130    1.439   .     S
C129   C499    1.342   1_545 S
C129   C510    1.531   1_545 S
C130   O183    1.286   .     A
C130   O184    1.290   .     A
C131   O186    1.298   .     A
C131   C133    1.463   .     S
C131   O185    1.294   .     A
C132   H172    1.084   .     S
C132   C150    1.388   .     A
C132   C704    1.399   1_554 S
C133   C149    1.412   .     A
C133   C150    1.399   .     A
C134   C135    1.391   .     A
C134   H173    1.082   .     S
C135   C695    1.393   .     S
C136   C144    1.415   .     A
C136   C695    1.410   .     S
C136   C703    1.422   .     S
C137   H174    1.078   .     S
C137   C694    1.410   1_554 S
C137   C693    1.393   1_554 S
C138   H161    1.104   .     S
C138   H160    1.112   .     S
C138   C315    1.531   .     S
C138   C325    1.547   .     S
C139   H159    1.107   .     S
C139   C510    1.547   1_545 S
C139   H530    1.112   1_545 S
C140   H157    1.111   .     S
C140   H156    1.110   .     S
C140   C15     1.528   1_655 S
C140   H527    1.109   1_545 S
C141   C149    1.535   .     S
C141   C142    1.539   .     S
C141   H169    1.104   .     S
C141   H168    1.112   .     S
C142   H167    1.111   .     S
C142   C143    1.528   .     S
C142   H724    1.109   1_554 S
C143   H534    1.111   1_545 S
C143   H535    1.111   1_545 S
C143   H537    1.111   1_545 S
C144   C148    1.410   .     A
C145   C149    1.423   .     A
C145   C694    1.422   1_554 S
C145   C704    1.422   1_554 S
C146   C147    1.394   .     A
C146   C703    1.422   .     S
C146   C690    1.399   .     S
C147   C148    1.387   .     A
C147   H171    1.084   .     S
C148   H176    1.078   .     S
C150   H153    1.083   .     S
Cu151  N178    2.017   .     S
Cu151  O183    1.952   .     S
Cu151  O181    1.931   .     S
Cu151  O179    1.961   .     S
Cu151  Cu152   2.685   .     S
Cu151  O185    1.911   .     S
Cu152  N177    2.017   .     S
Cu152  O182    1.911   .     S
Cu152  O180    1.952   .     S
Cu152  O184    1.961   .     S
Cu152  O186    1.931   .     S
H154   C499    1.088   1_545 S
H155   C326    1.109   .     S
H158   C325    1.112   .     S
H162   C329    1.111   .     S
H163   C329    1.111   .     S
H165   C329    1.111   .     S
H166   C700    1.109   .     S
H170   N54     1.029   1_655 S
H175   C11     1.081   1_655 S
N177   H40     1.027   1_655 S
N177   N54     1.280   1_655 S
C187   O242    1.289   .     A
C187   O241    1.288   .     A
C187   C189    1.428   .     S
C188   C190    1.476   .     S
C188   C206    1.420   .     A
C188   C196    1.403   .     A
C189   C377    1.342   .     S
C189   H402    1.088   .     S
C190   O243    1.303   .     A
C190   O244    1.296   .     A
C191   C192    1.439   .     S
C192   O245    1.286   .     A
C192   O246    1.290   .     A
C193   O248    1.298   .     A
C193   C195    1.463   .     S
C193   O247    1.294   .     A
C194   H234    1.084   .     S
C194   C212    1.388   .     A
C194   C766    1.399   1_554 S
C195   C211    1.412   .     A
C195   C212    1.399   .     A
C196   C197    1.391   .     A
C196   H235    1.082   .     S
C197   C757    1.393   .     S
C197   H361    1.081   1_455 S
C198   C206    1.415   .     A
C198   C757    1.410   .     S
C198   C765    1.422   .     S
C199   H236    1.078   .     S
C199   C756    1.410   1_554 S
C199   C755    1.393   1_554 S
C200   H223    1.104   .     S
C200   H222    1.112   .     S
C200   C377    1.531   .     S
C200   C387    1.547   .     S
C201   H221    1.107   .     S
C201   C326    1.528   1_455 S
C202   H219    1.111   .     S
C202   H218    1.110   .     S
C202   C263    1.528   .     S
C203   C211    1.535   .     S
C203   C204    1.539   .     S
C203   H231    1.104   .     S
C203   H230    1.112   .     S
C204   H229    1.111   .     S
C204   C205    1.528   .     S
C204   H786    1.109   1_554 S
C206   C210    1.410   .     A
C207   C211    1.423   .     A
C207   C756    1.422   1_554 S
C207   C766    1.422   1_554 S
C208   C209    1.394   .     A
C208   C765    1.422   .     S
C208   C752    1.399   .     S
C209   C210    1.387   .     A
C209   H233    1.084   .     S
C210   H238    1.078   .     S
C212   H215    1.083   .     S
Cu213  N240    2.017   .     S
Cu213  O245    1.952   .     S
Cu213  O243    1.931   .     S
Cu213  O241    1.961   .     S
Cu213  Cu214   2.685   .     S
Cu213  O247    1.911   .     S
Cu214  N239    2.017   .     S
Cu214  O244    1.911   .     S
Cu214  O242    1.952   .     S
Cu214  O246    1.961   .     S
Cu214  O248    1.931   .     S
H217   C388    1.109   .     S
H220   C387    1.112   .     S
H224   C391    1.111   .     S
H225   C391    1.111   .     S
H226   N363    1.027   1_455 S
H227   C391    1.111   .     S
H228   C762    1.109   .     S
H232   N302    1.029   .     S
H237   C259    1.081   .     S
N239   H288    1.027   .     S
N239   N302    1.280   .     S
N240   N363    1.280   1_455 S
N240   H356    1.029   1_455 S
C249   O304    1.289   .     A
C249   O303    1.288   .     A
C249   C251    1.428   .     S
C250   C252    1.476   .     S
C250   C268    1.420   .     A
C250   C258    1.403   .     A
C251   C439    1.342   .     S
C251   H464    1.088   .     S
C252   O305    1.303   .     A
C252   O306    1.296   .     A
C253   C254    1.439   .     S
C254   O307    1.286   .     A
C254   O308    1.290   .     A
C255   O310    1.298   .     A
C255   C257    1.463   .     S
C255   O309    1.294   .     A
C256   H296    1.084   .     S
C256   C274    1.388   .     A
C256   C828    1.399   1_554 S
C257   C273    1.412   .     A
C257   C274    1.399   .     A
C258   C259    1.391   .     A
C258   H297    1.082   .     S
C259   C819    1.393   .     S
C260   C268    1.415   .     A
C260   C819    1.410   .     S
C260   C827    1.422   .     S
C261   H298    1.078   .     S
C261   C818    1.410   1_554 S
C261   C817    1.393   1_554 S
C262   H285    1.104   .     S
C262   H284    1.112   .     S
C262   C439    1.531   .     S
C262   C449    1.547   .     S
C263   H283    1.107   .     S
C264   H281    1.111   .     S
C264   H280    1.110   .     S
C264   C325    1.528   .     S
C265   C273    1.535   .     S
C265   C266    1.539   .     S
C265   H293    1.104   .     S
C265   H292    1.112   .     S
C266   H291    1.111   .     S
C266   C267    1.528   .     S
C266   H848    1.109   1_554 S
C268   C272    1.410   .     A
C269   C273    1.423   .     A
C269   C818    1.422   1_554 S
C269   C828    1.422   1_554 S
C270   C271    1.394   .     A
C270   C827    1.422   .     S
C270   C814    1.399   .     S
C271   C272    1.387   .     A
C271   H295    1.084   .     S
C272   H300    1.078   .     S
C274   H277    1.083   .     S
Cu275  N302    2.017   .     S
Cu275  O307    1.952   .     S
Cu275  O305    1.931   .     S
Cu275  O303    1.961   .     S
Cu275  Cu276   2.685   .     S
Cu275  O309    1.911   .     S
Cu276  N301    2.017   .     S
Cu276  O306    1.911   .     S
Cu276  O304    1.952   .     S
Cu276  O308    1.961   .     S
Cu276  O310    1.931   .     S
H279   C450    1.109   .     S
H282   C449    1.112   .     S
H286   C453    1.111   .     S
H287   C453    1.111   .     S
H289   C453    1.111   .     S
H290   C824    1.109   .     S
H294   N364    1.029   .     S
H299   C321    1.081   .     S
N301   H350    1.027   .     S
N301   N364    1.280   .     S
C311   O366    1.289   .     A
C311   O365    1.288   .     A
C311   C313    1.428   .     S
C312   C314    1.476   .     S
C312   C330    1.420   .     A
C312   C320    1.403   .     A
C313   C501    1.342   .     S
C313   H526    1.088   .     S
C314   O367    1.303   .     A
C314   O368    1.296   .     A
C315   C316    1.439   .     S
C316   O369    1.286   .     A
C316   O370    1.290   .     A
C317   O372    1.298   .     A
C317   C319    1.463   .     S
C317   O371    1.294   .     A
C318   H358    1.084   .     S
C318   C336    1.388   .     A
C318   C890    1.399   1_554 S
C319   C335    1.412   .     A
C319   C336    1.399   .     A
C320   C321    1.391   .     A
C320   H359    1.082   .     S
C321   C881    1.393   .     S
C322   C330    1.415   .     A
C322   C881    1.410   .     S
C322   C889    1.422   .     S
C323   H360    1.078   .     S
C323   C880    1.410   1_554 S
C323   C879    1.393   1_554 S
C324   H347    1.104   .     S
C324   H346    1.112   .     S
C324   C501    1.531   .     S
C324   C511    1.547   .     S
C325   H345    1.107   .     S
C326   H343    1.111   .     S
C326   H342    1.110   .     S
C326   C201    1.528   1_655 S
C327   C335    1.535   .     S
C327   C328    1.539   .     S
C327   H355    1.104   .     S
C327   H354    1.112   .     S
C328   H353    1.111   .     S
C328   C329    1.528   .     S
C328   H910    1.109   1_554 S
C330   C334    1.410   .     A
C331   C335    1.423   .     A
C331   C880    1.422   1_554 S
C331   C890    1.422   1_554 S
C332   C333    1.394   .     A
C332   C889    1.422   .     S
C332   C876    1.399   .     S
C333   C334    1.387   .     A
C333   H357    1.084   .     S
C334   H362    1.078   .     S
C336   H339    1.083   .     S
Cu337  N364    2.017   .     S
Cu337  O369    1.952   .     S
Cu337  O367    1.931   .     S
Cu337  O365    1.961   .     S
Cu337  Cu338   2.685   .     S
Cu337  O371    1.911   .     S
Cu338  N363    2.017   .     S
Cu338  O368    1.911   .     S
Cu338  O366    1.952   .     S
Cu338  O370    1.961   .     S
Cu338  O372    1.931   .     S
H341   C512    1.109   .     S
H344   C511    1.112   .     S
H348   C515    1.111   .     S
H349   C515    1.111   .     S
H351   C515    1.111   .     S
H352   C886    1.109   .     S
H356   N240    1.029   1_655 S
H361   C197    1.081   1_655 S
N363   H226    1.027   1_655 S
N363   N240    1.280   1_655 S
C373   O428    1.289   .     A
C373   O427    1.288   .     A
C373   C375    1.428   .     S
C374   C376    1.476   .     S
C374   C392    1.420   .     A
C374   C382    1.403   .     A
C375   C5      1.342   1_565 S
C375   H30     1.088   1_565 S
C376   O429    1.303   .     A
C376   O430    1.296   .     A
C377   C378    1.439   .     S
C378   O431    1.286   .     A
C378   O432    1.290   .     A
C379   O434    1.298   .     A
C379   C381    1.463   .     S
C379   O433    1.294   .     A
C380   H420    1.084   .     S
C380   C398    1.388   .     A
C380   C952    1.399   1_554 S
C381   C397    1.412   .     A
C381   C398    1.399   .     A
C382   C383    1.391   .     A
C382   H421    1.082   .     S
C383   C943    1.393   .     S
C383   H547    1.081   1_455 S
C384   C392    1.415   .     A
C384   C943    1.410   .     S
C384   C951    1.422   .     S
C385   H422    1.078   .     S
C385   C942    1.410   1_554 S
C385   C941    1.393   1_554 S
C386   H409    1.104   .     S
C386   H408    1.112   .     S
C386   C5      1.531   1_565 S
C386   C15     1.547   1_565 S
C387   H407    1.107   .     S
C387   C512    1.528   1_455 S
C388   H405    1.111   .     S
C388   H404    1.110   .     S
C388   C449    1.528   .     S
C389   C397    1.535   .     S
C389   C390    1.539   .     S
C389   H417    1.104   .     S
C389   H416    1.112   .     S
C390   H415    1.111   .     S
C390   C391    1.528   .     S
C390   H972    1.109   1_554 S
C392   C396    1.410   .     A
C393   C397    1.423   .     A
C393   C942    1.422   1_554 S
C393   C952    1.422   1_554 S
C394   C395    1.394   .     A
C394   C951    1.422   .     S
C394   C938    1.399   .     S
C395   C396    1.387   .     A
C395   H419    1.084   .     S
C396   H424    1.078   .     S
C398   H401    1.083   .     S
Cu399  N426    2.017   .     S
Cu399  O431    1.952   .     S
Cu399  O429    1.931   .     S
Cu399  O427    1.961   .     S
Cu399  Cu400   2.685   .     S
Cu399  O433    1.911   .     S
Cu400  N425    2.017   .     S
Cu400  O430    1.911   .     S
Cu400  O428    1.952   .     S
Cu400  O432    1.961   .     S
Cu400  O434    1.931   .     S
H403   C16     1.109   1_565 S
H406   C15     1.112   1_565 S
H410   C19     1.111   1_565 S
H411   C19     1.111   1_565 S
H412   N549    1.027   1_455 S
H413   C19     1.111   1_565 S
H414   C948    1.109   .     S
H418   N488    1.029   .     S
H423   C445    1.081   .     S
N425   H474    1.027   .     S
N425   N488    1.280   .     S
N426   N549    1.280   1_455 S
N426   H542    1.029   1_455 S
C435   O490    1.289   .     A
C435   O489    1.288   .     A
C435   C437    1.428   .     S
C436   C438    1.476   .     S
C436   C454    1.420   .     A
C436   C444    1.403   .     A
C437   C67     1.342   1_565 S
C437   H92     1.088   1_565 S
C438   O491    1.303   .     A
C438   O492    1.296   .     A
C439   C440    1.439   .     S
C440   O493    1.286   .     A
C440   O494    1.290   .     A
C441   O496    1.298   .     A
C441   C443    1.463   .     S
C441   O495    1.294   .     A
C442   H482    1.084   .     S
C442   C460    1.388   .     A
C442   C1014   1.399   1_554 S
C443   C459    1.412   .     A
C443   C460    1.399   .     A
C444   C445    1.391   .     A
C444   H483    1.082   .     S
C445   C1005   1.393   .     S
C446   C454    1.415   .     A
C446   C1005   1.410   .     S
C446   C1013   1.422   .     S
C447   H484    1.078   .     S
C447   C1004   1.410   1_554 S
C447   C1003   1.393   1_554 S
C448   H471    1.104   .     S
C448   H470    1.112   .     S
C448   C67     1.531   1_565 S
C448   C77     1.547   1_565 S
C449   H469    1.107   .     S
C450   H467    1.111   .     S
C450   H466    1.110   .     S
C450   C511    1.528   .     S
C451   C459    1.535   .     S
C451   C452    1.539   .     S
C451   H479    1.104   .     S
C451   H478    1.112   .     S
C452   H477    1.111   .     S
C452   C453    1.528   .     S
C452   H1034   1.109   1_554 S
C454   C458    1.410   .     A
C455   C459    1.423   .     A
C455   C1004   1.422   1_554 S
C455   C1014   1.422   1_554 S
C456   C457    1.394   .     A
C456   C1013   1.422   .     S
C456   C1000   1.399   .     S
C457   C458    1.387   .     A
C457   H481    1.084   .     S
C458   H486    1.078   .     S
C460   H463    1.083   .     S
Cu461  N488    2.017   .     S
Cu461  O493    1.952   .     S
Cu461  O491    1.931   .     S
Cu461  O489    1.961   .     S
Cu461  Cu462   2.685   .     S
Cu461  O495    1.911   .     S
Cu462  N487    2.017   .     S
Cu462  O492    1.911   .     S
Cu462  O490    1.952   .     S
Cu462  O494    1.961   .     S
Cu462  O496    1.931   .     S
H465   C78     1.109   1_565 S
H468   C77     1.112   1_565 S
H472   C81     1.111   1_565 S
H473   C81     1.111   1_565 S
H475   C81     1.111   1_565 S
H476   C1010   1.109   .     S
H480   N550    1.029   .     S
H485   C507    1.081   .     S
N487   H536    1.027   .     S
N487   N550    1.280   .     S
C497   O552    1.289   .     A
C497   O551    1.288   .     A
C497   C499    1.428   .     S
C498   C500    1.476   .     S
C498   C516    1.420   .     A
C498   C506    1.403   .     A
C499   C129    1.342   1_565 S
C499   H154    1.088   1_565 S
C500   O553    1.303   .     A
C500   O554    1.296   .     A
C501   C502    1.439   .     S
C502   O555    1.286   .     A
C502   O556    1.290   .     A
C503   O558    1.298   .     A
C503   C505    1.463   .     S
C503   O557    1.294   .     A
C504   H544    1.084   .     S
C504   C522    1.388   .     A
C504   C1076   1.399   1_554 S
C505   C521    1.412   .     A
C505   C522    1.399   .     A
C506   C507    1.391   .     A
C506   H545    1.082   .     S
C507   C1067   1.393   .     S
C508   C516    1.415   .     A
C508   C1067   1.410   .     S
C508   C1075   1.422   .     S
C509   H546    1.078   .     S
C509   C1066   1.410   1_554 S
C509   C1065   1.393   1_554 S
C510   H533    1.104   .     S
C510   H532    1.112   .     S
C510   C129    1.531   1_565 S
C510   C139    1.547   1_565 S
C511   H531    1.107   .     S
C512   H529    1.111   .     S
C512   H528    1.110   .     S
C512   C387    1.528   1_655 S
C513   C521    1.535   .     S
C513   C514    1.539   .     S
C513   H541    1.104   .     S
C513   H540    1.112   .     S
C514   H539    1.111   .     S
C514   C515    1.528   .     S
C514   H1096   1.109   1_554 S
C516   C520    1.410   .     A
C517   C521    1.423   .     A
C517   C1066   1.422   1_554 S
C517   C1076   1.422   1_554 S
C518   C519    1.394   .     A
C518   C1075   1.422   .     S
C518   C1062   1.399   .     S
C519   C520    1.387   .     A
C519   H543    1.084   .     S
C520   H548    1.078   .     S
C522   H525    1.083   .     S
Cu523  N550    2.017   .     S
Cu523  O555    1.952   .     S
Cu523  O553    1.931   .     S
Cu523  O551    1.961   .     S
Cu523  Cu524   2.685   .     S
Cu523  O557    1.911   .     S
Cu524  N549    2.017   .     S
Cu524  O554    1.911   .     S
Cu524  O552    1.952   .     S
Cu524  O556    1.961   .     S
Cu524  O558    1.931   .     S
H527   C140    1.109   1_565 S
H530   C139    1.112   1_565 S
H534   C143    1.111   1_565 S
H535   C143    1.111   1_565 S
H537   C143    1.111   1_565 S
H538   C1072   1.109   .     S
H542   N426    1.029   1_655 S
H547   C383    1.081   1_655 S
N549   H412    1.027   1_655 S
N549   N426    1.280   1_655 S
C559   O614    1.289   .     A
C559   O613    1.288   .     A
C559   C561    1.428   .     S
C560   C562    1.476   .     S
C560   C578    1.420   .     A
C560   C568    1.403   .     A
C561   C749    1.342   .     S
C561   H774    1.088   .     S
C562   O615    1.303   .     A
C562   O616    1.296   .     A
C563   C564    1.439   .     S
C563   C933    1.342   1_545 S
C563   C944    1.531   1_545 S
C564   O617    1.286   .     A
C564   O618    1.290   .     A
C565   O620    1.298   .     A
C565   C567    1.463   .     S
C565   O619    1.294   .     A
C566   H606    1.084   .     S
C566   C584    1.388   .     A
C567   C583    1.412   .     A
C567   C584    1.399   .     A
C568   C569    1.391   .     A
C568   H607    1.082   .     S
C569   C13     1.393   1_556 S
C569   H733    1.081   1_455 S
C570   C578    1.415   .     A
C570   C13     1.410   1_556 S
C570   C21     1.422   1_556 S
C571   H608    1.078   .     S
C572   H595    1.104   .     S
C572   H594    1.112   .     S
C572   C749    1.531   .     S
C572   C759    1.547   .     S
C573   H593    1.107   .     S
C573   C944    1.547   1_545 S
C573   C698    1.528   1_455 S
C573   H964    1.112   1_545 S
C574   H591    1.111   .     S
C574   H590    1.110   .     S
C574   C635    1.528   .     S
C574   H961    1.109   1_545 S
C575   C583    1.535   .     S
C575   C576    1.539   .     S
C575   H603    1.104   .     S
C575   H602    1.112   .     S
C576   H601    1.111   .     S
C576   C577    1.528   .     S
C577   H968    1.111   1_545 S
C577   H969    1.111   1_545 S
C577   H971    1.111   1_545 S
C578   C582    1.410   .     A
C579   C583    1.423   .     A
C580   C581    1.394   .     A
C580   C21     1.422   1_556 S
C580   C8      1.399   1_556 S
C581   C582    1.387   .     A
C581   H605    1.084   .     S
C582   H610    1.078   .     S
C584   H587    1.083   .     S
Cu585  N612    2.017   .     S
Cu585  O617    1.952   .     S
Cu585  O615    1.931   .     S
Cu585  O613    1.961   .     S
Cu585  Cu586   2.685   .     S
Cu585  O619    1.911   .     S
Cu586  N611    2.017   .     S
Cu586  O616    1.911   .     S
Cu586  O614    1.952   .     S
Cu586  O618    1.961   .     S
Cu586  O620    1.931   .     S
H588   C933    1.088   1_545 S
H589   C760    1.109   .     S
H592   C759    1.112   .     S
H596   C763    1.111   .     S
H597   C763    1.111   .     S
H598   N735    1.027   1_455 S
H599   C763    1.111   .     S
H600   C18     1.109   1_556 S
H604   N674    1.029   .     S
H609   C631    1.081   .     S
N611   H660    1.027   .     S
N611   N674    1.280   .     S
N612   N735    1.280   1_455 S
N612   H728    1.029   1_455 S
C621   O676    1.289   .     A
C621   O675    1.288   .     A
C621   C623    1.428   .     S
C622   C624    1.476   .     S
C622   C640    1.420   .     A
C622   C630    1.403   .     A
C623   C811    1.342   .     S
C623   H836    1.088   .     S
C624   O677    1.303   .     A
C624   O678    1.296   .     A
C625   C626    1.439   .     S
C625   C995    1.342   1_545 S
C625   C1006   1.531   1_545 S
C626   O679    1.286   .     A
C626   O680    1.290   .     A
C627   O682    1.298   .     A
C627   C629    1.463   .     S
C627   O681    1.294   .     A
C628   H668    1.084   .     S
C628   C646    1.388   .     A
C629   C645    1.412   .     A
C629   C646    1.399   .     A
C630   C631    1.391   .     A
C630   H669    1.082   .     S
C631   C75     1.393   1_556 S
C632   C640    1.415   .     A
C632   C75     1.410   1_556 S
C632   C83     1.422   1_556 S
C633   H670    1.078   .     S
C634   H657    1.104   .     S
C634   H656    1.112   .     S
C634   C811    1.531   .     S
C634   C821    1.547   .     S
C635   H655    1.107   .     S
C635   C1006   1.547   1_545 S
C635   H1026   1.112   1_545 S
C636   H653    1.111   .     S
C636   H652    1.110   .     S
C636   C697    1.528   .     S
C636   H1023   1.109   1_545 S
C637   C645    1.535   .     S
C637   C638    1.539   .     S
C637   H665    1.104   .     S
C637   H664    1.112   .     S
C638   H663    1.111   .     S
C638   C639    1.528   .     S
C639   H1030   1.111   1_545 S
C639   H1031   1.111   1_545 S
C639   H1033   1.111   1_545 S
C640   C644    1.410   .     A
C641   C645    1.423   .     A
C642   C643    1.394   .     A
C642   C83     1.422   1_556 S
C642   C70     1.399   1_556 S
C643   C644    1.387   .     A
C643   H667    1.084   .     S
C644   H672    1.078   .     S
C646   H649    1.083   .     S
Cu647  N674    2.017   .     S
Cu647  O679    1.952   .     S
Cu647  O677    1.931   .     S
Cu647  O675    1.961   .     S
Cu647  Cu648   2.685   .     S
Cu647  O681    1.911   .     S
Cu648  N673    2.017   .     S
Cu648  O678    1.911   .     S
Cu648  O676    1.952   .     S
Cu648  O680    1.961   .     S
Cu648  O682    1.931   .     S
H650   C995    1.088   1_545 S
H651   C822    1.109   .     S
H654   C821    1.112   .     S
H658   C825    1.111   .     S
H659   C825    1.111   .     S
H661   C825    1.111   .     S
H662   C80     1.109   1_556 S
H666   N736    1.029   .     S
H671   C693    1.081   .     S
N673   H722    1.027   .     S
N673   N736    1.280   .     S
C683   O738    1.289   .     A
C683   O737    1.288   .     A
C683   C685    1.428   .     S
C684   C686    1.476   .     S
C684   C702    1.420   .     A
C684   C692    1.403   .     A
C685   C873    1.342   .     S
C685   H898    1.088   .     S
C686   O739    1.303   .     A
C686   O740    1.296   .     A
C687   C688    1.439   .     S
C687   C1057   1.342   1_545 S
C687   C1068   1.531   1_545 S
C688   O741    1.286   .     A
C688   O742    1.290   .     A
C689   O744    1.298   .     A
C689   C691    1.463   .     S
C689   O743    1.294   .     A
C690   H730    1.084   .     S
C690   C708    1.388   .     A
C691   C707    1.412   .     A
C691   C708    1.399   .     A
C692   C693    1.391   .     A
C692   H731    1.082   .     S
C693   C137    1.393   1_556 S
C694   C702    1.415   .     A
C694   C137    1.410   1_556 S
C694   C145    1.422   1_556 S
C695   H732    1.078   .     S
C696   H719    1.104   .     S
C696   H718    1.112   .     S
C696   C873    1.531   .     S
C696   C883    1.547   .     S
C697   H717    1.107   .     S
C697   C1068   1.547   1_545 S
C697   H1088   1.112   1_545 S
C698   H715    1.111   .     S
C698   H714    1.110   .     S
C698   C573    1.528   1_655 S
C698   H1085   1.109   1_545 S
C699   C707    1.535   .     S
C699   C700    1.539   .     S
C699   H727    1.104   .     S
C699   H726    1.112   .     S
C700   H725    1.111   .     S
C700   C701    1.528   .     S
C701   H1092   1.111   1_545 S
C701   H1093   1.111   1_545 S
C701   H1095   1.111   1_545 S
C702   C706    1.410   .     A
C703   C707    1.423   .     A
C704   C705    1.394   .     A
C704   C145    1.422   1_556 S
C704   C132    1.399   1_556 S
C705   C706    1.387   .     A
C705   H729    1.084   .     S
C706   H734    1.078   .     S
C708   H711    1.083   .     S
Cu709  N736    2.017   .     S
Cu709  O741    1.952   .     S
Cu709  O739    1.931   .     S
Cu709  O737    1.961   .     S
Cu709  Cu710   2.685   .     S
Cu709  O743    1.911   .     S
Cu710  N735    2.017   .     S
Cu710  O740    1.911   .     S
Cu710  O738    1.952   .     S
Cu710  O742    1.961   .     S
Cu710  O744    1.931   .     S
H712   C1057   1.088   1_545 S
H713   C884    1.109   .     S
H716   C883    1.112   .     S
H720   C887    1.111   .     S
H721   C887    1.111   .     S
H723   C887    1.111   .     S
H724   C142    1.109   1_556 S
H728   N612    1.029   1_655 S
H733   C569    1.081   1_655 S
N735   H598    1.027   1_655 S
N735   N612    1.280   1_655 S
C745   O800    1.289   .     A
C745   O799    1.288   .     A
C745   C747    1.428   .     S
C746   C748    1.476   .     S
C746   C764    1.420   .     A
C746   C754    1.403   .     A
C747   C935    1.342   .     S
C747   H960    1.088   .     S
C748   O801    1.303   .     A
C748   O802    1.296   .     A
C749   C750    1.439   .     S
C750   O803    1.286   .     A
C750   O804    1.290   .     A
C751   O806    1.298   .     A
C751   C753    1.463   .     S
C751   O805    1.294   .     A
C752   H792    1.084   .     S
C752   C770    1.388   .     A
C753   C769    1.412   .     A
C753   C770    1.399   .     A
C754   C755    1.391   .     A
C754   H793    1.082   .     S
C755   C199    1.393   1_556 S
C755   H919    1.081   1_455 S
C756   C764    1.415   .     A
C756   C199    1.410   1_556 S
C756   C207    1.422   1_556 S
C757   H794    1.078   .     S
C758   H781    1.104   .     S
C758   H780    1.112   .     S
C758   C935    1.531   .     S
C758   C945    1.547   .     S
C759   H779    1.107   .     S
C759   C884    1.528   1_455 S
C760   H777    1.111   .     S
C760   H776    1.110   .     S
C760   C821    1.528   .     S
C761   C769    1.535   .     S
C761   C762    1.539   .     S
C761   H789    1.104   .     S
C761   H788    1.112   .     S
C762   H787    1.111   .     S
C762   C763    1.528   .     S
C764   C768    1.410   .     A
C765   C769    1.423   .     A
C766   C767    1.394   .     A
C766   C207    1.422   1_556 S
C766   C194    1.399   1_556 S
C767   C768    1.387   .     A
C767   H791    1.084   .     S
C768   H796    1.078   .     S
C770   H773    1.083   .     S
Cu771  N798    2.017   .     S
Cu771  O803    1.952   .     S
Cu771  O801    1.931   .     S
Cu771  O799    1.961   .     S
Cu771  Cu772   2.685   .     S
Cu771  O805    1.911   .     S
Cu772  N797    2.017   .     S
Cu772  O802    1.911   .     S
Cu772  O800    1.952   .     S
Cu772  O804    1.961   .     S
Cu772  O806    1.931   .     S
H775   C946    1.109   .     S
H778   C945    1.112   .     S
H782   C949    1.111   .     S
H783   C949    1.111   .     S
H784   N921    1.027   1_455 S
H785   C949    1.111   .     S
H786   C204    1.109   1_556 S
H790   N860    1.029   .     S
H795   C817    1.081   .     S
N797   H846    1.027   .     S
N797   N860    1.280   .     S
N798   N921    1.280   1_455 S
N798   H914    1.029   1_455 S
C807   O862    1.289   .     A
C807   O861    1.288   .     A
C807   C809    1.428   .     S
C808   C810    1.476   .     S
C808   C826    1.420   .     A
C808   C816    1.403   .     A
C809   C997    1.342   .     S
C809   H1022   1.088   .     S
C810   O863    1.303   .     A
C810   O864    1.296   .     A
C811   C812    1.439   .     S
C812   O865    1.286   .     A
C812   O866    1.290   .     A
C813   O868    1.298   .     A
C813   C815    1.463   .     S
C813   O867    1.294   .     A
C814   H854    1.084   .     S
C814   C832    1.388   .     A
C815   C831    1.412   .     A
C815   C832    1.399   .     A
C816   C817    1.391   .     A
C816   H855    1.082   .     S
C817   C261    1.393   1_556 S
C818   C826    1.415   .     A
C818   C261    1.410   1_556 S
C818   C269    1.422   1_556 S
C819   H856    1.078   .     S
C820   H843    1.104   .     S
C820   H842    1.112   .     S
C820   C997    1.531   .     S
C820   C1007   1.547   .     S
C821   H841    1.107   .     S
C822   H839    1.111   .     S
C822   H838    1.110   .     S
C822   C883    1.528   .     S
C823   C831    1.535   .     S
C823   C824    1.539   .     S
C823   H851    1.104   .     S
C823   H850    1.112   .     S
C824   H849    1.111   .     S
C824   C825    1.528   .     S
C826   C830    1.410   .     A
C827   C831    1.423   .     A
C828   C829    1.394   .     A
C828   C269    1.422   1_556 S
C828   C256    1.399   1_556 S
C829   C830    1.387   .     A
C829   H853    1.084   .     S
C830   H858    1.078   .     S
C832   H835    1.083   .     S
Cu833  N860    2.017   .     S
Cu833  O865    1.952   .     S
Cu833  O863    1.931   .     S
Cu833  O861    1.961   .     S
Cu833  Cu834   2.685   .     S
Cu833  O867    1.911   .     S
Cu834  N859    2.017   .     S
Cu834  O864    1.911   .     S
Cu834  O862    1.952   .     S
Cu834  O866    1.961   .     S
Cu834  O868    1.931   .     S
H837   C1008   1.109   .     S
H840   C1007   1.112   .     S
H844   C1011   1.111   .     S
H845   C1011   1.111   .     S
H847   C1011   1.111   .     S
H848   C266    1.109   1_556 S
H852   N922    1.029   .     S
H857   C879    1.081   .     S
N859   H908    1.027   .     S
N859   N922    1.280   .     S
C869   O924    1.289   .     A
C869   O923    1.288   .     A
C869   C871    1.428   .     S
C870   C872    1.476   .     S
C870   C888    1.420   .     A
C870   C878    1.403   .     A
C871   C1059   1.342   .     S
C871   H1084   1.088   .     S
C872   O925    1.303   .     A
C872   O926    1.296   .     A
C873   C874    1.439   .     S
C874   O927    1.286   .     A
C874   O928    1.290   .     A
C875   O930    1.298   .     A
C875   C877    1.463   .     S
C875   O929    1.294   .     A
C876   H916    1.084   .     S
C876   C894    1.388   .     A
C877   C893    1.412   .     A
C877   C894    1.399   .     A
C878   C879    1.391   .     A
C878   H917    1.082   .     S
C879   C323    1.393   1_556 S
C880   C888    1.415   .     A
C880   C323    1.410   1_556 S
C880   C331    1.422   1_556 S
C881   H918    1.078   .     S
C882   H905    1.104   .     S
C882   H904    1.112   .     S
C882   C1059   1.531   .     S
C882   C1069   1.547   .     S
C883   H903    1.107   .     S
C884   H901    1.111   .     S
C884   H900    1.110   .     S
C884   C759    1.528   1_655 S
C885   C893    1.535   .     S
C885   C886    1.539   .     S
C885   H913    1.104   .     S
C885   H912    1.112   .     S
C886   H911    1.111   .     S
C886   C887    1.528   .     S
C888   C892    1.410   .     A
C889   C893    1.423   .     A
C890   C891    1.394   .     A
C890   C331    1.422   1_556 S
C890   C318    1.399   1_556 S
C891   C892    1.387   .     A
C891   H915    1.084   .     S
C892   H920    1.078   .     S
C894   H897    1.083   .     S
Cu895  N922    2.017   .     S
Cu895  O927    1.952   .     S
Cu895  O925    1.931   .     S
Cu895  O923    1.961   .     S
Cu895  Cu896   2.685   .     S
Cu895  O929    1.911   .     S
Cu896  N921    2.017   .     S
Cu896  O926    1.911   .     S
Cu896  O924    1.952   .     S
Cu896  O928    1.961   .     S
Cu896  O930    1.931   .     S
H899   C1070   1.109   .     S
H902   C1069   1.112   .     S
H906   C1073   1.111   .     S
H907   C1073   1.111   .     S
H909   C1073   1.111   .     S
H910   C328    1.109   1_556 S
H914   N798    1.029   1_655 S
H919   C755    1.081   1_655 S
N921   H784    1.027   1_655 S
N921   N798    1.280   1_655 S
C931   O986    1.289   .     A
C931   O985    1.288   .     A
C931   C933    1.428   .     S
C932   C934    1.476   .     S
C932   C950    1.420   .     A
C932   C940    1.403   .     A
C933   C563    1.342   1_565 S
C933   H588    1.088   1_565 S
C934   O987    1.303   .     A
C934   O988    1.296   .     A
C935   C936    1.439   .     S
C936   O989    1.286   .     A
C936   O990    1.290   .     A
C937   O992    1.298   .     A
C937   C939    1.463   .     S
C937   O991    1.294   .     A
C938   H978    1.084   .     S
C938   C956    1.388   .     A
C939   C955    1.412   .     A
C939   C956    1.399   .     A
C940   C941    1.391   .     A
C940   H979    1.082   .     S
C941   C385    1.393   1_556 S
C941   H1105   1.081   1_455 S
C942   C950    1.415   .     A
C942   C385    1.410   1_556 S
C942   C393    1.422   1_556 S
C943   H980    1.078   .     S
C944   H967    1.104   .     S
C944   H966    1.112   .     S
C944   C563    1.531   1_565 S
C944   C573    1.547   1_565 S
C945   H965    1.107   .     S
C945   C1070   1.528   1_455 S
C946   H963    1.111   .     S
C946   H962    1.110   .     S
C946   C1007   1.528   .     S
C947   C955    1.535   .     S
C947   C948    1.539   .     S
C947   H975    1.104   .     S
C947   H974    1.112   .     S
C948   H973    1.111   .     S
C948   C949    1.528   .     S
C950   C954    1.410   .     A
C951   C955    1.423   .     A
C952   C953    1.394   .     A
C952   C393    1.422   1_556 S
C952   C380    1.399   1_556 S
C953   C954    1.387   .     A
C953   H977    1.084   .     S
C954   H982    1.078   .     S
C956   H959    1.083   .     S
Cu957  N984    2.017   .     S
Cu957  O989    1.952   .     S
Cu957  O987    1.931   .     S
Cu957  O985    1.961   .     S
Cu957  Cu958   2.685   .     S
Cu957  O991    1.911   .     S
Cu958  N983    2.017   .     S
Cu958  O988    1.911   .     S
Cu958  O986    1.952   .     S
Cu958  O990    1.961   .     S
Cu958  O992    1.931   .     S
H961   C574    1.109   1_565 S
H964   C573    1.112   1_565 S
H968   C577    1.111   1_565 S
H969   C577    1.111   1_565 S
H970   N1107   1.027   1_455 S
H971   C577    1.111   1_565 S
H972   C390    1.109   1_556 S
H976   N1046   1.029   .     S
H981   C1003   1.081   .     S
N983   H1032   1.027   .     S
N983   N1046   1.280   .     S
N984   N1107   1.280   1_455 S
N984   H1100   1.029   1_455 S
C993   O1048   1.289   .     A
C993   O1047   1.288   .     A
C993   C995    1.428   .     S
C994   C996    1.476   .     S
C994   C1012   1.420   .     A
C994   C1002   1.403   .     A
C995   C625    1.342   1_565 S
C995   H650    1.088   1_565 S
C996   O1049   1.303   .     A
C996   O1050   1.296   .     A
C997   C998    1.439   .     S
C998   O1051   1.286   .     A
C998   O1052   1.290   .     A
C999   O1054   1.298   .     A
C999   C1001   1.463   .     S
C999   O1053   1.294   .     A
C1000  H1040   1.084   .     S
C1000  C1018   1.388   .     A
C1001  C1017   1.412   .     A
C1001  C1018   1.399   .     A
C1002  C1003   1.391   .     A
C1002  H1041   1.082   .     S
C1003  C447    1.393   1_556 S
C1004  C1012   1.415   .     A
C1004  C447    1.410   1_556 S
C1004  C455    1.422   1_556 S
C1005  H1042   1.078   .     S
C1006  H1029   1.104   .     S
C1006  H1028   1.112   .     S
C1006  C625    1.531   1_565 S
C1006  C635    1.547   1_565 S
C1007  H1027   1.107   .     S
C1008  H1025   1.111   .     S
C1008  H1024   1.110   .     S
C1008  C1069   1.528   .     S
C1009  C1017   1.535   .     S
C1009  C1010   1.539   .     S
C1009  H1037   1.104   .     S
C1009  H1036   1.112   .     S
C1010  H1035   1.111   .     S
C1010  C1011   1.528   .     S
C1012  C1016   1.410   .     A
C1013  C1017   1.423   .     A
C1014  C1015   1.394   .     A
C1014  C455    1.422   1_556 S
C1014  C442    1.399   1_556 S
C1015  C1016   1.387   .     A
C1015  H1039   1.084   .     S
C1016  H1044   1.078   .     S
C1018  H1021   1.083   .     S
Cu1019 N1046   2.017   .     S
Cu1019 O1051   1.952   .     S
Cu1019 O1049   1.931   .     S
Cu1019 O1047   1.961   .     S
Cu1019 Cu1020  2.685   .     S
Cu1019 O1053   1.911   .     S
Cu1020 N1045   2.017   .     S
Cu1020 O1050   1.911   .     S
Cu1020 O1048   1.952   .     S
Cu1020 O1052   1.961   .     S
Cu1020 O1054   1.931   .     S
H1023  C636    1.109   1_565 S
H1026  C635    1.112   1_565 S
H1030  C639    1.111   1_565 S
H1031  C639    1.111   1_565 S
H1033  C639    1.111   1_565 S
H1034  C452    1.109   1_556 S
H1038  N1108   1.029   .     S
H1043  C1065   1.081   .     S
N1045  H1094   1.027   .     S
N1045  N1108   1.280   .     S
C1055  O1110   1.289   .     A
C1055  O1109   1.288   .     A
C1055  C1057   1.428   .     S
C1056  C1058   1.476   .     S
C1056  C1074   1.420   .     A
C1056  C1064   1.403   .     A
C1057  C687    1.342   1_565 S
C1057  H712    1.088   1_565 S
C1058  O1111   1.303   .     A
C1058  O1112   1.296   .     A
C1059  C1060   1.439   .     S
C1060  O1113   1.286   .     A
C1060  O1114   1.290   .     A
C1061  O1116   1.298   .     A
C1061  C1063   1.463   .     S
C1061  O1115   1.294   .     A
C1062  H1102   1.084   .     S
C1062  C1080   1.388   .     A
C1063  C1079   1.412   .     A
C1063  C1080   1.399   .     A
C1064  C1065   1.391   .     A
C1064  H1103   1.082   .     S
C1065  C509    1.393   1_556 S
C1066  C1074   1.415   .     A
C1066  C509    1.410   1_556 S
C1066  C517    1.422   1_556 S
C1067  H1104   1.078   .     S
C1068  H1091   1.104   .     S
C1068  H1090   1.112   .     S
C1068  C687    1.531   1_565 S
C1068  C697    1.547   1_565 S
C1069  H1089   1.107   .     S
C1070  H1087   1.111   .     S
C1070  H1086   1.110   .     S
C1070  C945    1.528   1_655 S
C1071  C1079   1.535   .     S
C1071  C1072   1.539   .     S
C1071  H1099   1.104   .     S
C1071  H1098   1.112   .     S
C1072  H1097   1.111   .     S
C1072  C1073   1.528   .     S
C1074  C1078   1.410   .     A
C1075  C1079   1.423   .     A
C1076  C1077   1.394   .     A
C1076  C517    1.422   1_556 S
C1076  C504    1.399   1_556 S
C1077  C1078   1.387   .     A
C1077  H1101   1.084   .     S
C1078  H1106   1.078   .     S
C1080  H1083   1.083   .     S
Cu1081 N1108   2.017   .     S
Cu1081 O1113   1.952   .     S
Cu1081 O1111   1.931   .     S
Cu1081 O1109   1.961   .     S
Cu1081 Cu1082  2.685   .     S
Cu1081 O1115   1.911   .     S
Cu1082 N1107   2.017   .     S
Cu1082 O1112   1.911   .     S
Cu1082 O1110   1.952   .     S
Cu1082 O1114   1.961   .     S
Cu1082 O1116   1.931   .     S
H1085  C698    1.109   1_565 S
H1088  C697    1.112   1_565 S
H1092  C701    1.111   1_565 S
H1093  C701    1.111   1_565 S
H1095  C701    1.111   1_565 S
H1096  C514    1.109   1_556 S
H1100  N984    1.029   1_655 S
H1105  C941    1.081   1_655 S
N1107  H970    1.027   1_655 S
N1107  N984    1.280   1_655 S
