data_str_m3_o10_o17_pcu_sym.218
_audit_creation_date              2020-01-03
_audit_creation_method            'Materials Studio'
_symmetry_space_group_name_H-M    'P1'
_symmetry_Int_Tables_number       1
_symmetry_cell_setting            triclinic
loop_
_symmetry_equiv_pos_as_xyz
  x,y,z
_cell_length_a                    23.1836
_cell_length_b                    25.8788
_cell_length_c                    29.9188
_cell_angle_alpha                 90.8916
_cell_angle_beta                  86.3832
_cell_angle_gamma                 93.7280
loop_
_atom_site_label
_atom_site_type_symbol
_atom_site_fract_x
_atom_site_fract_y
_atom_site_fract_z
_atom_site_U_iso_or_equiv
_atom_site_adp_type
_atom_site_occupancy
C1     C     0.18201   0.26472   0.24985   0.00000  Uiso   1.00
C2     C     0.15163   0.06848   0.25144   0.00000  Uiso   1.00
C3     C     0.24454   0.23558   0.47562   0.00000  Uiso   1.00
C4     C     0.08130   0.10452   0.02498   0.00000  Uiso   1.00
C5     C     0.18987   0.31861   0.24493   0.00000  Uiso   1.00
C6     C     0.14557   0.01476   0.25913   0.00000  Uiso   1.00
C7     C     0.16775   0.16706   0.33648   0.00000  Uiso   1.00
C8     C     0.16550   0.16640   0.16355   0.00000  Uiso   1.00
C9     C     0.11937   0.13736   0.09489   0.00000  Uiso   1.00
C10    C     0.20933   0.20039   0.40560   0.00000  Uiso   1.00
C11    C     0.16292   0.16693   0.11598   0.00000  Uiso   1.00
C12    C     0.16955   0.16706   0.38414   0.00000  Uiso   1.00
C13    C     0.20426   0.19849   0.09211   0.00000  Uiso   1.00
C14    C     0.12797   0.13545   0.40787   0.00000  Uiso   1.00
C15    C     0.20362   0.20156   0.04605   0.00000  Uiso   1.00
C16    C     0.12469   0.13608   0.45425   0.00000  Uiso   1.00
C17    C     0.16266   0.16949   0.02361   0.00000  Uiso   1.00
C18    C     0.16455   0.16925   0.47679   0.00000  Uiso   1.00
C19    C     0.12038   0.13716   0.04798   0.00000  Uiso   1.00
C20    C     0.20653   0.20201   0.45253   0.00000  Uiso   1.00
C21    C     0.24372   0.23544   0.02203   0.00000  Uiso   1.00
C22    C     0.08283   0.10388   0.47846   0.00000  Uiso   1.00
H23    H     0.23651   0.22123   0.10996   0.00000  Uiso   1.00
H24    H     0.09817   0.11031   0.38964   0.00000  Uiso   1.00
H25    H     0.27534   0.26257   0.45823   0.00000  Uiso   1.00
H26    H     0.04952   0.07857   0.04260   0.00000  Uiso   1.00
H27    H     0.00443   0.12602   0.21794   0.00000  Uiso   1.00
H28    H     0.32898   0.20833   0.28074   0.00000  Uiso   1.00
N29    N     0.31678   0.15265   0.23783   0.00000  Uiso   1.00
N30    N     0.01656   0.18068   0.26217   0.00000  Uiso   1.00
O31    O     0.12975   0.24619   0.25298   0.00000  Uiso   1.00
O32    O     0.20358   0.08714   0.24702   0.00000  Uiso   1.00
O33    O     0.22613   0.23721   0.24519   0.00000  Uiso   1.00
O34    O     0.10720   0.09613   0.25482   0.00000  Uiso   1.00
O35    O     0.11847   0.17117   0.31998   0.00000  Uiso   1.00
O36    O     0.21486   0.16216   0.18003   0.00000  Uiso   1.00
O37    O     0.21485   0.16219   0.31218   0.00000  Uiso   1.00
O38    O     0.11848   0.17115   0.18782   0.00000  Uiso   1.00
Zn39   Zn    0.10231   0.17266   0.25521   0.00000  Uiso   1.00
Zn40   Zn    0.23102   0.16067   0.24479   0.00000  Uiso   1.00
N41    N     0.07532   0.10849   0.12126   0.00000  Uiso   1.00
H42    H     0.03387   0.10969   0.11089   0.00000  Uiso   1.00
C43    C     0.09015   0.05751   0.13375   0.00000  Uiso   1.00
H44    H     0.09669   0.03258   0.10352   0.00000  Uiso   1.00
H45    H     0.05472   0.03937   0.15607   0.00000  Uiso   1.00
H46    H     0.13008   0.06043   0.15235   0.00000  Uiso   1.00
N47    N     0.24880   0.23422   0.37960   0.00000  Uiso   1.00
H48    H     0.24686   0.27286   0.38813   0.00000  Uiso   1.00
C49    C     0.30735   0.21782   0.37378   0.00000  Uiso   1.00
H50    H     0.32813   0.21777   0.40615   0.00000  Uiso   1.00
H51    H     0.00013   0.24518   0.35130   0.00000  Uiso   1.00
H52    H     0.30753   0.17834   0.35873   0.00000  Uiso   1.00
N53    N     0.28346   0.26966   0.04426   0.00000  Uiso   1.00
H54    H     0.32438   0.27243   0.02842   0.00000  Uiso   1.00
C55    C     0.26215   0.32013   0.05423   0.00000  Uiso   1.00
H56    H     0.25568   0.00729   0.02272   0.00000  Uiso   1.00
H57    H     0.29421   0.01030   0.07332   0.00000  Uiso   1.00
H58    H     0.22052   0.31631   0.07480   0.00000  Uiso   1.00
N59    N     0.04283   0.06979   0.45631   0.00000  Uiso   1.00
H60    H     0.03544   0.03418   0.47140   0.00000  Uiso   1.00
C61    C     0.32259   0.09248   0.44777   0.00000  Uiso   1.00
H62    H     0.29864   0.10225   0.47984   0.00000  Uiso   1.00
H63    H     0.29502   0.06447   0.42868   0.00000  Uiso   1.00
H64    H     0.33149   0.12799   0.42758   0.00000  Uiso   1.00
N65    N     0.24198   0.00530   0.22121   0.00000  Uiso   1.00
H66    H     0.27912   0.32901   0.23552   0.00000  Uiso   1.00
C67    C     0.24464   0.32929   0.17340   0.00000  Uiso   1.00
H68    H     0.28195   0.01937   0.15752   0.00000  Uiso   1.00
H69    H     0.20461   0.00735   0.15888   0.00000  Uiso   1.00
H70    H     0.25039   0.28774   0.16595   0.00000  Uiso   1.00
N71    N     0.09747   0.32890   0.28795   0.00000  Uiso   1.00
H72    H     0.05874   0.01188   0.28383   0.00000  Uiso   1.00
C73    C     0.10964   0.32252   0.33448   0.00000  Uiso   1.00
H74    H     0.09765   0.28197   0.34447   0.00000  Uiso   1.00
H75    H     0.08396   0.01554   0.35627   0.00000  Uiso   1.00
H76    H     0.15630   0.33095   0.34022   0.00000  Uiso   1.00
C77    C     0.51534   0.26472   0.24985   0.00000  Uiso   1.00
C78    C     0.48497   0.06848   0.25144   0.00000  Uiso   1.00
C79    C     0.57788   0.23558   0.47562   0.00000  Uiso   1.00
C80    C     0.41463   0.10452   0.02498   0.00000  Uiso   1.00
C81    C     0.52320   0.31861   0.24493   0.00000  Uiso   1.00
C82    C     0.47890   0.01476   0.25913   0.00000  Uiso   1.00
C83    C     0.50109   0.16706   0.33648   0.00000  Uiso   1.00
C84    C     0.49883   0.16640   0.16355   0.00000  Uiso   1.00
C85    C     0.45271   0.13736   0.09489   0.00000  Uiso   1.00
C86    C     0.54267   0.20039   0.40560   0.00000  Uiso   1.00
C87    C     0.49625   0.16693   0.11598   0.00000  Uiso   1.00
C88    C     0.50289   0.16706   0.38414   0.00000  Uiso   1.00
C89    C     0.53760   0.19849   0.09211   0.00000  Uiso   1.00
C90    C     0.46131   0.13545   0.40787   0.00000  Uiso   1.00
C91    C     0.53695   0.20156   0.04605   0.00000  Uiso   1.00
C92    C     0.45803   0.13608   0.45425   0.00000  Uiso   1.00
C93    C     0.49599   0.16949   0.02361   0.00000  Uiso   1.00
C94    C     0.49788   0.16925   0.47679   0.00000  Uiso   1.00
C95    C     0.45371   0.13716   0.04798   0.00000  Uiso   1.00
C96    C     0.53986   0.20201   0.45253   0.00000  Uiso   1.00
C97    C     0.57705   0.23544   0.02203   0.00000  Uiso   1.00
C98    C     0.41617   0.10388   0.47846   0.00000  Uiso   1.00
H99    H     0.56984   0.22123   0.10996   0.00000  Uiso   1.00
H100   H     0.43150   0.11031   0.38964   0.00000  Uiso   1.00
H101   H     0.60867   0.26257   0.45823   0.00000  Uiso   1.00
H102   H     0.38285   0.07857   0.04260   0.00000  Uiso   1.00
H103   H     0.33776   0.12602   0.21794   0.00000  Uiso   1.00
H104   H     0.66232   0.20833   0.28074   0.00000  Uiso   1.00
N105   N     0.65011   0.15265   0.23783   0.00000  Uiso   1.00
N106   N     0.34989   0.18068   0.26217   0.00000  Uiso   1.00
O107   O     0.46308   0.24619   0.25298   0.00000  Uiso   1.00
O108   O     0.53692   0.08714   0.24702   0.00000  Uiso   1.00
O109   O     0.55946   0.23721   0.24519   0.00000  Uiso   1.00
O110   O     0.44054   0.09613   0.25482   0.00000  Uiso   1.00
O111   O     0.45181   0.17117   0.31998   0.00000  Uiso   1.00
O112   O     0.54819   0.16216   0.18003   0.00000  Uiso   1.00
O113   O     0.54819   0.16219   0.31218   0.00000  Uiso   1.00
O114   O     0.45181   0.17115   0.18782   0.00000  Uiso   1.00
Zn115  Zn    0.43565   0.17266   0.25521   0.00000  Uiso   1.00
Zn116  Zn    0.56435   0.16067   0.24479   0.00000  Uiso   1.00
N117   N     0.40866   0.10849   0.12126   0.00000  Uiso   1.00
H118   H     0.36720   0.10969   0.11089   0.00000  Uiso   1.00
C119   C     0.42348   0.05751   0.13375   0.00000  Uiso   1.00
H120   H     0.43003   0.03258   0.10352   0.00000  Uiso   1.00
H121   H     0.38806   0.03937   0.15607   0.00000  Uiso   1.00
H122   H     0.46342   0.06043   0.15235   0.00000  Uiso   1.00
N123   N     0.58214   0.23422   0.37960   0.00000  Uiso   1.00
H124   H     0.58019   0.27286   0.38813   0.00000  Uiso   1.00
C125   C     0.64069   0.21782   0.37378   0.00000  Uiso   1.00
H126   H     0.66146   0.21777   0.40615   0.00000  Uiso   1.00
H127   H     0.33346   0.24518   0.35130   0.00000  Uiso   1.00
H128   H     0.64086   0.17834   0.35873   0.00000  Uiso   1.00
N129   N     0.61679   0.26966   0.04426   0.00000  Uiso   1.00
H130   H     0.65771   0.27243   0.02842   0.00000  Uiso   1.00
C131   C     0.59549   0.32013   0.05423   0.00000  Uiso   1.00
H132   H     0.58901   0.00729   0.02272   0.00000  Uiso   1.00
H133   H     0.62755   0.01030   0.07332   0.00000  Uiso   1.00
H134   H     0.55385   0.31631   0.07480   0.00000  Uiso   1.00
N135   N     0.37616   0.06979   0.45631   0.00000  Uiso   1.00
H136   H     0.36878   0.03418   0.47140   0.00000  Uiso   1.00
C137   C     0.65593   0.09248   0.44777   0.00000  Uiso   1.00
H138   H     0.63197   0.10225   0.47984   0.00000  Uiso   1.00
H139   H     0.62835   0.06447   0.42868   0.00000  Uiso   1.00
H140   H     0.66483   0.12799   0.42758   0.00000  Uiso   1.00
N141   N     0.57531   0.00530   0.22121   0.00000  Uiso   1.00
H142   H     0.61246   0.32901   0.23552   0.00000  Uiso   1.00
C143   C     0.57797   0.32929   0.17340   0.00000  Uiso   1.00
H144   H     0.61529   0.01937   0.15752   0.00000  Uiso   1.00
H145   H     0.53795   0.00735   0.15888   0.00000  Uiso   1.00
H146   H     0.58373   0.28774   0.16595   0.00000  Uiso   1.00
N147   N     0.43080   0.32890   0.28795   0.00000  Uiso   1.00
H148   H     0.39207   0.01188   0.28383   0.00000  Uiso   1.00
C149   C     0.44298   0.32252   0.33448   0.00000  Uiso   1.00
H150   H     0.43098   0.28197   0.34447   0.00000  Uiso   1.00
H151   H     0.41729   0.01554   0.35627   0.00000  Uiso   1.00
H152   H     0.48963   0.33095   0.34022   0.00000  Uiso   1.00
C153   C     0.84868   0.26472   0.24985   0.00000  Uiso   1.00
C154   C     0.81830   0.06848   0.25144   0.00000  Uiso   1.00
C155   C     0.91121   0.23558   0.47562   0.00000  Uiso   1.00
C156   C     0.74796   0.10452   0.02498   0.00000  Uiso   1.00
C157   C     0.85654   0.31861   0.24493   0.00000  Uiso   1.00
C158   C     0.81224   0.01476   0.25913   0.00000  Uiso   1.00
C159   C     0.83442   0.16706   0.33648   0.00000  Uiso   1.00
C160   C     0.83216   0.16640   0.16355   0.00000  Uiso   1.00
C161   C     0.78604   0.13736   0.09489   0.00000  Uiso   1.00
C162   C     0.87600   0.20039   0.40560   0.00000  Uiso   1.00
C163   C     0.82958   0.16693   0.11598   0.00000  Uiso   1.00
C164   C     0.83622   0.16706   0.38414   0.00000  Uiso   1.00
C165   C     0.87093   0.19849   0.09211   0.00000  Uiso   1.00
C166   C     0.79464   0.13545   0.40787   0.00000  Uiso   1.00
C167   C     0.87029   0.20156   0.04605   0.00000  Uiso   1.00
C168   C     0.79136   0.13608   0.45425   0.00000  Uiso   1.00
C169   C     0.82933   0.16949   0.02361   0.00000  Uiso   1.00
C170   C     0.83122   0.16925   0.47679   0.00000  Uiso   1.00
C171   C     0.78704   0.13716   0.04798   0.00000  Uiso   1.00
C172   C     0.87319   0.20201   0.45253   0.00000  Uiso   1.00
C173   C     0.91039   0.23544   0.02203   0.00000  Uiso   1.00
C174   C     0.74950   0.10388   0.47846   0.00000  Uiso   1.00
H175   H     0.90318   0.22123   0.10996   0.00000  Uiso   1.00
H176   H     0.76484   0.11031   0.38964   0.00000  Uiso   1.00
H177   H     0.94200   0.26257   0.45823   0.00000  Uiso   1.00
H178   H     0.71619   0.07857   0.04260   0.00000  Uiso   1.00
H179   H     0.67109   0.12602   0.21794   0.00000  Uiso   1.00
H180   H     0.99565   0.20833   0.28074   0.00000  Uiso   1.00
N181   N     0.98344   0.15265   0.23783   0.00000  Uiso   1.00
N182   N     0.68322   0.18068   0.26217   0.00000  Uiso   1.00
O183   O     0.79642   0.24619   0.25298   0.00000  Uiso   1.00
O184   O     0.87025   0.08714   0.24702   0.00000  Uiso   1.00
O185   O     0.89280   0.23721   0.24519   0.00000  Uiso   1.00
O186   O     0.77387   0.09613   0.25482   0.00000  Uiso   1.00
O187   O     0.78514   0.17117   0.31998   0.00000  Uiso   1.00
O188   O     0.88153   0.16216   0.18003   0.00000  Uiso   1.00
O189   O     0.88152   0.16219   0.31218   0.00000  Uiso   1.00
O190   O     0.78515   0.17115   0.18782   0.00000  Uiso   1.00
Zn191  Zn    0.76898   0.17266   0.25521   0.00000  Uiso   1.00
Zn192  Zn    0.89769   0.16067   0.24479   0.00000  Uiso   1.00
N193   N     0.74199   0.10849   0.12126   0.00000  Uiso   1.00
H194   H     0.70054   0.10969   0.11089   0.00000  Uiso   1.00
C195   C     0.75681   0.05751   0.13375   0.00000  Uiso   1.00
H196   H     0.76336   0.03258   0.10352   0.00000  Uiso   1.00
H197   H     0.72139   0.03937   0.15607   0.00000  Uiso   1.00
H198   H     0.79675   0.06043   0.15235   0.00000  Uiso   1.00
N199   N     0.91547   0.23422   0.37960   0.00000  Uiso   1.00
H200   H     0.91353   0.27286   0.38813   0.00000  Uiso   1.00
C201   C     0.97402   0.21782   0.37378   0.00000  Uiso   1.00
H202   H     0.99479   0.21777   0.40615   0.00000  Uiso   1.00
H203   H     0.66679   0.24518   0.35130   0.00000  Uiso   1.00
H204   H     0.97420   0.17834   0.35873   0.00000  Uiso   1.00
N205   N     0.95013   0.26966   0.04426   0.00000  Uiso   1.00
H206   H     0.99104   0.27243   0.02842   0.00000  Uiso   1.00
C207   C     0.92882   0.32013   0.05423   0.00000  Uiso   1.00
H208   H     0.92234   0.00729   0.02272   0.00000  Uiso   1.00
H209   H     0.96088   0.01030   0.07332   0.00000  Uiso   1.00
H210   H     0.88719   0.31631   0.07480   0.00000  Uiso   1.00
N211   N     0.70949   0.06979   0.45631   0.00000  Uiso   1.00
H212   H     0.70211   0.03418   0.47140   0.00000  Uiso   1.00
C213   C     0.98926   0.09248   0.44777   0.00000  Uiso   1.00
H214   H     0.96530   0.10225   0.47984   0.00000  Uiso   1.00
H215   H     0.96169   0.06447   0.42868   0.00000  Uiso   1.00
H216   H     0.99816   0.12799   0.42758   0.00000  Uiso   1.00
N217   N     0.90864   0.00530   0.22121   0.00000  Uiso   1.00
H218   H     0.94579   0.32901   0.23552   0.00000  Uiso   1.00
C219   C     0.91131   0.32929   0.17340   0.00000  Uiso   1.00
H220   H     0.94862   0.01937   0.15752   0.00000  Uiso   1.00
H221   H     0.87128   0.00735   0.15888   0.00000  Uiso   1.00
H222   H     0.91706   0.28774   0.16595   0.00000  Uiso   1.00
N223   N     0.76414   0.32890   0.28795   0.00000  Uiso   1.00
H224   H     0.72541   0.01188   0.28383   0.00000  Uiso   1.00
C225   C     0.77631   0.32252   0.33448   0.00000  Uiso   1.00
H226   H     0.76432   0.28197   0.34447   0.00000  Uiso   1.00
H227   H     0.75062   0.01554   0.35627   0.00000  Uiso   1.00
H228   H     0.82296   0.33095   0.34022   0.00000  Uiso   1.00
C229   C     0.18201   0.59805   0.24985   0.00000  Uiso   1.00
C230   C     0.15163   0.40181   0.25144   0.00000  Uiso   1.00
C231   C     0.24454   0.56892   0.47562   0.00000  Uiso   1.00
C232   C     0.08130   0.43785   0.02498   0.00000  Uiso   1.00
C233   C     0.18987   0.65194   0.24493   0.00000  Uiso   1.00
C234   C     0.14557   0.34810   0.25913   0.00000  Uiso   1.00
C235   C     0.16775   0.50039   0.33648   0.00000  Uiso   1.00
C236   C     0.16550   0.49974   0.16355   0.00000  Uiso   1.00
C237   C     0.11937   0.47069   0.09489   0.00000  Uiso   1.00
C238   C     0.20933   0.53372   0.40560   0.00000  Uiso   1.00
C239   C     0.16292   0.50026   0.11598   0.00000  Uiso   1.00
C240   C     0.16955   0.50039   0.38414   0.00000  Uiso   1.00
C241   C     0.20426   0.53182   0.09211   0.00000  Uiso   1.00
C242   C     0.12797   0.46878   0.40787   0.00000  Uiso   1.00
C243   C     0.20362   0.53490   0.04605   0.00000  Uiso   1.00
C244   C     0.12469   0.46941   0.45425   0.00000  Uiso   1.00
C245   C     0.16266   0.50282   0.02361   0.00000  Uiso   1.00
C246   C     0.16455   0.50259   0.47679   0.00000  Uiso   1.00
C247   C     0.12038   0.47049   0.04798   0.00000  Uiso   1.00
C248   C     0.20653   0.53534   0.45253   0.00000  Uiso   1.00
C249   C     0.24372   0.56877   0.02203   0.00000  Uiso   1.00
C250   C     0.08283   0.43721   0.47846   0.00000  Uiso   1.00
H251   H     0.23651   0.55457   0.10996   0.00000  Uiso   1.00
H252   H     0.09817   0.44365   0.38964   0.00000  Uiso   1.00
H253   H     0.27534   0.59590   0.45823   0.00000  Uiso   1.00
H254   H     0.04952   0.41190   0.04260   0.00000  Uiso   1.00
H255   H     0.00443   0.45936   0.21794   0.00000  Uiso   1.00
H256   H     0.32898   0.54166   0.28074   0.00000  Uiso   1.00
N257   N     0.31678   0.48598   0.23783   0.00000  Uiso   1.00
N258   N     0.01656   0.51402   0.26217   0.00000  Uiso   1.00
O259   O     0.12975   0.57952   0.25298   0.00000  Uiso   1.00
O260   O     0.20358   0.42048   0.24702   0.00000  Uiso   1.00
O261   O     0.22613   0.57054   0.24519   0.00000  Uiso   1.00
O262   O     0.10720   0.42946   0.25482   0.00000  Uiso   1.00
O263   O     0.11847   0.50450   0.31998   0.00000  Uiso   1.00
O264   O     0.21486   0.49550   0.18003   0.00000  Uiso   1.00
O265   O     0.21485   0.49552   0.31218   0.00000  Uiso   1.00
O266   O     0.11848   0.50448   0.18782   0.00000  Uiso   1.00
Zn267  Zn    0.10231   0.50600   0.25521   0.00000  Uiso   1.00
Zn268  Zn    0.23102   0.49400   0.24479   0.00000  Uiso   1.00
N269   N     0.07532   0.44182   0.12126   0.00000  Uiso   1.00
H270   H     0.03387   0.44302   0.11089   0.00000  Uiso   1.00
C271   C     0.09015   0.39084   0.13375   0.00000  Uiso   1.00
H272   H     0.09669   0.36591   0.10352   0.00000  Uiso   1.00
H273   H     0.05472   0.37270   0.15607   0.00000  Uiso   1.00
H274   H     0.13008   0.39376   0.15235   0.00000  Uiso   1.00
N275   N     0.24880   0.56756   0.37960   0.00000  Uiso   1.00
H276   H     0.24686   0.60620   0.38813   0.00000  Uiso   1.00
C277   C     0.30735   0.55116   0.37378   0.00000  Uiso   1.00
H278   H     0.32813   0.55110   0.40615   0.00000  Uiso   1.00
H279   H     0.00013   0.57851   0.35130   0.00000  Uiso   1.00
H280   H     0.30753   0.51167   0.35873   0.00000  Uiso   1.00
N281   N     0.28346   0.60299   0.04426   0.00000  Uiso   1.00
H282   H     0.32438   0.60577   0.02842   0.00000  Uiso   1.00
C283   C     0.26215   0.65346   0.05423   0.00000  Uiso   1.00
H284   H     0.25568   0.34062   0.02272   0.00000  Uiso   1.00
H285   H     0.29421   0.34364   0.07332   0.00000  Uiso   1.00
H286   H     0.22052   0.64964   0.07480   0.00000  Uiso   1.00
N287   N     0.04283   0.40312   0.45631   0.00000  Uiso   1.00
H288   H     0.03544   0.36751   0.47140   0.00000  Uiso   1.00
C289   C     0.32259   0.42581   0.44777   0.00000  Uiso   1.00
H290   H     0.29864   0.43558   0.47984   0.00000  Uiso   1.00
H291   H     0.29502   0.39781   0.42868   0.00000  Uiso   1.00
H292   H     0.33149   0.46132   0.42758   0.00000  Uiso   1.00
N293   N     0.24198   0.33863   0.22121   0.00000  Uiso   1.00
H294   H     0.27912   0.66234   0.23552   0.00000  Uiso   1.00
C295   C     0.24464   0.66262   0.17340   0.00000  Uiso   1.00
H296   H     0.28195   0.35270   0.15752   0.00000  Uiso   1.00
H297   H     0.20461   0.34068   0.15888   0.00000  Uiso   1.00
H298   H     0.25039   0.62107   0.16595   0.00000  Uiso   1.00
N299   N     0.09747   0.66224   0.28795   0.00000  Uiso   1.00
H300   H     0.05874   0.34521   0.28383   0.00000  Uiso   1.00
C301   C     0.10964   0.65585   0.33448   0.00000  Uiso   1.00
H302   H     0.09765   0.61530   0.34447   0.00000  Uiso   1.00
H303   H     0.08396   0.34887   0.35627   0.00000  Uiso   1.00
H304   H     0.15630   0.66428   0.34022   0.00000  Uiso   1.00
C305   C     0.51534   0.59805   0.24985   0.00000  Uiso   1.00
C306   C     0.48497   0.40181   0.25144   0.00000  Uiso   1.00
C307   C     0.57788   0.56892   0.47562   0.00000  Uiso   1.00
C308   C     0.41463   0.43785   0.02498   0.00000  Uiso   1.00
C309   C     0.52320   0.65194   0.24493   0.00000  Uiso   1.00
C310   C     0.47890   0.34810   0.25913   0.00000  Uiso   1.00
C311   C     0.50109   0.50039   0.33648   0.00000  Uiso   1.00
C312   C     0.49883   0.49974   0.16355   0.00000  Uiso   1.00
C313   C     0.45271   0.47069   0.09489   0.00000  Uiso   1.00
C314   C     0.54267   0.53372   0.40560   0.00000  Uiso   1.00
C315   C     0.49625   0.50026   0.11598   0.00000  Uiso   1.00
C316   C     0.50289   0.50039   0.38414   0.00000  Uiso   1.00
C317   C     0.53760   0.53182   0.09211   0.00000  Uiso   1.00
C318   C     0.46131   0.46878   0.40787   0.00000  Uiso   1.00
C319   C     0.53695   0.53490   0.04605   0.00000  Uiso   1.00
C320   C     0.45803   0.46941   0.45425   0.00000  Uiso   1.00
C321   C     0.49599   0.50282   0.02361   0.00000  Uiso   1.00
C322   C     0.49788   0.50259   0.47679   0.00000  Uiso   1.00
C323   C     0.45371   0.47049   0.04798   0.00000  Uiso   1.00
C324   C     0.53986   0.53534   0.45253   0.00000  Uiso   1.00
C325   C     0.57705   0.56877   0.02203   0.00000  Uiso   1.00
C326   C     0.41617   0.43721   0.47846   0.00000  Uiso   1.00
H327   H     0.56984   0.55457   0.10996   0.00000  Uiso   1.00
H328   H     0.43150   0.44365   0.38964   0.00000  Uiso   1.00
H329   H     0.60867   0.59590   0.45823   0.00000  Uiso   1.00
H330   H     0.38285   0.41190   0.04260   0.00000  Uiso   1.00
H331   H     0.33776   0.45936   0.21794   0.00000  Uiso   1.00
H332   H     0.66232   0.54166   0.28074   0.00000  Uiso   1.00
N333   N     0.65011   0.48598   0.23783   0.00000  Uiso   1.00
N334   N     0.34989   0.51402   0.26217   0.00000  Uiso   1.00
O335   O     0.46308   0.57952   0.25298   0.00000  Uiso   1.00
O336   O     0.53692   0.42048   0.24702   0.00000  Uiso   1.00
O337   O     0.55946   0.57054   0.24519   0.00000  Uiso   1.00
O338   O     0.44054   0.42946   0.25482   0.00000  Uiso   1.00
O339   O     0.45181   0.50450   0.31998   0.00000  Uiso   1.00
O340   O     0.54819   0.49550   0.18003   0.00000  Uiso   1.00
O341   O     0.54819   0.49552   0.31218   0.00000  Uiso   1.00
O342   O     0.45181   0.50448   0.18782   0.00000  Uiso   1.00
Zn343  Zn    0.43565   0.50600   0.25521   0.00000  Uiso   1.00
Zn344  Zn    0.56435   0.49400   0.24479   0.00000  Uiso   1.00
N345   N     0.40866   0.44182   0.12126   0.00000  Uiso   1.00
H346   H     0.36720   0.44302   0.11089   0.00000  Uiso   1.00
C347   C     0.42348   0.39084   0.13375   0.00000  Uiso   1.00
H348   H     0.43003   0.36591   0.10352   0.00000  Uiso   1.00
H349   H     0.38806   0.37270   0.15607   0.00000  Uiso   1.00
H350   H     0.46342   0.39376   0.15235   0.00000  Uiso   1.00
N351   N     0.58214   0.56756   0.37960   0.00000  Uiso   1.00
H352   H     0.58019   0.60620   0.38813   0.00000  Uiso   1.00
C353   C     0.64069   0.55116   0.37378   0.00000  Uiso   1.00
H354   H     0.66146   0.55110   0.40615   0.00000  Uiso   1.00
H355   H     0.33346   0.57851   0.35130   0.00000  Uiso   1.00
H356   H     0.64086   0.51167   0.35873   0.00000  Uiso   1.00
N357   N     0.61679   0.60299   0.04426   0.00000  Uiso   1.00
H358   H     0.65771   0.60577   0.02842   0.00000  Uiso   1.00
C359   C     0.59549   0.65346   0.05423   0.00000  Uiso   1.00
H360   H     0.58901   0.34062   0.02272   0.00000  Uiso   1.00
H361   H     0.62755   0.34364   0.07332   0.00000  Uiso   1.00
H362   H     0.55385   0.64964   0.07480   0.00000  Uiso   1.00
N363   N     0.37616   0.40312   0.45631   0.00000  Uiso   1.00
H364   H     0.36878   0.36751   0.47140   0.00000  Uiso   1.00
C365   C     0.65593   0.42581   0.44777   0.00000  Uiso   1.00
H366   H     0.63197   0.43558   0.47984   0.00000  Uiso   1.00
H367   H     0.62835   0.39781   0.42868   0.00000  Uiso   1.00
H368   H     0.66483   0.46132   0.42758   0.00000  Uiso   1.00
N369   N     0.57531   0.33863   0.22121   0.00000  Uiso   1.00
H370   H     0.61246   0.66234   0.23552   0.00000  Uiso   1.00
C371   C     0.57797   0.66262   0.17340   0.00000  Uiso   1.00
H372   H     0.61529   0.35270   0.15752   0.00000  Uiso   1.00
H373   H     0.53795   0.34068   0.15888   0.00000  Uiso   1.00
H374   H     0.58373   0.62107   0.16595   0.00000  Uiso   1.00
N375   N     0.43080   0.66224   0.28795   0.00000  Uiso   1.00
H376   H     0.39207   0.34521   0.28383   0.00000  Uiso   1.00
C377   C     0.44298   0.65585   0.33448   0.00000  Uiso   1.00
H378   H     0.43098   0.61530   0.34447   0.00000  Uiso   1.00
H379   H     0.41729   0.34887   0.35627   0.00000  Uiso   1.00
H380   H     0.48963   0.66428   0.34022   0.00000  Uiso   1.00
C381   C     0.84868   0.59805   0.24985   0.00000  Uiso   1.00
C382   C     0.81830   0.40181   0.25144   0.00000  Uiso   1.00
C383   C     0.91121   0.56892   0.47562   0.00000  Uiso   1.00
C384   C     0.74796   0.43785   0.02498   0.00000  Uiso   1.00
C385   C     0.85654   0.65194   0.24493   0.00000  Uiso   1.00
C386   C     0.81224   0.34810   0.25913   0.00000  Uiso   1.00
C387   C     0.83442   0.50039   0.33648   0.00000  Uiso   1.00
C388   C     0.83216   0.49974   0.16355   0.00000  Uiso   1.00
C389   C     0.78604   0.47069   0.09489   0.00000  Uiso   1.00
C390   C     0.87600   0.53372   0.40560   0.00000  Uiso   1.00
C391   C     0.82958   0.50026   0.11598   0.00000  Uiso   1.00
C392   C     0.83622   0.50039   0.38414   0.00000  Uiso   1.00
C393   C     0.87093   0.53182   0.09211   0.00000  Uiso   1.00
C394   C     0.79464   0.46878   0.40787   0.00000  Uiso   1.00
C395   C     0.87029   0.53490   0.04605   0.00000  Uiso   1.00
C396   C     0.79136   0.46941   0.45425   0.00000  Uiso   1.00
C397   C     0.82933   0.50282   0.02361   0.00000  Uiso   1.00
C398   C     0.83122   0.50259   0.47679   0.00000  Uiso   1.00
C399   C     0.78704   0.47049   0.04798   0.00000  Uiso   1.00
C400   C     0.87319   0.53534   0.45253   0.00000  Uiso   1.00
C401   C     0.91039   0.56877   0.02203   0.00000  Uiso   1.00
C402   C     0.74950   0.43721   0.47846   0.00000  Uiso   1.00
H403   H     0.90318   0.55457   0.10996   0.00000  Uiso   1.00
H404   H     0.76484   0.44365   0.38964   0.00000  Uiso   1.00
H405   H     0.94200   0.59590   0.45823   0.00000  Uiso   1.00
H406   H     0.71619   0.41190   0.04260   0.00000  Uiso   1.00
H407   H     0.67109   0.45936   0.21794   0.00000  Uiso   1.00
H408   H     0.99565   0.54166   0.28074   0.00000  Uiso   1.00
N409   N     0.98344   0.48598   0.23783   0.00000  Uiso   1.00
N410   N     0.68322   0.51402   0.26217   0.00000  Uiso   1.00
O411   O     0.79642   0.57952   0.25298   0.00000  Uiso   1.00
O412   O     0.87025   0.42048   0.24702   0.00000  Uiso   1.00
O413   O     0.89280   0.57054   0.24519   0.00000  Uiso   1.00
O414   O     0.77387   0.42946   0.25482   0.00000  Uiso   1.00
O415   O     0.78514   0.50450   0.31998   0.00000  Uiso   1.00
O416   O     0.88153   0.49550   0.18003   0.00000  Uiso   1.00
O417   O     0.88152   0.49552   0.31218   0.00000  Uiso   1.00
O418   O     0.78515   0.50448   0.18782   0.00000  Uiso   1.00
Zn419  Zn    0.76898   0.50600   0.25521   0.00000  Uiso   1.00
Zn420  Zn    0.89769   0.49400   0.24479   0.00000  Uiso   1.00
N421   N     0.74199   0.44182   0.12126   0.00000  Uiso   1.00
H422   H     0.70054   0.44302   0.11089   0.00000  Uiso   1.00
C423   C     0.75681   0.39084   0.13375   0.00000  Uiso   1.00
H424   H     0.76336   0.36591   0.10352   0.00000  Uiso   1.00
H425   H     0.72139   0.37270   0.15607   0.00000  Uiso   1.00
H426   H     0.79675   0.39376   0.15235   0.00000  Uiso   1.00
N427   N     0.91547   0.56756   0.37960   0.00000  Uiso   1.00
H428   H     0.91353   0.60620   0.38813   0.00000  Uiso   1.00
C429   C     0.97402   0.55116   0.37378   0.00000  Uiso   1.00
H430   H     0.99479   0.55110   0.40615   0.00000  Uiso   1.00
H431   H     0.66679   0.57851   0.35130   0.00000  Uiso   1.00
H432   H     0.97420   0.51167   0.35873   0.00000  Uiso   1.00
N433   N     0.95013   0.60299   0.04426   0.00000  Uiso   1.00
H434   H     0.99104   0.60577   0.02842   0.00000  Uiso   1.00
C435   C     0.92882   0.65346   0.05423   0.00000  Uiso   1.00
H436   H     0.92234   0.34062   0.02272   0.00000  Uiso   1.00
H437   H     0.96088   0.34364   0.07332   0.00000  Uiso   1.00
H438   H     0.88719   0.64964   0.07480   0.00000  Uiso   1.00
N439   N     0.70949   0.40312   0.45631   0.00000  Uiso   1.00
H440   H     0.70211   0.36751   0.47140   0.00000  Uiso   1.00
C441   C     0.98926   0.42581   0.44777   0.00000  Uiso   1.00
H442   H     0.96530   0.43558   0.47984   0.00000  Uiso   1.00
H443   H     0.96169   0.39781   0.42868   0.00000  Uiso   1.00
H444   H     0.99816   0.46132   0.42758   0.00000  Uiso   1.00
N445   N     0.90864   0.33863   0.22121   0.00000  Uiso   1.00
H446   H     0.94579   0.66234   0.23552   0.00000  Uiso   1.00
C447   C     0.91131   0.66262   0.17340   0.00000  Uiso   1.00
H448   H     0.94862   0.35270   0.15752   0.00000  Uiso   1.00
H449   H     0.87128   0.34068   0.15888   0.00000  Uiso   1.00
H450   H     0.91706   0.62107   0.16595   0.00000  Uiso   1.00
N451   N     0.76414   0.66224   0.28795   0.00000  Uiso   1.00
H452   H     0.72541   0.34521   0.28383   0.00000  Uiso   1.00
C453   C     0.77631   0.65585   0.33448   0.00000  Uiso   1.00
H454   H     0.76432   0.61530   0.34447   0.00000  Uiso   1.00
H455   H     0.75062   0.34887   0.35627   0.00000  Uiso   1.00
H456   H     0.82296   0.66428   0.34022   0.00000  Uiso   1.00
C457   C     0.18201   0.93139   0.24985   0.00000  Uiso   1.00
C458   C     0.15163   0.73515   0.25144   0.00000  Uiso   1.00
C459   C     0.24454   0.90225   0.47562   0.00000  Uiso   1.00
C460   C     0.08130   0.77118   0.02498   0.00000  Uiso   1.00
C461   C     0.18987   0.98528   0.24493   0.00000  Uiso   1.00
C462   C     0.14557   0.68143   0.25913   0.00000  Uiso   1.00
C463   C     0.16775   0.83372   0.33648   0.00000  Uiso   1.00
C464   C     0.16550   0.83307   0.16355   0.00000  Uiso   1.00
C465   C     0.11937   0.80403   0.09489   0.00000  Uiso   1.00
C466   C     0.20933   0.86705   0.40560   0.00000  Uiso   1.00
C467   C     0.16292   0.83359   0.11598   0.00000  Uiso   1.00
C468   C     0.16955   0.83372   0.38414   0.00000  Uiso   1.00
C469   C     0.20426   0.86516   0.09211   0.00000  Uiso   1.00
C470   C     0.12797   0.80211   0.40787   0.00000  Uiso   1.00
C471   C     0.20362   0.86823   0.04605   0.00000  Uiso   1.00
C472   C     0.12469   0.80274   0.45425   0.00000  Uiso   1.00
C473   C     0.16266   0.83615   0.02361   0.00000  Uiso   1.00
C474   C     0.16455   0.83592   0.47679   0.00000  Uiso   1.00
C475   C     0.12038   0.80382   0.04798   0.00000  Uiso   1.00
C476   C     0.20653   0.86868   0.45253   0.00000  Uiso   1.00
C477   C     0.24372   0.90210   0.02203   0.00000  Uiso   1.00
C478   C     0.08283   0.77054   0.47846   0.00000  Uiso   1.00
H479   H     0.23651   0.88790   0.10996   0.00000  Uiso   1.00
H480   H     0.09817   0.77698   0.38964   0.00000  Uiso   1.00
H481   H     0.27534   0.92923   0.45823   0.00000  Uiso   1.00
H482   H     0.04952   0.74524   0.04260   0.00000  Uiso   1.00
H483   H     0.00443   0.79269   0.21794   0.00000  Uiso   1.00
H484   H     0.32898   0.87499   0.28074   0.00000  Uiso   1.00
N485   N     0.31678   0.81932   0.23783   0.00000  Uiso   1.00
N486   N     0.01656   0.84735   0.26217   0.00000  Uiso   1.00
O487   O     0.12975   0.91286   0.25298   0.00000  Uiso   1.00
O488   O     0.20358   0.75381   0.24702   0.00000  Uiso   1.00
O489   O     0.22613   0.90387   0.24519   0.00000  Uiso   1.00
O490   O     0.10720   0.76279   0.25482   0.00000  Uiso   1.00
O491   O     0.11847   0.83784   0.31998   0.00000  Uiso   1.00
O492   O     0.21486   0.82883   0.18003   0.00000  Uiso   1.00
O493   O     0.21485   0.82885   0.31218   0.00000  Uiso   1.00
O494   O     0.11848   0.83781   0.18782   0.00000  Uiso   1.00
Zn495  Zn    0.10231   0.83933   0.25521   0.00000  Uiso   1.00
Zn496  Zn    0.23102   0.82734   0.24479   0.00000  Uiso   1.00
N497   N     0.07532   0.77516   0.12126   0.00000  Uiso   1.00
H498   H     0.03387   0.77636   0.11089   0.00000  Uiso   1.00
C499   C     0.09015   0.72417   0.13375   0.00000  Uiso   1.00
H500   H     0.09669   0.69924   0.10352   0.00000  Uiso   1.00
H501   H     0.05472   0.70603   0.15607   0.00000  Uiso   1.00
H502   H     0.13008   0.72710   0.15235   0.00000  Uiso   1.00
N503   N     0.24880   0.90089   0.37960   0.00000  Uiso   1.00
H504   H     0.24686   0.93953   0.38813   0.00000  Uiso   1.00
C505   C     0.30735   0.88449   0.37378   0.00000  Uiso   1.00
H506   H     0.32813   0.88443   0.40615   0.00000  Uiso   1.00
H507   H     0.00013   0.91185   0.35130   0.00000  Uiso   1.00
H508   H     0.30753   0.84501   0.35873   0.00000  Uiso   1.00
N509   N     0.28346   0.93633   0.04426   0.00000  Uiso   1.00
H510   H     0.32438   0.93910   0.02842   0.00000  Uiso   1.00
C511   C     0.26215   0.98680   0.05423   0.00000  Uiso   1.00
H512   H     0.25568   0.67396   0.02272   0.00000  Uiso   1.00
H513   H     0.29421   0.67697   0.07332   0.00000  Uiso   1.00
H514   H     0.22052   0.98298   0.07480   0.00000  Uiso   1.00
N515   N     0.04283   0.73646   0.45631   0.00000  Uiso   1.00
H516   H     0.03544   0.70085   0.47140   0.00000  Uiso   1.00
C517   C     0.32259   0.75915   0.44777   0.00000  Uiso   1.00
H518   H     0.29864   0.76892   0.47984   0.00000  Uiso   1.00
H519   H     0.29502   0.73114   0.42868   0.00000  Uiso   1.00
H520   H     0.33149   0.79465   0.42758   0.00000  Uiso   1.00
N521   N     0.24198   0.67196   0.22121   0.00000  Uiso   1.00
H522   H     0.27912   0.99568   0.23552   0.00000  Uiso   1.00
C523   C     0.24464   0.99596   0.17340   0.00000  Uiso   1.00
H524   H     0.28195   0.68603   0.15752   0.00000  Uiso   1.00
H525   H     0.20461   0.67401   0.15888   0.00000  Uiso   1.00
H526   H     0.25039   0.95441   0.16595   0.00000  Uiso   1.00
N527   N     0.09747   0.99557   0.28795   0.00000  Uiso   1.00
H528   H     0.05874   0.67855   0.28383   0.00000  Uiso   1.00
C529   C     0.10964   0.98918   0.33448   0.00000  Uiso   1.00
H530   H     0.09765   0.94864   0.34447   0.00000  Uiso   1.00
H531   H     0.08396   0.68220   0.35627   0.00000  Uiso   1.00
H532   H     0.15630   0.99762   0.34022   0.00000  Uiso   1.00
C533   C     0.51534   0.93139   0.24985   0.00000  Uiso   1.00
C534   C     0.48497   0.73515   0.25144   0.00000  Uiso   1.00
C535   C     0.57788   0.90225   0.47562   0.00000  Uiso   1.00
C536   C     0.41463   0.77118   0.02498   0.00000  Uiso   1.00
C537   C     0.52320   0.98528   0.24493   0.00000  Uiso   1.00
C538   C     0.47890   0.68143   0.25913   0.00000  Uiso   1.00
C539   C     0.50109   0.83372   0.33648   0.00000  Uiso   1.00
C540   C     0.49883   0.83307   0.16355   0.00000  Uiso   1.00
C541   C     0.45271   0.80403   0.09489   0.00000  Uiso   1.00
C542   C     0.54267   0.86705   0.40560   0.00000  Uiso   1.00
C543   C     0.49625   0.83359   0.11598   0.00000  Uiso   1.00
C544   C     0.50289   0.83372   0.38414   0.00000  Uiso   1.00
C545   C     0.53760   0.86516   0.09211   0.00000  Uiso   1.00
C546   C     0.46131   0.80211   0.40787   0.00000  Uiso   1.00
C547   C     0.53695   0.86823   0.04605   0.00000  Uiso   1.00
C548   C     0.45803   0.80274   0.45425   0.00000  Uiso   1.00
C549   C     0.49599   0.83615   0.02361   0.00000  Uiso   1.00
C550   C     0.49788   0.83592   0.47679   0.00000  Uiso   1.00
C551   C     0.45371   0.80382   0.04798   0.00000  Uiso   1.00
C552   C     0.53986   0.86868   0.45253   0.00000  Uiso   1.00
C553   C     0.57705   0.90210   0.02203   0.00000  Uiso   1.00
C554   C     0.41617   0.77054   0.47846   0.00000  Uiso   1.00
H555   H     0.56984   0.88790   0.10996   0.00000  Uiso   1.00
H556   H     0.43150   0.77698   0.38964   0.00000  Uiso   1.00
H557   H     0.60867   0.92923   0.45823   0.00000  Uiso   1.00
H558   H     0.38285   0.74524   0.04260   0.00000  Uiso   1.00
H559   H     0.33776   0.79269   0.21794   0.00000  Uiso   1.00
H560   H     0.66232   0.87499   0.28074   0.00000  Uiso   1.00
N561   N     0.65011   0.81932   0.23783   0.00000  Uiso   1.00
N562   N     0.34989   0.84735   0.26217   0.00000  Uiso   1.00
O563   O     0.46308   0.91286   0.25298   0.00000  Uiso   1.00
O564   O     0.53692   0.75381   0.24702   0.00000  Uiso   1.00
O565   O     0.55946   0.90387   0.24519   0.00000  Uiso   1.00
O566   O     0.44054   0.76279   0.25482   0.00000  Uiso   1.00
O567   O     0.45181   0.83784   0.31998   0.00000  Uiso   1.00
O568   O     0.54819   0.82883   0.18003   0.00000  Uiso   1.00
O569   O     0.54819   0.82885   0.31218   0.00000  Uiso   1.00
O570   O     0.45181   0.83781   0.18782   0.00000  Uiso   1.00
Zn571  Zn    0.43565   0.83933   0.25521   0.00000  Uiso   1.00
Zn572  Zn    0.56435   0.82734   0.24479   0.00000  Uiso   1.00
N573   N     0.40866   0.77516   0.12126   0.00000  Uiso   1.00
H574   H     0.36720   0.77636   0.11089   0.00000  Uiso   1.00
C575   C     0.42348   0.72417   0.13375   0.00000  Uiso   1.00
H576   H     0.43003   0.69924   0.10352   0.00000  Uiso   1.00
H577   H     0.38806   0.70603   0.15607   0.00000  Uiso   1.00
H578   H     0.46342   0.72710   0.15235   0.00000  Uiso   1.00
N579   N     0.58214   0.90089   0.37960   0.00000  Uiso   1.00
H580   H     0.58019   0.93953   0.38813   0.00000  Uiso   1.00
C581   C     0.64069   0.88449   0.37378   0.00000  Uiso   1.00
H582   H     0.66146   0.88443   0.40615   0.00000  Uiso   1.00
H583   H     0.33346   0.91185   0.35130   0.00000  Uiso   1.00
H584   H     0.64086   0.84501   0.35873   0.00000  Uiso   1.00
N585   N     0.61679   0.93633   0.04426   0.00000  Uiso   1.00
H586   H     0.65771   0.93910   0.02842   0.00000  Uiso   1.00
C587   C     0.59549   0.98680   0.05423   0.00000  Uiso   1.00
H588   H     0.58901   0.67396   0.02272   0.00000  Uiso   1.00
H589   H     0.62755   0.67697   0.07332   0.00000  Uiso   1.00
H590   H     0.55385   0.98298   0.07480   0.00000  Uiso   1.00
N591   N     0.37616   0.73646   0.45631   0.00000  Uiso   1.00
H592   H     0.36878   0.70085   0.47140   0.00000  Uiso   1.00
C593   C     0.65593   0.75915   0.44777   0.00000  Uiso   1.00
H594   H     0.63197   0.76892   0.47984   0.00000  Uiso   1.00
H595   H     0.62835   0.73114   0.42868   0.00000  Uiso   1.00
H596   H     0.66483   0.79465   0.42758   0.00000  Uiso   1.00
N597   N     0.57531   0.67196   0.22121   0.00000  Uiso   1.00
H598   H     0.61246   0.99568   0.23552   0.00000  Uiso   1.00
C599   C     0.57797   0.99596   0.17340   0.00000  Uiso   1.00
H600   H     0.61529   0.68603   0.15752   0.00000  Uiso   1.00
H601   H     0.53795   0.67401   0.15888   0.00000  Uiso   1.00
H602   H     0.58373   0.95441   0.16595   0.00000  Uiso   1.00
N603   N     0.43080   0.99557   0.28795   0.00000  Uiso   1.00
H604   H     0.39207   0.67855   0.28383   0.00000  Uiso   1.00
C605   C     0.44298   0.98918   0.33448   0.00000  Uiso   1.00
H606   H     0.43098   0.94864   0.34447   0.00000  Uiso   1.00
H607   H     0.41729   0.68220   0.35627   0.00000  Uiso   1.00
H608   H     0.48963   0.99762   0.34022   0.00000  Uiso   1.00
C609   C     0.84868   0.93139   0.24985   0.00000  Uiso   1.00
C610   C     0.81830   0.73515   0.25144   0.00000  Uiso   1.00
C611   C     0.91121   0.90225   0.47562   0.00000  Uiso   1.00
C612   C     0.74796   0.77118   0.02498   0.00000  Uiso   1.00
C613   C     0.85654   0.98528   0.24493   0.00000  Uiso   1.00
C614   C     0.81224   0.68143   0.25913   0.00000  Uiso   1.00
C615   C     0.83442   0.83372   0.33648   0.00000  Uiso   1.00
C616   C     0.83216   0.83307   0.16355   0.00000  Uiso   1.00
C617   C     0.78604   0.80403   0.09489   0.00000  Uiso   1.00
C618   C     0.87600   0.86705   0.40560   0.00000  Uiso   1.00
C619   C     0.82958   0.83359   0.11598   0.00000  Uiso   1.00
C620   C     0.83622   0.83372   0.38414   0.00000  Uiso   1.00
C621   C     0.87093   0.86516   0.09211   0.00000  Uiso   1.00
C622   C     0.79464   0.80211   0.40787   0.00000  Uiso   1.00
C623   C     0.87029   0.86823   0.04605   0.00000  Uiso   1.00
C624   C     0.79136   0.80274   0.45425   0.00000  Uiso   1.00
C625   C     0.82933   0.83615   0.02361   0.00000  Uiso   1.00
C626   C     0.83122   0.83592   0.47679   0.00000  Uiso   1.00
C627   C     0.78704   0.80382   0.04798   0.00000  Uiso   1.00
C628   C     0.87319   0.86868   0.45253   0.00000  Uiso   1.00
C629   C     0.91039   0.90210   0.02203   0.00000  Uiso   1.00
C630   C     0.74950   0.77054   0.47846   0.00000  Uiso   1.00
H631   H     0.90318   0.88790   0.10996   0.00000  Uiso   1.00
H632   H     0.76484   0.77698   0.38964   0.00000  Uiso   1.00
H633   H     0.94200   0.92923   0.45823   0.00000  Uiso   1.00
H634   H     0.71619   0.74524   0.04260   0.00000  Uiso   1.00
H635   H     0.67109   0.79269   0.21794   0.00000  Uiso   1.00
H636   H     0.99565   0.87499   0.28074   0.00000  Uiso   1.00
N637   N     0.98344   0.81932   0.23783   0.00000  Uiso   1.00
N638   N     0.68322   0.84735   0.26217   0.00000  Uiso   1.00
O639   O     0.79642   0.91286   0.25298   0.00000  Uiso   1.00
O640   O     0.87025   0.75381   0.24702   0.00000  Uiso   1.00
O641   O     0.89280   0.90387   0.24519   0.00000  Uiso   1.00
O642   O     0.77387   0.76279   0.25482   0.00000  Uiso   1.00
O643   O     0.78514   0.83784   0.31998   0.00000  Uiso   1.00
O644   O     0.88153   0.82883   0.18003   0.00000  Uiso   1.00
O645   O     0.88152   0.82885   0.31218   0.00000  Uiso   1.00
O646   O     0.78515   0.83781   0.18782   0.00000  Uiso   1.00
Zn647  Zn    0.76898   0.83933   0.25521   0.00000  Uiso   1.00
Zn648  Zn    0.89769   0.82734   0.24479   0.00000  Uiso   1.00
N649   N     0.74199   0.77516   0.12126   0.00000  Uiso   1.00
H650   H     0.70054   0.77636   0.11089   0.00000  Uiso   1.00
C651   C     0.75681   0.72417   0.13375   0.00000  Uiso   1.00
H652   H     0.76336   0.69924   0.10352   0.00000  Uiso   1.00
H653   H     0.72139   0.70603   0.15607   0.00000  Uiso   1.00
H654   H     0.79675   0.72710   0.15235   0.00000  Uiso   1.00
N655   N     0.91547   0.90089   0.37960   0.00000  Uiso   1.00
H656   H     0.91353   0.93953   0.38813   0.00000  Uiso   1.00
C657   C     0.97402   0.88449   0.37378   0.00000  Uiso   1.00
H658   H     0.99479   0.88443   0.40615   0.00000  Uiso   1.00
H659   H     0.66679   0.91185   0.35130   0.00000  Uiso   1.00
H660   H     0.97420   0.84501   0.35873   0.00000  Uiso   1.00
N661   N     0.95013   0.93633   0.04426   0.00000  Uiso   1.00
H662   H     0.99104   0.93910   0.02842   0.00000  Uiso   1.00
C663   C     0.92882   0.98680   0.05423   0.00000  Uiso   1.00
H664   H     0.92234   0.67396   0.02272   0.00000  Uiso   1.00
H665   H     0.96088   0.67697   0.07332   0.00000  Uiso   1.00
H666   H     0.88719   0.98298   0.07480   0.00000  Uiso   1.00
N667   N     0.70949   0.73646   0.45631   0.00000  Uiso   1.00
H668   H     0.70211   0.70085   0.47140   0.00000  Uiso   1.00
C669   C     0.98926   0.75915   0.44777   0.00000  Uiso   1.00
H670   H     0.96530   0.76892   0.47984   0.00000  Uiso   1.00
H671   H     0.96169   0.73114   0.42868   0.00000  Uiso   1.00
H672   H     0.99816   0.79465   0.42758   0.00000  Uiso   1.00
N673   N     0.90864   0.67196   0.22121   0.00000  Uiso   1.00
H674   H     0.94579   0.99568   0.23552   0.00000  Uiso   1.00
C675   C     0.91131   0.99596   0.17340   0.00000  Uiso   1.00
H676   H     0.94862   0.68603   0.15752   0.00000  Uiso   1.00
H677   H     0.87128   0.67401   0.15888   0.00000  Uiso   1.00
H678   H     0.91706   0.95441   0.16595   0.00000  Uiso   1.00
N679   N     0.76414   0.99557   0.28795   0.00000  Uiso   1.00
H680   H     0.72541   0.67855   0.28383   0.00000  Uiso   1.00
C681   C     0.77631   0.98918   0.33448   0.00000  Uiso   1.00
H682   H     0.76432   0.94864   0.34447   0.00000  Uiso   1.00
H683   H     0.75062   0.68220   0.35627   0.00000  Uiso   1.00
H684   H     0.82296   0.99762   0.34022   0.00000  Uiso   1.00
C685   C     0.18201   0.26472   0.74985   0.00000  Uiso   1.00
C686   C     0.15163   0.06848   0.75144   0.00000  Uiso   1.00
C687   C     0.24454   0.23558   0.97562   0.00000  Uiso   1.00
C688   C     0.08130   0.10452   0.52498   0.00000  Uiso   1.00
C689   C     0.18987   0.31861   0.74493   0.00000  Uiso   1.00
C690   C     0.14557   0.01476   0.75913   0.00000  Uiso   1.00
C691   C     0.16775   0.16706   0.83648   0.00000  Uiso   1.00
C692   C     0.16550   0.16640   0.66355   0.00000  Uiso   1.00
C693   C     0.11937   0.13736   0.59489   0.00000  Uiso   1.00
C694   C     0.20933   0.20039   0.90560   0.00000  Uiso   1.00
C695   C     0.16292   0.16693   0.61598   0.00000  Uiso   1.00
C696   C     0.16955   0.16706   0.88414   0.00000  Uiso   1.00
C697   C     0.20426   0.19849   0.59211   0.00000  Uiso   1.00
C698   C     0.12797   0.13545   0.90787   0.00000  Uiso   1.00
C699   C     0.20362   0.20156   0.54605   0.00000  Uiso   1.00
C700   C     0.12469   0.13608   0.95425   0.00000  Uiso   1.00
C701   C     0.16266   0.16949   0.52361   0.00000  Uiso   1.00
C702   C     0.16455   0.16925   0.97679   0.00000  Uiso   1.00
C703   C     0.12038   0.13716   0.54798   0.00000  Uiso   1.00
C704   C     0.20653   0.20201   0.95253   0.00000  Uiso   1.00
C705   C     0.24372   0.23544   0.52203   0.00000  Uiso   1.00
C706   C     0.08283   0.10388   0.97846   0.00000  Uiso   1.00
H707   H     0.23651   0.22123   0.60996   0.00000  Uiso   1.00
H708   H     0.09817   0.11031   0.88964   0.00000  Uiso   1.00
H709   H     0.27534   0.26257   0.95823   0.00000  Uiso   1.00
H710   H     0.04952   0.07857   0.54260   0.00000  Uiso   1.00
H711   H     0.00443   0.12602   0.71794   0.00000  Uiso   1.00
H712   H     0.32898   0.20833   0.78074   0.00000  Uiso   1.00
N713   N     0.31678   0.15265   0.73783   0.00000  Uiso   1.00
N714   N     0.01656   0.18068   0.76217   0.00000  Uiso   1.00
O715   O     0.12975   0.24619   0.75298   0.00000  Uiso   1.00
O716   O     0.20358   0.08714   0.74702   0.00000  Uiso   1.00
O717   O     0.22613   0.23721   0.74519   0.00000  Uiso   1.00
O718   O     0.10720   0.09613   0.75482   0.00000  Uiso   1.00
O719   O     0.11847   0.17117   0.81998   0.00000  Uiso   1.00
O720   O     0.21486   0.16216   0.68003   0.00000  Uiso   1.00
O721   O     0.21485   0.16219   0.81218   0.00000  Uiso   1.00
O722   O     0.11848   0.17115   0.68782   0.00000  Uiso   1.00
Zn723  Zn    0.10231   0.17266   0.75521   0.00000  Uiso   1.00
Zn724  Zn    0.23102   0.16067   0.74479   0.00000  Uiso   1.00
N725   N     0.07532   0.10849   0.62126   0.00000  Uiso   1.00
H726   H     0.03387   0.10969   0.61089   0.00000  Uiso   1.00
C727   C     0.09015   0.05751   0.63375   0.00000  Uiso   1.00
H728   H     0.09669   0.03258   0.60352   0.00000  Uiso   1.00
H729   H     0.05472   0.03937   0.65607   0.00000  Uiso   1.00
H730   H     0.13008   0.06043   0.65235   0.00000  Uiso   1.00
N731   N     0.24880   0.23422   0.87960   0.00000  Uiso   1.00
H732   H     0.24686   0.27286   0.88813   0.00000  Uiso   1.00
C733   C     0.30735   0.21782   0.87378   0.00000  Uiso   1.00
H734   H     0.32813   0.21777   0.90615   0.00000  Uiso   1.00
H735   H     0.00013   0.24518   0.85130   0.00000  Uiso   1.00
H736   H     0.30753   0.17834   0.85873   0.00000  Uiso   1.00
N737   N     0.28346   0.26966   0.54426   0.00000  Uiso   1.00
H738   H     0.32438   0.27243   0.52842   0.00000  Uiso   1.00
C739   C     0.26215   0.32013   0.55423   0.00000  Uiso   1.00
H740   H     0.25568   0.00729   0.52272   0.00000  Uiso   1.00
H741   H     0.29421   0.01030   0.57332   0.00000  Uiso   1.00
H742   H     0.22052   0.31631   0.57480   0.00000  Uiso   1.00
N743   N     0.04283   0.06979   0.95631   0.00000  Uiso   1.00
H744   H     0.03544   0.03418   0.97140   0.00000  Uiso   1.00
C745   C     0.32259   0.09248   0.94777   0.00000  Uiso   1.00
H746   H     0.29864   0.10225   0.97984   0.00000  Uiso   1.00
H747   H     0.29502   0.06447   0.92868   0.00000  Uiso   1.00
H748   H     0.33149   0.12799   0.92758   0.00000  Uiso   1.00
N749   N     0.24198   0.00530   0.72121   0.00000  Uiso   1.00
H750   H     0.27912   0.32901   0.73552   0.00000  Uiso   1.00
C751   C     0.24464   0.32929   0.67340   0.00000  Uiso   1.00
H752   H     0.28195   0.01937   0.65752   0.00000  Uiso   1.00
H753   H     0.20461   0.00735   0.65888   0.00000  Uiso   1.00
H754   H     0.25039   0.28774   0.66595   0.00000  Uiso   1.00
N755   N     0.09747   0.32890   0.78795   0.00000  Uiso   1.00
H756   H     0.05874   0.01188   0.78383   0.00000  Uiso   1.00
C757   C     0.10964   0.32252   0.83448   0.00000  Uiso   1.00
H758   H     0.09765   0.28197   0.84447   0.00000  Uiso   1.00
H759   H     0.08396   0.01554   0.85627   0.00000  Uiso   1.00
H760   H     0.15630   0.33095   0.84022   0.00000  Uiso   1.00
C761   C     0.51534   0.26472   0.74985   0.00000  Uiso   1.00
C762   C     0.48497   0.06848   0.75144   0.00000  Uiso   1.00
C763   C     0.57788   0.23558   0.97562   0.00000  Uiso   1.00
C764   C     0.41463   0.10452   0.52498   0.00000  Uiso   1.00
C765   C     0.52320   0.31861   0.74493   0.00000  Uiso   1.00
C766   C     0.47890   0.01476   0.75913   0.00000  Uiso   1.00
C767   C     0.50109   0.16706   0.83648   0.00000  Uiso   1.00
C768   C     0.49883   0.16640   0.66355   0.00000  Uiso   1.00
C769   C     0.45271   0.13736   0.59489   0.00000  Uiso   1.00
C770   C     0.54267   0.20039   0.90560   0.00000  Uiso   1.00
C771   C     0.49625   0.16693   0.61598   0.00000  Uiso   1.00
C772   C     0.50289   0.16706   0.88414   0.00000  Uiso   1.00
C773   C     0.53760   0.19849   0.59211   0.00000  Uiso   1.00
C774   C     0.46131   0.13545   0.90787   0.00000  Uiso   1.00
C775   C     0.53695   0.20156   0.54605   0.00000  Uiso   1.00
C776   C     0.45803   0.13608   0.95425   0.00000  Uiso   1.00
C777   C     0.49599   0.16949   0.52361   0.00000  Uiso   1.00
C778   C     0.49788   0.16925   0.97679   0.00000  Uiso   1.00
C779   C     0.45371   0.13716   0.54798   0.00000  Uiso   1.00
C780   C     0.53986   0.20201   0.95253   0.00000  Uiso   1.00
C781   C     0.57705   0.23544   0.52203   0.00000  Uiso   1.00
C782   C     0.41617   0.10388   0.97846   0.00000  Uiso   1.00
H783   H     0.56984   0.22123   0.60996   0.00000  Uiso   1.00
H784   H     0.43150   0.11031   0.88964   0.00000  Uiso   1.00
H785   H     0.60867   0.26257   0.95823   0.00000  Uiso   1.00
H786   H     0.38285   0.07857   0.54260   0.00000  Uiso   1.00
H787   H     0.33776   0.12602   0.71794   0.00000  Uiso   1.00
H788   H     0.66232   0.20833   0.78074   0.00000  Uiso   1.00
N789   N     0.65011   0.15265   0.73783   0.00000  Uiso   1.00
N790   N     0.34989   0.18068   0.76217   0.00000  Uiso   1.00
O791   O     0.46308   0.24619   0.75298   0.00000  Uiso   1.00
O792   O     0.53692   0.08714   0.74702   0.00000  Uiso   1.00
O793   O     0.55946   0.23721   0.74519   0.00000  Uiso   1.00
O794   O     0.44054   0.09613   0.75482   0.00000  Uiso   1.00
O795   O     0.45181   0.17117   0.81998   0.00000  Uiso   1.00
O796   O     0.54819   0.16216   0.68003   0.00000  Uiso   1.00
O797   O     0.54819   0.16219   0.81218   0.00000  Uiso   1.00
O798   O     0.45181   0.17115   0.68782   0.00000  Uiso   1.00
Zn799  Zn    0.43565   0.17266   0.75521   0.00000  Uiso   1.00
Zn800  Zn    0.56435   0.16067   0.74479   0.00000  Uiso   1.00
N801   N     0.40866   0.10849   0.62126   0.00000  Uiso   1.00
H802   H     0.36720   0.10969   0.61089   0.00000  Uiso   1.00
C803   C     0.42348   0.05751   0.63375   0.00000  Uiso   1.00
H804   H     0.43003   0.03258   0.60352   0.00000  Uiso   1.00
H805   H     0.38806   0.03937   0.65607   0.00000  Uiso   1.00
H806   H     0.46342   0.06043   0.65235   0.00000  Uiso   1.00
N807   N     0.58214   0.23422   0.87960   0.00000  Uiso   1.00
H808   H     0.58019   0.27286   0.88813   0.00000  Uiso   1.00
C809   C     0.64069   0.21782   0.87378   0.00000  Uiso   1.00
H810   H     0.66146   0.21777   0.90615   0.00000  Uiso   1.00
H811   H     0.33346   0.24518   0.85130   0.00000  Uiso   1.00
H812   H     0.64086   0.17834   0.85873   0.00000  Uiso   1.00
N813   N     0.61679   0.26966   0.54426   0.00000  Uiso   1.00
H814   H     0.65771   0.27243   0.52842   0.00000  Uiso   1.00
C815   C     0.59549   0.32013   0.55423   0.00000  Uiso   1.00
H816   H     0.58901   0.00729   0.52272   0.00000  Uiso   1.00
H817   H     0.62755   0.01030   0.57332   0.00000  Uiso   1.00
H818   H     0.55385   0.31631   0.57480   0.00000  Uiso   1.00
N819   N     0.37616   0.06979   0.95631   0.00000  Uiso   1.00
H820   H     0.36878   0.03418   0.97140   0.00000  Uiso   1.00
C821   C     0.65593   0.09248   0.94777   0.00000  Uiso   1.00
H822   H     0.63197   0.10225   0.97984   0.00000  Uiso   1.00
H823   H     0.62835   0.06447   0.92868   0.00000  Uiso   1.00
H824   H     0.66483   0.12799   0.92758   0.00000  Uiso   1.00
N825   N     0.57531   0.00530   0.72121   0.00000  Uiso   1.00
H826   H     0.61246   0.32901   0.73552   0.00000  Uiso   1.00
C827   C     0.57797   0.32929   0.67340   0.00000  Uiso   1.00
H828   H     0.61529   0.01937   0.65752   0.00000  Uiso   1.00
H829   H     0.53795   0.00735   0.65888   0.00000  Uiso   1.00
H830   H     0.58373   0.28774   0.66595   0.00000  Uiso   1.00
N831   N     0.43080   0.32890   0.78795   0.00000  Uiso   1.00
H832   H     0.39207   0.01188   0.78383   0.00000  Uiso   1.00
C833   C     0.44298   0.32252   0.83448   0.00000  Uiso   1.00
H834   H     0.43098   0.28197   0.84447   0.00000  Uiso   1.00
H835   H     0.41729   0.01554   0.85627   0.00000  Uiso   1.00
H836   H     0.48963   0.33095   0.84022   0.00000  Uiso   1.00
C837   C     0.84868   0.26472   0.74985   0.00000  Uiso   1.00
C838   C     0.81830   0.06848   0.75144   0.00000  Uiso   1.00
C839   C     0.91121   0.23558   0.97562   0.00000  Uiso   1.00
C840   C     0.74796   0.10452   0.52498   0.00000  Uiso   1.00
C841   C     0.85654   0.31861   0.74493   0.00000  Uiso   1.00
C842   C     0.81224   0.01476   0.75913   0.00000  Uiso   1.00
C843   C     0.83442   0.16706   0.83648   0.00000  Uiso   1.00
C844   C     0.83216   0.16640   0.66355   0.00000  Uiso   1.00
C845   C     0.78604   0.13736   0.59489   0.00000  Uiso   1.00
C846   C     0.87600   0.20039   0.90560   0.00000  Uiso   1.00
C847   C     0.82958   0.16693   0.61598   0.00000  Uiso   1.00
C848   C     0.83622   0.16706   0.88414   0.00000  Uiso   1.00
C849   C     0.87093   0.19849   0.59211   0.00000  Uiso   1.00
C850   C     0.79464   0.13545   0.90787   0.00000  Uiso   1.00
C851   C     0.87029   0.20156   0.54605   0.00000  Uiso   1.00
C852   C     0.79136   0.13608   0.95425   0.00000  Uiso   1.00
C853   C     0.82933   0.16949   0.52361   0.00000  Uiso   1.00
C854   C     0.83122   0.16925   0.97679   0.00000  Uiso   1.00
C855   C     0.78704   0.13716   0.54798   0.00000  Uiso   1.00
C856   C     0.87319   0.20201   0.95253   0.00000  Uiso   1.00
C857   C     0.91039   0.23544   0.52203   0.00000  Uiso   1.00
C858   C     0.74950   0.10388   0.97846   0.00000  Uiso   1.00
H859   H     0.90318   0.22123   0.60996   0.00000  Uiso   1.00
H860   H     0.76484   0.11031   0.88964   0.00000  Uiso   1.00
H861   H     0.94200   0.26257   0.95823   0.00000  Uiso   1.00
H862   H     0.71619   0.07857   0.54260   0.00000  Uiso   1.00
H863   H     0.67109   0.12602   0.71794   0.00000  Uiso   1.00
H864   H     0.99565   0.20833   0.78074   0.00000  Uiso   1.00
N865   N     0.98344   0.15265   0.73783   0.00000  Uiso   1.00
N866   N     0.68322   0.18068   0.76217   0.00000  Uiso   1.00
O867   O     0.79642   0.24619   0.75298   0.00000  Uiso   1.00
O868   O     0.87025   0.08714   0.74702   0.00000  Uiso   1.00
O869   O     0.89280   0.23721   0.74519   0.00000  Uiso   1.00
O870   O     0.77387   0.09613   0.75482   0.00000  Uiso   1.00
O871   O     0.78514   0.17117   0.81998   0.00000  Uiso   1.00
O872   O     0.88153   0.16216   0.68003   0.00000  Uiso   1.00
O873   O     0.88152   0.16219   0.81218   0.00000  Uiso   1.00
O874   O     0.78515   0.17115   0.68782   0.00000  Uiso   1.00
Zn875  Zn    0.76898   0.17266   0.75521   0.00000  Uiso   1.00
Zn876  Zn    0.89769   0.16067   0.74479   0.00000  Uiso   1.00
N877   N     0.74199   0.10849   0.62126   0.00000  Uiso   1.00
H878   H     0.70054   0.10969   0.61089   0.00000  Uiso   1.00
C879   C     0.75681   0.05751   0.63375   0.00000  Uiso   1.00
H880   H     0.76336   0.03258   0.60352   0.00000  Uiso   1.00
H881   H     0.72139   0.03937   0.65607   0.00000  Uiso   1.00
H882   H     0.79675   0.06043   0.65235   0.00000  Uiso   1.00
N883   N     0.91547   0.23422   0.87960   0.00000  Uiso   1.00
H884   H     0.91353   0.27286   0.88813   0.00000  Uiso   1.00
C885   C     0.97402   0.21782   0.87378   0.00000  Uiso   1.00
H886   H     0.99479   0.21777   0.90615   0.00000  Uiso   1.00
H887   H     0.66679   0.24518   0.85130   0.00000  Uiso   1.00
H888   H     0.97420   0.17834   0.85873   0.00000  Uiso   1.00
N889   N     0.95013   0.26966   0.54426   0.00000  Uiso   1.00
H890   H     0.99104   0.27243   0.52842   0.00000  Uiso   1.00
C891   C     0.92882   0.32013   0.55423   0.00000  Uiso   1.00
H892   H     0.92234   0.00729   0.52272   0.00000  Uiso   1.00
H893   H     0.96088   0.01030   0.57332   0.00000  Uiso   1.00
H894   H     0.88719   0.31631   0.57480   0.00000  Uiso   1.00
N895   N     0.70949   0.06979   0.95631   0.00000  Uiso   1.00
H896   H     0.70211   0.03418   0.97140   0.00000  Uiso   1.00
C897   C     0.98926   0.09248   0.94777   0.00000  Uiso   1.00
H898   H     0.96530   0.10225   0.97984   0.00000  Uiso   1.00
H899   H     0.96169   0.06447   0.92868   0.00000  Uiso   1.00
H900   H     0.99816   0.12799   0.92758   0.00000  Uiso   1.00
N901   N     0.90864   0.00530   0.72121   0.00000  Uiso   1.00
H902   H     0.94579   0.32901   0.73552   0.00000  Uiso   1.00
C903   C     0.91131   0.32929   0.67340   0.00000  Uiso   1.00
H904   H     0.94862   0.01937   0.65752   0.00000  Uiso   1.00
H905   H     0.87128   0.00735   0.65888   0.00000  Uiso   1.00
H906   H     0.91706   0.28774   0.66595   0.00000  Uiso   1.00
N907   N     0.76414   0.32890   0.78795   0.00000  Uiso   1.00
H908   H     0.72541   0.01188   0.78383   0.00000  Uiso   1.00
C909   C     0.77631   0.32252   0.83448   0.00000  Uiso   1.00
H910   H     0.76432   0.28197   0.84447   0.00000  Uiso   1.00
H911   H     0.75062   0.01554   0.85627   0.00000  Uiso   1.00
H912   H     0.82296   0.33095   0.84022   0.00000  Uiso   1.00
C913   C     0.18201   0.59805   0.74985   0.00000  Uiso   1.00
C914   C     0.15163   0.40181   0.75144   0.00000  Uiso   1.00
C915   C     0.24454   0.56892   0.97562   0.00000  Uiso   1.00
C916   C     0.08130   0.43785   0.52498   0.00000  Uiso   1.00
C917   C     0.18987   0.65194   0.74493   0.00000  Uiso   1.00
C918   C     0.14557   0.34810   0.75913   0.00000  Uiso   1.00
C919   C     0.16775   0.50039   0.83648   0.00000  Uiso   1.00
C920   C     0.16550   0.49974   0.66355   0.00000  Uiso   1.00
C921   C     0.11937   0.47069   0.59489   0.00000  Uiso   1.00
C922   C     0.20933   0.53372   0.90560   0.00000  Uiso   1.00
C923   C     0.16292   0.50026   0.61598   0.00000  Uiso   1.00
C924   C     0.16955   0.50039   0.88414   0.00000  Uiso   1.00
C925   C     0.20426   0.53182   0.59211   0.00000  Uiso   1.00
C926   C     0.12797   0.46878   0.90787   0.00000  Uiso   1.00
C927   C     0.20362   0.53490   0.54605   0.00000  Uiso   1.00
C928   C     0.12469   0.46941   0.95425   0.00000  Uiso   1.00
C929   C     0.16266   0.50282   0.52361   0.00000  Uiso   1.00
C930   C     0.16455   0.50259   0.97679   0.00000  Uiso   1.00
C931   C     0.12038   0.47049   0.54798   0.00000  Uiso   1.00
C932   C     0.20653   0.53534   0.95253   0.00000  Uiso   1.00
C933   C     0.24372   0.56877   0.52203   0.00000  Uiso   1.00
C934   C     0.08283   0.43721   0.97846   0.00000  Uiso   1.00
H935   H     0.23651   0.55457   0.60996   0.00000  Uiso   1.00
H936   H     0.09817   0.44365   0.88964   0.00000  Uiso   1.00
H937   H     0.27534   0.59590   0.95823   0.00000  Uiso   1.00
H938   H     0.04952   0.41190   0.54260   0.00000  Uiso   1.00
H939   H     0.00443   0.45936   0.71794   0.00000  Uiso   1.00
H940   H     0.32898   0.54166   0.78074   0.00000  Uiso   1.00
N941   N     0.31678   0.48598   0.73783   0.00000  Uiso   1.00
N942   N     0.01656   0.51402   0.76217   0.00000  Uiso   1.00
O943   O     0.12975   0.57952   0.75298   0.00000  Uiso   1.00
O944   O     0.20358   0.42048   0.74702   0.00000  Uiso   1.00
O945   O     0.22613   0.57054   0.74519   0.00000  Uiso   1.00
O946   O     0.10720   0.42946   0.75482   0.00000  Uiso   1.00
O947   O     0.11847   0.50450   0.81998   0.00000  Uiso   1.00
O948   O     0.21486   0.49550   0.68003   0.00000  Uiso   1.00
O949   O     0.21485   0.49552   0.81218   0.00000  Uiso   1.00
O950   O     0.11848   0.50448   0.68782   0.00000  Uiso   1.00
Zn951  Zn    0.10231   0.50600   0.75521   0.00000  Uiso   1.00
Zn952  Zn    0.23102   0.49400   0.74479   0.00000  Uiso   1.00
N953   N     0.07532   0.44182   0.62126   0.00000  Uiso   1.00
H954   H     0.03387   0.44302   0.61089   0.00000  Uiso   1.00
C955   C     0.09015   0.39084   0.63375   0.00000  Uiso   1.00
H956   H     0.09669   0.36591   0.60352   0.00000  Uiso   1.00
H957   H     0.05472   0.37270   0.65607   0.00000  Uiso   1.00
H958   H     0.13008   0.39376   0.65235   0.00000  Uiso   1.00
N959   N     0.24880   0.56756   0.87960   0.00000  Uiso   1.00
H960   H     0.24686   0.60620   0.88813   0.00000  Uiso   1.00
C961   C     0.30735   0.55116   0.87378   0.00000  Uiso   1.00
H962   H     0.32813   0.55110   0.90615   0.00000  Uiso   1.00
H963   H     0.00013   0.57851   0.85130   0.00000  Uiso   1.00
H964   H     0.30753   0.51167   0.85873   0.00000  Uiso   1.00
N965   N     0.28346   0.60299   0.54426   0.00000  Uiso   1.00
H966   H     0.32438   0.60577   0.52842   0.00000  Uiso   1.00
C967   C     0.26215   0.65346   0.55423   0.00000  Uiso   1.00
H968   H     0.25568   0.34062   0.52272   0.00000  Uiso   1.00
H969   H     0.29421   0.34364   0.57332   0.00000  Uiso   1.00
H970   H     0.22052   0.64964   0.57480   0.00000  Uiso   1.00
N971   N     0.04283   0.40312   0.95631   0.00000  Uiso   1.00
H972   H     0.03544   0.36751   0.97140   0.00000  Uiso   1.00
C973   C     0.32259   0.42581   0.94777   0.00000  Uiso   1.00
H974   H     0.29864   0.43558   0.97984   0.00000  Uiso   1.00
H975   H     0.29502   0.39781   0.92868   0.00000  Uiso   1.00
H976   H     0.33149   0.46132   0.92758   0.00000  Uiso   1.00
N977   N     0.24198   0.33863   0.72121   0.00000  Uiso   1.00
H978   H     0.27912   0.66234   0.73552   0.00000  Uiso   1.00
C979   C     0.24464   0.66262   0.67340   0.00000  Uiso   1.00
H980   H     0.28195   0.35270   0.65752   0.00000  Uiso   1.00
H981   H     0.20461   0.34068   0.65888   0.00000  Uiso   1.00
H982   H     0.25039   0.62107   0.66595   0.00000  Uiso   1.00
N983   N     0.09747   0.66224   0.78795   0.00000  Uiso   1.00
H984   H     0.05874   0.34521   0.78383   0.00000  Uiso   1.00
C985   C     0.10964   0.65585   0.83448   0.00000  Uiso   1.00
H986   H     0.09765   0.61530   0.84447   0.00000  Uiso   1.00
H987   H     0.08396   0.34887   0.85627   0.00000  Uiso   1.00
H988   H     0.15630   0.66428   0.84022   0.00000  Uiso   1.00
C989   C     0.51534   0.59805   0.74985   0.00000  Uiso   1.00
C990   C     0.48497   0.40181   0.75144   0.00000  Uiso   1.00
C991   C     0.57788   0.56892   0.97562   0.00000  Uiso   1.00
C992   C     0.41463   0.43785   0.52498   0.00000  Uiso   1.00
C993   C     0.52320   0.65194   0.74493   0.00000  Uiso   1.00
C994   C     0.47890   0.34810   0.75913   0.00000  Uiso   1.00
C995   C     0.50109   0.50039   0.83648   0.00000  Uiso   1.00
C996   C     0.49883   0.49974   0.66355   0.00000  Uiso   1.00
C997   C     0.45271   0.47069   0.59489   0.00000  Uiso   1.00
C998   C     0.54267   0.53372   0.90560   0.00000  Uiso   1.00
C999   C     0.49625   0.50026   0.61598   0.00000  Uiso   1.00
C1000  C     0.50289   0.50039   0.88414   0.00000  Uiso   1.00
C1001  C     0.53760   0.53182   0.59211   0.00000  Uiso   1.00
C1002  C     0.46131   0.46878   0.90787   0.00000  Uiso   1.00
C1003  C     0.53695   0.53490   0.54605   0.00000  Uiso   1.00
C1004  C     0.45803   0.46941   0.95425   0.00000  Uiso   1.00
C1005  C     0.49599   0.50282   0.52361   0.00000  Uiso   1.00
C1006  C     0.49788   0.50259   0.97679   0.00000  Uiso   1.00
C1007  C     0.45371   0.47049   0.54798   0.00000  Uiso   1.00
C1008  C     0.53986   0.53534   0.95253   0.00000  Uiso   1.00
C1009  C     0.57705   0.56877   0.52203   0.00000  Uiso   1.00
C1010  C     0.41617   0.43721   0.97846   0.00000  Uiso   1.00
H1011  H     0.56984   0.55457   0.60996   0.00000  Uiso   1.00
H1012  H     0.43150   0.44365   0.88964   0.00000  Uiso   1.00
H1013  H     0.60867   0.59590   0.95823   0.00000  Uiso   1.00
H1014  H     0.38285   0.41190   0.54260   0.00000  Uiso   1.00
H1015  H     0.33776   0.45936   0.71794   0.00000  Uiso   1.00
H1016  H     0.66232   0.54166   0.78074   0.00000  Uiso   1.00
N1017  N     0.65011   0.48598   0.73783   0.00000  Uiso   1.00
N1018  N     0.34989   0.51402   0.76217   0.00000  Uiso   1.00
O1019  O     0.46308   0.57952   0.75298   0.00000  Uiso   1.00
O1020  O     0.53692   0.42048   0.74702   0.00000  Uiso   1.00
O1021  O     0.55946   0.57054   0.74519   0.00000  Uiso   1.00
O1022  O     0.44054   0.42946   0.75482   0.00000  Uiso   1.00
O1023  O     0.45181   0.50450   0.81998   0.00000  Uiso   1.00
O1024  O     0.54819   0.49550   0.68003   0.00000  Uiso   1.00
O1025  O     0.54819   0.49552   0.81218   0.00000  Uiso   1.00
O1026  O     0.45181   0.50448   0.68782   0.00000  Uiso   1.00
Zn1027 Zn    0.43565   0.50600   0.75521   0.00000  Uiso   1.00
Zn1028 Zn    0.56435   0.49400   0.74479   0.00000  Uiso   1.00
N1029  N     0.40866   0.44182   0.62126   0.00000  Uiso   1.00
H1030  H     0.36720   0.44302   0.61089   0.00000  Uiso   1.00
C1031  C     0.42348   0.39084   0.63375   0.00000  Uiso   1.00
H1032  H     0.43003   0.36591   0.60352   0.00000  Uiso   1.00
H1033  H     0.38806   0.37270   0.65607   0.00000  Uiso   1.00
H1034  H     0.46342   0.39376   0.65235   0.00000  Uiso   1.00
N1035  N     0.58214   0.56756   0.87960   0.00000  Uiso   1.00
H1036  H     0.58019   0.60620   0.88813   0.00000  Uiso   1.00
C1037  C     0.64069   0.55116   0.87378   0.00000  Uiso   1.00
H1038  H     0.66146   0.55110   0.90615   0.00000  Uiso   1.00
H1039  H     0.33346   0.57851   0.85130   0.00000  Uiso   1.00
H1040  H     0.64086   0.51167   0.85873   0.00000  Uiso   1.00
N1041  N     0.61679   0.60299   0.54426   0.00000  Uiso   1.00
H1042  H     0.65771   0.60577   0.52842   0.00000  Uiso   1.00
C1043  C     0.59549   0.65346   0.55423   0.00000  Uiso   1.00
H1044  H     0.58901   0.34062   0.52272   0.00000  Uiso   1.00
H1045  H     0.62755   0.34364   0.57332   0.00000  Uiso   1.00
H1046  H     0.55385   0.64964   0.57480   0.00000  Uiso   1.00
N1047  N     0.37616   0.40312   0.95631   0.00000  Uiso   1.00
H1048  H     0.36878   0.36751   0.97140   0.00000  Uiso   1.00
C1049  C     0.65593   0.42581   0.94777   0.00000  Uiso   1.00
H1050  H     0.63197   0.43558   0.97984   0.00000  Uiso   1.00
H1051  H     0.62835   0.39781   0.92868   0.00000  Uiso   1.00
H1052  H     0.66483   0.46132   0.92758   0.00000  Uiso   1.00
N1053  N     0.57531   0.33863   0.72121   0.00000  Uiso   1.00
H1054  H     0.61246   0.66234   0.73552   0.00000  Uiso   1.00
C1055  C     0.57797   0.66262   0.67340   0.00000  Uiso   1.00
H1056  H     0.61529   0.35270   0.65752   0.00000  Uiso   1.00
H1057  H     0.53795   0.34068   0.65888   0.00000  Uiso   1.00
H1058  H     0.58373   0.62107   0.66595   0.00000  Uiso   1.00
N1059  N     0.43080   0.66224   0.78795   0.00000  Uiso   1.00
H1060  H     0.39207   0.34521   0.78383   0.00000  Uiso   1.00
C1061  C     0.44298   0.65585   0.83448   0.00000  Uiso   1.00
H1062  H     0.43098   0.61530   0.84447   0.00000  Uiso   1.00
H1063  H     0.41729   0.34887   0.85627   0.00000  Uiso   1.00
H1064  H     0.48963   0.66428   0.84022   0.00000  Uiso   1.00
C1065  C     0.84868   0.59805   0.74985   0.00000  Uiso   1.00
C1066  C     0.81830   0.40181   0.75144   0.00000  Uiso   1.00
C1067  C     0.91121   0.56892   0.97562   0.00000  Uiso   1.00
C1068  C     0.74796   0.43785   0.52498   0.00000  Uiso   1.00
C1069  C     0.85654   0.65194   0.74493   0.00000  Uiso   1.00
C1070  C     0.81224   0.34810   0.75913   0.00000  Uiso   1.00
C1071  C     0.83442   0.50039   0.83648   0.00000  Uiso   1.00
C1072  C     0.83216   0.49974   0.66355   0.00000  Uiso   1.00
C1073  C     0.78604   0.47069   0.59489   0.00000  Uiso   1.00
C1074  C     0.87600   0.53372   0.90560   0.00000  Uiso   1.00
C1075  C     0.82958   0.50026   0.61598   0.00000  Uiso   1.00
C1076  C     0.83622   0.50039   0.88414   0.00000  Uiso   1.00
C1077  C     0.87093   0.53182   0.59211   0.00000  Uiso   1.00
C1078  C     0.79464   0.46878   0.90787   0.00000  Uiso   1.00
C1079  C     0.87029   0.53490   0.54605   0.00000  Uiso   1.00
C1080  C     0.79136   0.46941   0.95425   0.00000  Uiso   1.00
C1081  C     0.82933   0.50282   0.52361   0.00000  Uiso   1.00
C1082  C     0.83122   0.50259   0.97679   0.00000  Uiso   1.00
C1083  C     0.78704   0.47049   0.54798   0.00000  Uiso   1.00
C1084  C     0.87319   0.53534   0.95253   0.00000  Uiso   1.00
C1085  C     0.91039   0.56877   0.52203   0.00000  Uiso   1.00
C1086  C     0.74950   0.43721   0.97846   0.00000  Uiso   1.00
H1087  H     0.90318   0.55457   0.60996   0.00000  Uiso   1.00
H1088  H     0.76484   0.44365   0.88964   0.00000  Uiso   1.00
H1089  H     0.94200   0.59590   0.95823   0.00000  Uiso   1.00
H1090  H     0.71619   0.41190   0.54260   0.00000  Uiso   1.00
H1091  H     0.67109   0.45936   0.71794   0.00000  Uiso   1.00
H1092  H     0.99565   0.54166   0.78074   0.00000  Uiso   1.00
N1093  N     0.98344   0.48598   0.73783   0.00000  Uiso   1.00
N1094  N     0.68322   0.51402   0.76217   0.00000  Uiso   1.00
O1095  O     0.79642   0.57952   0.75298   0.00000  Uiso   1.00
O1096  O     0.87025   0.42048   0.74702   0.00000  Uiso   1.00
O1097  O     0.89280   0.57054   0.74519   0.00000  Uiso   1.00
O1098  O     0.77387   0.42946   0.75482   0.00000  Uiso   1.00
O1099  O     0.78514   0.50450   0.81998   0.00000  Uiso   1.00
O1100  O     0.88153   0.49550   0.68003   0.00000  Uiso   1.00
O1101  O     0.88152   0.49552   0.81218   0.00000  Uiso   1.00
O1102  O     0.78515   0.50448   0.68782   0.00000  Uiso   1.00
Zn1103 Zn    0.76898   0.50600   0.75521   0.00000  Uiso   1.00
Zn1104 Zn    0.89769   0.49400   0.74479   0.00000  Uiso   1.00
N1105  N     0.74199   0.44182   0.62126   0.00000  Uiso   1.00
H1106  H     0.70054   0.44302   0.61089   0.00000  Uiso   1.00
C1107  C     0.75681   0.39084   0.63375   0.00000  Uiso   1.00
H1108  H     0.76336   0.36591   0.60352   0.00000  Uiso   1.00
H1109  H     0.72139   0.37270   0.65607   0.00000  Uiso   1.00
H1110  H     0.79675   0.39376   0.65235   0.00000  Uiso   1.00
N1111  N     0.91547   0.56756   0.87960   0.00000  Uiso   1.00
H1112  H     0.91353   0.60620   0.88813   0.00000  Uiso   1.00
C1113  C     0.97402   0.55116   0.87378   0.00000  Uiso   1.00
H1114  H     0.99479   0.55110   0.90615   0.00000  Uiso   1.00
H1115  H     0.66679   0.57851   0.85130   0.00000  Uiso   1.00
H1116  H     0.97420   0.51167   0.85873   0.00000  Uiso   1.00
N1117  N     0.95013   0.60299   0.54426   0.00000  Uiso   1.00
H1118  H     0.99104   0.60577   0.52842   0.00000  Uiso   1.00
C1119  C     0.92882   0.65346   0.55423   0.00000  Uiso   1.00
H1120  H     0.92234   0.34062   0.52272   0.00000  Uiso   1.00
H1121  H     0.96088   0.34364   0.57332   0.00000  Uiso   1.00
H1122  H     0.88719   0.64964   0.57480   0.00000  Uiso   1.00
N1123  N     0.70949   0.40312   0.95631   0.00000  Uiso   1.00
H1124  H     0.70211   0.36751   0.97140   0.00000  Uiso   1.00
C1125  C     0.98926   0.42581   0.94777   0.00000  Uiso   1.00
H1126  H     0.96530   0.43558   0.97984   0.00000  Uiso   1.00
H1127  H     0.96169   0.39781   0.92868   0.00000  Uiso   1.00
H1128  H     0.99816   0.46132   0.92758   0.00000  Uiso   1.00
N1129  N     0.90864   0.33863   0.72121   0.00000  Uiso   1.00
H1130  H     0.94579   0.66234   0.73552   0.00000  Uiso   1.00
C1131  C     0.91131   0.66262   0.67340   0.00000  Uiso   1.00
H1132  H     0.94862   0.35270   0.65752   0.00000  Uiso   1.00
H1133  H     0.87128   0.34068   0.65888   0.00000  Uiso   1.00
H1134  H     0.91706   0.62107   0.66595   0.00000  Uiso   1.00
N1135  N     0.76414   0.66224   0.78795   0.00000  Uiso   1.00
H1136  H     0.72541   0.34521   0.78383   0.00000  Uiso   1.00
C1137  C     0.77631   0.65585   0.83448   0.00000  Uiso   1.00
H1138  H     0.76432   0.61530   0.84447   0.00000  Uiso   1.00
H1139  H     0.75062   0.34887   0.85627   0.00000  Uiso   1.00
H1140  H     0.82296   0.66428   0.84022   0.00000  Uiso   1.00
C1141  C     0.18201   0.93139   0.74985   0.00000  Uiso   1.00
C1142  C     0.15163   0.73515   0.75144   0.00000  Uiso   1.00
C1143  C     0.24454   0.90225   0.97562   0.00000  Uiso   1.00
C1144  C     0.08130   0.77118   0.52498   0.00000  Uiso   1.00
C1145  C     0.18987   0.98528   0.74493   0.00000  Uiso   1.00
C1146  C     0.14557   0.68143   0.75913   0.00000  Uiso   1.00
C1147  C     0.16775   0.83372   0.83648   0.00000  Uiso   1.00
C1148  C     0.16550   0.83307   0.66355   0.00000  Uiso   1.00
C1149  C     0.11937   0.80403   0.59489   0.00000  Uiso   1.00
C1150  C     0.20933   0.86705   0.90560   0.00000  Uiso   1.00
C1151  C     0.16292   0.83359   0.61598   0.00000  Uiso   1.00
C1152  C     0.16955   0.83372   0.88414   0.00000  Uiso   1.00
C1153  C     0.20426   0.86516   0.59211   0.00000  Uiso   1.00
C1154  C     0.12797   0.80211   0.90787   0.00000  Uiso   1.00
C1155  C     0.20362   0.86823   0.54605   0.00000  Uiso   1.00
C1156  C     0.12469   0.80274   0.95425   0.00000  Uiso   1.00
C1157  C     0.16266   0.83615   0.52361   0.00000  Uiso   1.00
C1158  C     0.16455   0.83592   0.97679   0.00000  Uiso   1.00
C1159  C     0.12038   0.80382   0.54798   0.00000  Uiso   1.00
C1160  C     0.20653   0.86868   0.95253   0.00000  Uiso   1.00
C1161  C     0.24372   0.90210   0.52203   0.00000  Uiso   1.00
C1162  C     0.08283   0.77054   0.97846   0.00000  Uiso   1.00
H1163  H     0.23651   0.88790   0.60996   0.00000  Uiso   1.00
H1164  H     0.09817   0.77698   0.88964   0.00000  Uiso   1.00
H1165  H     0.27534   0.92923   0.95823   0.00000  Uiso   1.00
H1166  H     0.04952   0.74524   0.54260   0.00000  Uiso   1.00
H1167  H     0.00443   0.79269   0.71794   0.00000  Uiso   1.00
H1168  H     0.32898   0.87499   0.78074   0.00000  Uiso   1.00
N1169  N     0.31678   0.81932   0.73783   0.00000  Uiso   1.00
N1170  N     0.01656   0.84735   0.76217   0.00000  Uiso   1.00
O1171  O     0.12975   0.91286   0.75298   0.00000  Uiso   1.00
O1172  O     0.20358   0.75381   0.74702   0.00000  Uiso   1.00
O1173  O     0.22613   0.90387   0.74519   0.00000  Uiso   1.00
O1174  O     0.10720   0.76279   0.75482   0.00000  Uiso   1.00
O1175  O     0.11847   0.83784   0.81998   0.00000  Uiso   1.00
O1176  O     0.21486   0.82883   0.68003   0.00000  Uiso   1.00
O1177  O     0.21485   0.82885   0.81218   0.00000  Uiso   1.00
O1178  O     0.11848   0.83781   0.68782   0.00000  Uiso   1.00
Zn1179 Zn    0.10231   0.83933   0.75521   0.00000  Uiso   1.00
Zn1180 Zn    0.23102   0.82734   0.74479   0.00000  Uiso   1.00
N1181  N     0.07532   0.77516   0.62126   0.00000  Uiso   1.00
H1182  H     0.03387   0.77636   0.61089   0.00000  Uiso   1.00
C1183  C     0.09015   0.72417   0.63375   0.00000  Uiso   1.00
H1184  H     0.09669   0.69924   0.60352   0.00000  Uiso   1.00
H1185  H     0.05472   0.70603   0.65607   0.00000  Uiso   1.00
H1186  H     0.13008   0.72710   0.65235   0.00000  Uiso   1.00
N1187  N     0.24880   0.90089   0.87960   0.00000  Uiso   1.00
H1188  H     0.24686   0.93953   0.88813   0.00000  Uiso   1.00
C1189  C     0.30735   0.88449   0.87378   0.00000  Uiso   1.00
H1190  H     0.32813   0.88443   0.90615   0.00000  Uiso   1.00
H1191  H     0.00013   0.91185   0.85130   0.00000  Uiso   1.00
H1192  H     0.30753   0.84501   0.85873   0.00000  Uiso   1.00
N1193  N     0.28346   0.93633   0.54426   0.00000  Uiso   1.00
H1194  H     0.32438   0.93910   0.52842   0.00000  Uiso   1.00
C1195  C     0.26215   0.98680   0.55423   0.00000  Uiso   1.00
H1196  H     0.25568   0.67396   0.52272   0.00000  Uiso   1.00
H1197  H     0.29421   0.67697   0.57332   0.00000  Uiso   1.00
H1198  H     0.22052   0.98298   0.57480   0.00000  Uiso   1.00
N1199  N     0.04283   0.73646   0.95631   0.00000  Uiso   1.00
H1200  H     0.03544   0.70085   0.97140   0.00000  Uiso   1.00
C1201  C     0.32259   0.75915   0.94777   0.00000  Uiso   1.00
H1202  H     0.29864   0.76892   0.97984   0.00000  Uiso   1.00
H1203  H     0.29502   0.73114   0.92868   0.00000  Uiso   1.00
H1204  H     0.33149   0.79465   0.92758   0.00000  Uiso   1.00
N1205  N     0.24198   0.67196   0.72121   0.00000  Uiso   1.00
H1206  H     0.27912   0.99568   0.73552   0.00000  Uiso   1.00
C1207  C     0.24464   0.99596   0.67340   0.00000  Uiso   1.00
H1208  H     0.28195   0.68603   0.65752   0.00000  Uiso   1.00
H1209  H     0.20461   0.67401   0.65888   0.00000  Uiso   1.00
H1210  H     0.25039   0.95441   0.66595   0.00000  Uiso   1.00
N1211  N     0.09747   0.99557   0.78795   0.00000  Uiso   1.00
H1212  H     0.05874   0.67855   0.78383   0.00000  Uiso   1.00
C1213  C     0.10964   0.98918   0.83448   0.00000  Uiso   1.00
H1214  H     0.09765   0.94864   0.84447   0.00000  Uiso   1.00
H1215  H     0.08396   0.68220   0.85627   0.00000  Uiso   1.00
H1216  H     0.15630   0.99762   0.84022   0.00000  Uiso   1.00
C1217  C     0.51534   0.93139   0.74985   0.00000  Uiso   1.00
C1218  C     0.48497   0.73515   0.75144   0.00000  Uiso   1.00
C1219  C     0.57788   0.90225   0.97562   0.00000  Uiso   1.00
C1220  C     0.41463   0.77118   0.52498   0.00000  Uiso   1.00
C1221  C     0.52320   0.98528   0.74493   0.00000  Uiso   1.00
C1222  C     0.47890   0.68143   0.75913   0.00000  Uiso   1.00
C1223  C     0.50109   0.83372   0.83648   0.00000  Uiso   1.00
C1224  C     0.49883   0.83307   0.66355   0.00000  Uiso   1.00
C1225  C     0.45271   0.80403   0.59489   0.00000  Uiso   1.00
C1226  C     0.54267   0.86705   0.90560   0.00000  Uiso   1.00
C1227  C     0.49625   0.83359   0.61598   0.00000  Uiso   1.00
C1228  C     0.50289   0.83372   0.88414   0.00000  Uiso   1.00
C1229  C     0.53760   0.86516   0.59211   0.00000  Uiso   1.00
C1230  C     0.46131   0.80211   0.90787   0.00000  Uiso   1.00
C1231  C     0.53695   0.86823   0.54605   0.00000  Uiso   1.00
C1232  C     0.45803   0.80274   0.95425   0.00000  Uiso   1.00
C1233  C     0.49599   0.83615   0.52361   0.00000  Uiso   1.00
C1234  C     0.49788   0.83592   0.97679   0.00000  Uiso   1.00
C1235  C     0.45371   0.80382   0.54798   0.00000  Uiso   1.00
C1236  C     0.53986   0.86868   0.95253   0.00000  Uiso   1.00
C1237  C     0.57705   0.90210   0.52203   0.00000  Uiso   1.00
C1238  C     0.41617   0.77054   0.97846   0.00000  Uiso   1.00
H1239  H     0.56984   0.88790   0.60996   0.00000  Uiso   1.00
H1240  H     0.43150   0.77698   0.88964   0.00000  Uiso   1.00
H1241  H     0.60867   0.92923   0.95823   0.00000  Uiso   1.00
H1242  H     0.38285   0.74524   0.54260   0.00000  Uiso   1.00
H1243  H     0.33776   0.79269   0.71794   0.00000  Uiso   1.00
H1244  H     0.66232   0.87499   0.78074   0.00000  Uiso   1.00
N1245  N     0.65011   0.81932   0.73783   0.00000  Uiso   1.00
N1246  N     0.34989   0.84735   0.76217   0.00000  Uiso   1.00
O1247  O     0.46308   0.91286   0.75298   0.00000  Uiso   1.00
O1248  O     0.53692   0.75381   0.74702   0.00000  Uiso   1.00
O1249  O     0.55946   0.90387   0.74519   0.00000  Uiso   1.00
O1250  O     0.44054   0.76279   0.75482   0.00000  Uiso   1.00
O1251  O     0.45181   0.83784   0.81998   0.00000  Uiso   1.00
O1252  O     0.54819   0.82883   0.68003   0.00000  Uiso   1.00
O1253  O     0.54819   0.82885   0.81218   0.00000  Uiso   1.00
O1254  O     0.45181   0.83781   0.68782   0.00000  Uiso   1.00
Zn1255 Zn    0.43565   0.83933   0.75521   0.00000  Uiso   1.00
Zn1256 Zn    0.56435   0.82734   0.74479   0.00000  Uiso   1.00
N1257  N     0.40866   0.77516   0.62126   0.00000  Uiso   1.00
H1258  H     0.36720   0.77636   0.61089   0.00000  Uiso   1.00
C1259  C     0.42348   0.72417   0.63375   0.00000  Uiso   1.00
H1260  H     0.43003   0.69924   0.60352   0.00000  Uiso   1.00
H1261  H     0.38806   0.70603   0.65607   0.00000  Uiso   1.00
H1262  H     0.46342   0.72710   0.65235   0.00000  Uiso   1.00
N1263  N     0.58214   0.90089   0.87960   0.00000  Uiso   1.00
H1264  H     0.58019   0.93953   0.88813   0.00000  Uiso   1.00
C1265  C     0.64069   0.88449   0.87378   0.00000  Uiso   1.00
H1266  H     0.66146   0.88443   0.90615   0.00000  Uiso   1.00
H1267  H     0.33346   0.91185   0.85130   0.00000  Uiso   1.00
H1268  H     0.64086   0.84501   0.85873   0.00000  Uiso   1.00
N1269  N     0.61679   0.93633   0.54426   0.00000  Uiso   1.00
H1270  H     0.65771   0.93910   0.52842   0.00000  Uiso   1.00
C1271  C     0.59549   0.98680   0.55423   0.00000  Uiso   1.00
H1272  H     0.58901   0.67396   0.52272   0.00000  Uiso   1.00
H1273  H     0.62755   0.67697   0.57332   0.00000  Uiso   1.00
H1274  H     0.55385   0.98298   0.57480   0.00000  Uiso   1.00
N1275  N     0.37616   0.73646   0.95631   0.00000  Uiso   1.00
H1276  H     0.36878   0.70085   0.97140   0.00000  Uiso   1.00
C1277  C     0.65593   0.75915   0.94777   0.00000  Uiso   1.00
H1278  H     0.63197   0.76892   0.97984   0.00000  Uiso   1.00
H1279  H     0.62835   0.73114   0.92868   0.00000  Uiso   1.00
H1280  H     0.66483   0.79465   0.92758   0.00000  Uiso   1.00
N1281  N     0.57531   0.67196   0.72121   0.00000  Uiso   1.00
H1282  H     0.61246   0.99568   0.73552   0.00000  Uiso   1.00
C1283  C     0.57797   0.99596   0.67340   0.00000  Uiso   1.00
H1284  H     0.61529   0.68603   0.65752   0.00000  Uiso   1.00
H1285  H     0.53795   0.67401   0.65888   0.00000  Uiso   1.00
H1286  H     0.58373   0.95441   0.66595   0.00000  Uiso   1.00
N1287  N     0.43080   0.99557   0.78795   0.00000  Uiso   1.00
H1288  H     0.39207   0.67855   0.78383   0.00000  Uiso   1.00
C1289  C     0.44298   0.98918   0.83448   0.00000  Uiso   1.00
H1290  H     0.43098   0.94864   0.84447   0.00000  Uiso   1.00
H1291  H     0.41729   0.68220   0.85627   0.00000  Uiso   1.00
H1292  H     0.48963   0.99762   0.84022   0.00000  Uiso   1.00
C1293  C     0.84868   0.93139   0.74985   0.00000  Uiso   1.00
C1294  C     0.81830   0.73515   0.75144   0.00000  Uiso   1.00
C1295  C     0.91121   0.90225   0.97562   0.00000  Uiso   1.00
C1296  C     0.74796   0.77118   0.52498   0.00000  Uiso   1.00
C1297  C     0.85654   0.98528   0.74493   0.00000  Uiso   1.00
C1298  C     0.81224   0.68143   0.75913   0.00000  Uiso   1.00
C1299  C     0.83442   0.83372   0.83648   0.00000  Uiso   1.00
C1300  C     0.83216   0.83307   0.66355   0.00000  Uiso   1.00
C1301  C     0.78604   0.80403   0.59489   0.00000  Uiso   1.00
C1302  C     0.87600   0.86705   0.90560   0.00000  Uiso   1.00
C1303  C     0.82958   0.83359   0.61598   0.00000  Uiso   1.00
C1304  C     0.83622   0.83372   0.88414   0.00000  Uiso   1.00
C1305  C     0.87093   0.86516   0.59211   0.00000  Uiso   1.00
C1306  C     0.79464   0.80211   0.90787   0.00000  Uiso   1.00
C1307  C     0.87029   0.86823   0.54605   0.00000  Uiso   1.00
C1308  C     0.79136   0.80274   0.95425   0.00000  Uiso   1.00
C1309  C     0.82933   0.83615   0.52361   0.00000  Uiso   1.00
C1310  C     0.83122   0.83592   0.97679   0.00000  Uiso   1.00
C1311  C     0.78704   0.80382   0.54798   0.00000  Uiso   1.00
C1312  C     0.87319   0.86868   0.95253   0.00000  Uiso   1.00
C1313  C     0.91039   0.90210   0.52203   0.00000  Uiso   1.00
C1314  C     0.74950   0.77054   0.97846   0.00000  Uiso   1.00
H1315  H     0.90318   0.88790   0.60996   0.00000  Uiso   1.00
H1316  H     0.76484   0.77698   0.88964   0.00000  Uiso   1.00
H1317  H     0.94200   0.92923   0.95823   0.00000  Uiso   1.00
H1318  H     0.71619   0.74524   0.54260   0.00000  Uiso   1.00
H1319  H     0.67109   0.79269   0.71794   0.00000  Uiso   1.00
H1320  H     0.99565   0.87499   0.78074   0.00000  Uiso   1.00
N1321  N     0.98344   0.81932   0.73783   0.00000  Uiso   1.00
N1322  N     0.68322   0.84735   0.76217   0.00000  Uiso   1.00
O1323  O     0.79642   0.91286   0.75298   0.00000  Uiso   1.00
O1324  O     0.87025   0.75381   0.74702   0.00000  Uiso   1.00
O1325  O     0.89280   0.90387   0.74519   0.00000  Uiso   1.00
O1326  O     0.77387   0.76279   0.75482   0.00000  Uiso   1.00
O1327  O     0.78514   0.83784   0.81998   0.00000  Uiso   1.00
O1328  O     0.88153   0.82883   0.68003   0.00000  Uiso   1.00
O1329  O     0.88152   0.82885   0.81218   0.00000  Uiso   1.00
O1330  O     0.78515   0.83781   0.68782   0.00000  Uiso   1.00
Zn1331 Zn    0.76898   0.83933   0.75521   0.00000  Uiso   1.00
Zn1332 Zn    0.89769   0.82734   0.74479   0.00000  Uiso   1.00
N1333  N     0.74199   0.77516   0.62126   0.00000  Uiso   1.00
H1334  H     0.70054   0.77636   0.61089   0.00000  Uiso   1.00
C1335  C     0.75681   0.72417   0.63375   0.00000  Uiso   1.00
H1336  H     0.76336   0.69924   0.60352   0.00000  Uiso   1.00
H1337  H     0.72139   0.70603   0.65607   0.00000  Uiso   1.00
H1338  H     0.79675   0.72710   0.65235   0.00000  Uiso   1.00
N1339  N     0.91547   0.90089   0.87960   0.00000  Uiso   1.00
H1340  H     0.91353   0.93953   0.88813   0.00000  Uiso   1.00
C1341  C     0.97402   0.88449   0.87378   0.00000  Uiso   1.00
H1342  H     0.99479   0.88443   0.90615   0.00000  Uiso   1.00
H1343  H     0.66679   0.91185   0.85130   0.00000  Uiso   1.00
H1344  H     0.97420   0.84501   0.85873   0.00000  Uiso   1.00
N1345  N     0.95013   0.93633   0.54426   0.00000  Uiso   1.00
H1346  H     0.99104   0.93910   0.52842   0.00000  Uiso   1.00
C1347  C     0.92882   0.98680   0.55423   0.00000  Uiso   1.00
H1348  H     0.92234   0.67396   0.52272   0.00000  Uiso   1.00
H1349  H     0.96088   0.67697   0.57332   0.00000  Uiso   1.00
H1350  H     0.88719   0.98298   0.57480   0.00000  Uiso   1.00
N1351  N     0.70949   0.73646   0.95631   0.00000  Uiso   1.00
H1352  H     0.70211   0.70085   0.97140   0.00000  Uiso   1.00
C1353  C     0.98926   0.75915   0.94777   0.00000  Uiso   1.00
H1354  H     0.96530   0.76892   0.97984   0.00000  Uiso   1.00
H1355  H     0.96169   0.73114   0.92868   0.00000  Uiso   1.00
H1356  H     0.99816   0.79465   0.92758   0.00000  Uiso   1.00
N1357  N     0.90864   0.67196   0.72121   0.00000  Uiso   1.00
H1358  H     0.94579   0.99568   0.73552   0.00000  Uiso   1.00
C1359  C     0.91131   0.99596   0.67340   0.00000  Uiso   1.00
H1360  H     0.94862   0.68603   0.65752   0.00000  Uiso   1.00
H1361  H     0.87128   0.67401   0.65888   0.00000  Uiso   1.00
H1362  H     0.91706   0.95441   0.66595   0.00000  Uiso   1.00
N1363  N     0.76414   0.99557   0.78795   0.00000  Uiso   1.00
H1364  H     0.72541   0.67855   0.78383   0.00000  Uiso   1.00
C1365  C     0.77631   0.98918   0.83448   0.00000  Uiso   1.00
H1366  H     0.76432   0.94864   0.84447   0.00000  Uiso   1.00
H1367  H     0.75062   0.68220   0.85627   0.00000  Uiso   1.00
H1368  H     0.82296   0.99762   0.84022   0.00000  Uiso   1.00
loop_
_geom_bond_atom_site_label_1
_geom_bond_atom_site_label_2
_geom_bond_distance
_geom_bond_site_symmetry_2
_ccdc_geom_bond_type
C1     O31     1.272   .     A
C1     O33     1.283   .     A
C1     C5      1.403   .     S
C2     O34     1.290   .     A
C2     C6      1.409   .     S
C2     O32     1.268   .     A
C3     C20     1.403   .     A
C3     H25     1.081   .     S
C3     C705    1.387   .     S
C4     H26     1.081   .     S
C4     C19     1.403   .     A
C4     C706    1.390   1_554 S
C5     C234    1.362   .     S
C5     N293    1.433   .     S
C6     C461    1.362   1_545 S
C6     N527    1.433   1_545 S
C7     O37     1.285   .     A
C7     C12     1.429   .     S
C7     O35     1.284   .     A
C8     O38     1.283   .     A
C8     C11     1.429   .     S
C8     O36     1.286   .     A
C9     N41     1.429   .     S
C9     C11     1.403   .     A
C9     C19     1.402   .     A
C10    C20     1.402   .     A
C10    C12     1.400   .     A
C10    N47     1.427   .     S
C11    C13     1.388   .     A
C12    C14     1.390   .     A
C13    C15     1.383   .     A
C13    H23     1.084   .     S
C14    C16     1.385   .     A
C14    H24     1.085   .     S
C15    C17     1.415   .     A
C15    C21     1.407   .     A
C16    C22     1.409   .     A
C16    C18     1.415   .     A
C17    C19     1.419   .     A
C17    C702    1.398   1_554 S
C18    C20     1.420   .     A
C18    C701    1.398   .     S
C21    N53     1.424   .     S
C21    C687    1.387   1_554 S
C22    N59     1.425   .     S
C22    C688    1.390   .     S
H27    N181    1.029   1_455 S
H28    N106    1.027   .     S
N29    Zn40    2.010   .     S
N29    H103    1.029   .     S
N29    N106    1.276   .     S
N30    Zn39    2.010   .     S
N30    H180    1.027   1_455 S
N30    N181    1.276   1_455 S
O31    Zn39    1.967   .     S
O32    Zn40    1.967   .     S
O33    Zn40    1.991   .     S
O34    Zn39    1.991   .     S
O35    Zn39    1.998   .     S
O36    Zn40    1.998   .     S
O37    Zn40    2.027   .     S
O38    Zn39    2.027   .     S
N41    H42     1.031   .     S
N41    C43     1.445   .     S
C43    H44     1.111   .     S
C43    H45     1.110   .     S
C43    H46     1.108   .     S
N47    H48     1.031   .     S
N47    C49     1.448   .     S
C49    H52     1.110   .     S
C49    H50     1.109   .     S
C49    H127    1.108   .     S
H51    C201    1.108   1_455 S
N53    H54     1.032   .     S
N53    C55     1.446   .     S
C55    H58     1.111   .     S
C55    H284    1.112   .     S
C55    H285    1.110   .     S
H56    C511    1.112   1_545 S
H57    C511    1.110   1_545 S
N59    H60     1.032   .     S
N59    C213    1.446   1_455 S
C61    H64     1.108   .     S
C61    H63     1.110   .     S
C61    H62     1.112   .     S
C61    N135    1.446   .     S
N65    C461    1.433   1_545 S
N65    H522    1.032   1_545 S
N65    C523    1.445   1_545 S
H66    N293    1.032   .     S
C67    H70     1.110   .     S
C67    N293    1.445   .     S
C67    H296    1.109   .     S
C67    H297    1.108   .     S
H68    C523    1.109   1_545 S
H69    C523    1.108   1_545 S
N71    C73     1.452   .     S
N71    C234    1.433   .     S
N71    H300    1.032   .     S
H72    N527    1.032   1_545 S
C73    H74     1.109   .     S
C73    H76     1.113   .     S
C73    H303    1.111   .     S
H75    C529    1.111   1_545 S
C77    O107    1.272   .     A
C77    O109    1.283   .     A
C77    C81     1.403   .     S
C78    O110    1.290   .     A
C78    C82     1.409   .     S
C78    O108    1.268   .     A
C79    C96     1.403   .     A
C79    H101    1.081   .     S
C79    C781    1.387   .     S
C80    H102    1.081   .     S
C80    C95     1.403   .     A
C80    C782    1.390   1_554 S
C81    C310    1.362   .     S
C81    N369    1.433   .     S
C82    C537    1.362   1_545 S
C82    N603    1.433   1_545 S
C83    O113    1.285   .     A
C83    C88     1.429   .     S
C83    O111    1.284   .     A
C84    O114    1.283   .     A
C84    C87     1.429   .     S
C84    O112    1.286   .     A
C85    N117    1.429   .     S
C85    C87     1.403   .     A
C85    C95     1.402   .     A
C86    C96     1.402   .     A
C86    C88     1.400   .     A
C86    N123    1.427   .     S
C87    C89     1.388   .     A
C88    C90     1.390   .     A
C89    C91     1.383   .     A
C89    H99     1.084   .     S
C90    C92     1.385   .     A
C90    H100    1.085   .     S
C91    C93     1.415   .     A
C91    C97     1.407   .     A
C92    C98     1.409   .     A
C92    C94     1.415   .     A
C93    C95     1.419   .     A
C93    C778    1.398   1_554 S
C94    C96     1.420   .     A
C94    C777    1.398   .     S
C97    N129    1.424   .     S
C97    C763    1.387   1_554 S
C98    N135    1.425   .     S
C98    C764    1.390   .     S
H104   N182    1.027   .     S
N105   Zn116   2.010   .     S
N105   H179    1.029   .     S
N105   N182    1.276   .     S
N106   Zn115   2.010   .     S
O107   Zn115   1.967   .     S
O108   Zn116   1.967   .     S
O109   Zn116   1.991   .     S
O110   Zn115   1.991   .     S
O111   Zn115   1.998   .     S
O112   Zn116   1.998   .     S
O113   Zn116   2.027   .     S
O114   Zn115   2.027   .     S
N117   H118    1.031   .     S
N117   C119    1.445   .     S
C119   H120    1.111   .     S
C119   H121    1.110   .     S
C119   H122    1.108   .     S
N123   H124    1.031   .     S
N123   C125    1.448   .     S
C125   H128    1.110   .     S
C125   H126    1.109   .     S
C125   H203    1.108   .     S
N129   H130    1.032   .     S
N129   C131    1.446   .     S
C131   H134    1.111   .     S
C131   H360    1.112   .     S
C131   H361    1.110   .     S
H132   C587    1.112   1_545 S
H133   C587    1.110   1_545 S
N135   H136    1.032   .     S
C137   H140    1.108   .     S
C137   H139    1.110   .     S
C137   H138    1.112   .     S
C137   N211    1.446   .     S
N141   C537    1.433   1_545 S
N141   H598    1.032   1_545 S
N141   C599    1.445   1_545 S
H142   N369    1.032   .     S
C143   H146    1.110   .     S
C143   N369    1.445   .     S
C143   H372    1.109   .     S
C143   H373    1.108   .     S
H144   C599    1.109   1_545 S
H145   C599    1.108   1_545 S
N147   C149    1.452   .     S
N147   C310    1.433   .     S
N147   H376    1.032   .     S
H148   N603    1.032   1_545 S
C149   H150    1.109   .     S
C149   H152    1.113   .     S
C149   H379    1.111   .     S
H151   C605    1.111   1_545 S
C153   O183    1.272   .     A
C153   O185    1.283   .     A
C153   C157    1.403   .     S
C154   O186    1.290   .     A
C154   C158    1.409   .     S
C154   O184    1.268   .     A
C155   C172    1.403   .     A
C155   H177    1.081   .     S
C155   C857    1.387   .     S
C156   H178    1.081   .     S
C156   C171    1.403   .     A
C156   C858    1.390   1_554 S
C157   C386    1.362   .     S
C157   N445    1.433   .     S
C158   C613    1.362   1_545 S
C158   N679    1.433   1_545 S
C159   O189    1.285   .     A
C159   C164    1.429   .     S
C159   O187    1.284   .     A
C160   O190    1.283   .     A
C160   C163    1.429   .     S
C160   O188    1.286   .     A
C161   N193    1.429   .     S
C161   C163    1.403   .     A
C161   C171    1.402   .     A
C162   C172    1.402   .     A
C162   C164    1.400   .     A
C162   N199    1.427   .     S
C163   C165    1.388   .     A
C164   C166    1.390   .     A
C165   C167    1.383   .     A
C165   H175    1.084   .     S
C166   C168    1.385   .     A
C166   H176    1.085   .     S
C167   C169    1.415   .     A
C167   C173    1.407   .     A
C168   C174    1.409   .     A
C168   C170    1.415   .     A
C169   C171    1.419   .     A
C169   C854    1.398   1_554 S
C170   C172    1.420   .     A
C170   C853    1.398   .     S
C173   N205    1.424   .     S
C173   C839    1.387   1_554 S
C174   N211    1.425   .     S
C174   C840    1.390   .     S
H180   N30     1.027   1_655 S
N181   Zn192   2.010   .     S
N181   H27     1.029   1_655 S
N181   N30     1.276   1_655 S
N182   Zn191   2.010   .     S
O183   Zn191   1.967   .     S
O184   Zn192   1.967   .     S
O185   Zn192   1.991   .     S
O186   Zn191   1.991   .     S
O187   Zn191   1.998   .     S
O188   Zn192   1.998   .     S
O189   Zn192   2.027   .     S
O190   Zn191   2.027   .     S
N193   H194    1.031   .     S
N193   C195    1.445   .     S
C195   H196    1.111   .     S
C195   H197    1.110   .     S
C195   H198    1.108   .     S
N199   H200    1.031   .     S
N199   C201    1.448   .     S
C201   H204    1.110   .     S
C201   H202    1.109   .     S
C201   H51     1.108   1_655 S
N205   H206    1.032   .     S
N205   C207    1.446   .     S
C207   H210    1.111   .     S
C207   H436    1.112   .     S
C207   H437    1.110   .     S
H208   C663    1.112   1_545 S
H209   C663    1.110   1_545 S
N211   H212    1.032   .     S
C213   H216    1.108   .     S
C213   H215    1.110   .     S
C213   H214    1.112   .     S
C213   N59     1.446   1_655 S
N217   C613    1.433   1_545 S
N217   H674    1.032   1_545 S
N217   C675    1.445   1_545 S
H218   N445    1.032   .     S
C219   H222    1.110   .     S
C219   N445    1.445   .     S
C219   H448    1.109   .     S
C219   H449    1.108   .     S
H220   C675    1.109   1_545 S
H221   C675    1.108   1_545 S
N223   C225    1.452   .     S
N223   C386    1.433   .     S
N223   H452    1.032   .     S
H224   N679    1.032   1_545 S
C225   H226    1.109   .     S
C225   H228    1.113   .     S
C225   H455    1.111   .     S
H227   C681    1.111   1_545 S
C229   O259    1.272   .     A
C229   O261    1.283   .     A
C229   C233    1.403   .     S
C230   O262    1.290   .     A
C230   C234    1.409   .     S
C230   O260    1.268   .     A
C231   C248    1.403   .     A
C231   H253    1.081   .     S
C231   C933    1.387   .     S
C232   H254    1.081   .     S
C232   C247    1.403   .     A
C232   C934    1.390   1_554 S
C233   C462    1.362   .     S
C233   N521    1.433   .     S
C235   O265    1.285   .     A
C235   C240    1.429   .     S
C235   O263    1.284   .     A
C236   O266    1.283   .     A
C236   C239    1.429   .     S
C236   O264    1.286   .     A
C237   N269    1.429   .     S
C237   C239    1.403   .     A
C237   C247    1.402   .     A
C238   C248    1.402   .     A
C238   C240    1.400   .     A
C238   N275    1.427   .     S
C239   C241    1.388   .     A
C240   C242    1.390   .     A
C241   C243    1.383   .     A
C241   H251    1.084   .     S
C242   C244    1.385   .     A
C242   H252    1.085   .     S
C243   C245    1.415   .     A
C243   C249    1.407   .     A
C244   C250    1.409   .     A
C244   C246    1.415   .     A
C245   C247    1.419   .     A
C245   C930    1.398   1_554 S
C246   C248    1.420   .     A
C246   C929    1.398   .     S
C249   N281    1.424   .     S
C249   C915    1.387   1_554 S
C250   N287    1.425   .     S
C250   C916    1.390   .     S
H255   N409    1.029   1_455 S
H256   N334    1.027   .     S
N257   Zn268   2.010   .     S
N257   H331    1.029   .     S
N257   N334    1.276   .     S
N258   Zn267   2.010   .     S
N258   H408    1.027   1_455 S
N258   N409    1.276   1_455 S
O259   Zn267   1.967   .     S
O260   Zn268   1.967   .     S
O261   Zn268   1.991   .     S
O262   Zn267   1.991   .     S
O263   Zn267   1.998   .     S
O264   Zn268   1.998   .     S
O265   Zn268   2.027   .     S
O266   Zn267   2.027   .     S
N269   H270    1.031   .     S
N269   C271    1.445   .     S
C271   H272    1.111   .     S
C271   H273    1.110   .     S
C271   H274    1.108   .     S
N275   H276    1.031   .     S
N275   C277    1.448   .     S
C277   H280    1.110   .     S
C277   H278    1.109   .     S
C277   H355    1.108   .     S
H279   C429    1.108   1_455 S
N281   H282    1.032   .     S
N281   C283    1.446   .     S
C283   H286    1.111   .     S
C283   H512    1.112   .     S
C283   H513    1.110   .     S
N287   H288    1.032   .     S
N287   C441    1.446   1_455 S
C289   H292    1.108   .     S
C289   H291    1.110   .     S
C289   H290    1.112   .     S
C289   N363    1.446   .     S
H294   N521    1.032   .     S
C295   H298    1.110   .     S
C295   N521    1.445   .     S
C295   H524    1.109   .     S
C295   H525    1.108   .     S
N299   C301    1.452   .     S
N299   C462    1.433   .     S
N299   H528    1.032   .     S
C301   H302    1.109   .     S
C301   H304    1.113   .     S
C301   H531    1.111   .     S
C305   O335    1.272   .     A
C305   O337    1.283   .     A
C305   C309    1.403   .     S
C306   O338    1.290   .     A
C306   C310    1.409   .     S
C306   O336    1.268   .     A
C307   C324    1.403   .     A
C307   H329    1.081   .     S
C307   C1009   1.387   .     S
C308   H330    1.081   .     S
C308   C323    1.403   .     A
C308   C1010   1.390   1_554 S
C309   C538    1.362   .     S
C309   N597    1.433   .     S
C311   O341    1.285   .     A
C311   C316    1.429   .     S
C311   O339    1.284   .     A
C312   O342    1.283   .     A
C312   C315    1.429   .     S
C312   O340    1.286   .     A
C313   N345    1.429   .     S
C313   C315    1.403   .     A
C313   C323    1.402   .     A
C314   C324    1.402   .     A
C314   C316    1.400   .     A
C314   N351    1.427   .     S
C315   C317    1.388   .     A
C316   C318    1.390   .     A
C317   C319    1.383   .     A
C317   H327    1.084   .     S
C318   C320    1.385   .     A
C318   H328    1.085   .     S
C319   C321    1.415   .     A
C319   C325    1.407   .     A
C320   C326    1.409   .     A
C320   C322    1.415   .     A
C321   C323    1.419   .     A
C321   C1006   1.398   1_554 S
C322   C324    1.420   .     A
C322   C1005   1.398   .     S
C325   N357    1.424   .     S
C325   C991    1.387   1_554 S
C326   N363    1.425   .     S
C326   C992    1.390   .     S
H332   N410    1.027   .     S
N333   Zn344   2.010   .     S
N333   H407    1.029   .     S
N333   N410    1.276   .     S
N334   Zn343   2.010   .     S
O335   Zn343   1.967   .     S
O336   Zn344   1.967   .     S
O337   Zn344   1.991   .     S
O338   Zn343   1.991   .     S
O339   Zn343   1.998   .     S
O340   Zn344   1.998   .     S
O341   Zn344   2.027   .     S
O342   Zn343   2.027   .     S
N345   H346    1.031   .     S
N345   C347    1.445   .     S
C347   H348    1.111   .     S
C347   H349    1.110   .     S
C347   H350    1.108   .     S
N351   H352    1.031   .     S
N351   C353    1.448   .     S
C353   H356    1.110   .     S
C353   H354    1.109   .     S
C353   H431    1.108   .     S
N357   H358    1.032   .     S
N357   C359    1.446   .     S
C359   H362    1.111   .     S
C359   H588    1.112   .     S
C359   H589    1.110   .     S
N363   H364    1.032   .     S
C365   H368    1.108   .     S
C365   H367    1.110   .     S
C365   H366    1.112   .     S
C365   N439    1.446   .     S
H370   N597    1.032   .     S
C371   H374    1.110   .     S
C371   N597    1.445   .     S
C371   H600    1.109   .     S
C371   H601    1.108   .     S
N375   C377    1.452   .     S
N375   C538    1.433   .     S
N375   H604    1.032   .     S
C377   H378    1.109   .     S
C377   H380    1.113   .     S
C377   H607    1.111   .     S
C381   O411    1.272   .     A
C381   O413    1.283   .     A
C381   C385    1.403   .     S
C382   O414    1.290   .     A
C382   C386    1.409   .     S
C382   O412    1.268   .     A
C383   C400    1.403   .     A
C383   H405    1.081   .     S
C383   C1085   1.387   .     S
C384   H406    1.081   .     S
C384   C399    1.403   .     A
C384   C1086   1.390   1_554 S
C385   C614    1.362   .     S
C385   N673    1.433   .     S
C387   O417    1.285   .     A
C387   C392    1.429   .     S
C387   O415    1.284   .     A
C388   O418    1.283   .     A
C388   C391    1.429   .     S
C388   O416    1.286   .     A
C389   N421    1.429   .     S
C389   C391    1.403   .     A
C389   C399    1.402   .     A
C390   C400    1.402   .     A
C390   C392    1.400   .     A
C390   N427    1.427   .     S
C391   C393    1.388   .     A
C392   C394    1.390   .     A
C393   C395    1.383   .     A
C393   H403    1.084   .     S
C394   C396    1.385   .     A
C394   H404    1.085   .     S
C395   C397    1.415   .     A
C395   C401    1.407   .     A
C396   C402    1.409   .     A
C396   C398    1.415   .     A
C397   C399    1.419   .     A
C397   C1082   1.398   1_554 S
C398   C400    1.420   .     A
C398   C1081   1.398   .     S
C401   N433    1.424   .     S
C401   C1067   1.387   1_554 S
C402   N439    1.425   .     S
C402   C1068   1.390   .     S
H408   N258    1.027   1_655 S
N409   Zn420   2.010   .     S
N409   H255    1.029   1_655 S
N409   N258    1.276   1_655 S
N410   Zn419   2.010   .     S
O411   Zn419   1.967   .     S
O412   Zn420   1.967   .     S
O413   Zn420   1.991   .     S
O414   Zn419   1.991   .     S
O415   Zn419   1.998   .     S
O416   Zn420   1.998   .     S
O417   Zn420   2.027   .     S
O418   Zn419   2.027   .     S
N421   H422    1.031   .     S
N421   C423    1.445   .     S
C423   H424    1.111   .     S
C423   H425    1.110   .     S
C423   H426    1.108   .     S
N427   H428    1.031   .     S
N427   C429    1.448   .     S
C429   H432    1.110   .     S
C429   H430    1.109   .     S
C429   H279    1.108   1_655 S
N433   H434    1.032   .     S
N433   C435    1.446   .     S
C435   H438    1.111   .     S
C435   H664    1.112   .     S
C435   H665    1.110   .     S
N439   H440    1.032   .     S
C441   H444    1.108   .     S
C441   H443    1.110   .     S
C441   H442    1.112   .     S
C441   N287    1.446   1_655 S
H446   N673    1.032   .     S
C447   H450    1.110   .     S
C447   N673    1.445   .     S
C447   H676    1.109   .     S
C447   H677    1.108   .     S
N451   C453    1.452   .     S
N451   C614    1.433   .     S
N451   H680    1.032   .     S
C453   H454    1.109   .     S
C453   H456    1.113   .     S
C453   H683    1.111   .     S
C457   O487    1.272   .     A
C457   O489    1.283   .     A
C457   C461    1.403   .     S
C458   O490    1.290   .     A
C458   C462    1.409   .     S
C458   O488    1.268   .     A
C459   C476    1.403   .     A
C459   H481    1.081   .     S
C459   C1161   1.387   .     S
C460   H482    1.081   .     S
C460   C475    1.403   .     A
C460   C1162   1.390   1_554 S
C461   C6      1.362   1_565 S
C461   N65     1.433   1_565 S
C463   O493    1.285   .     A
C463   C468    1.429   .     S
C463   O491    1.284   .     A
C464   O494    1.283   .     A
C464   C467    1.429   .     S
C464   O492    1.286   .     A
C465   N497    1.429   .     S
C465   C467    1.403   .     A
C465   C475    1.402   .     A
C466   C476    1.402   .     A
C466   C468    1.400   .     A
C466   N503    1.427   .     S
C467   C469    1.388   .     A
C468   C470    1.390   .     A
C469   C471    1.383   .     A
C469   H479    1.084   .     S
C470   C472    1.385   .     A
C470   H480    1.085   .     S
C471   C473    1.415   .     A
C471   C477    1.407   .     A
C472   C478    1.409   .     A
C472   C474    1.415   .     A
C473   C475    1.419   .     A
C473   C1158   1.398   1_554 S
C474   C476    1.420   .     A
C474   C1157   1.398   .     S
C477   N509    1.424   .     S
C477   C1143   1.387   1_554 S
C478   N515    1.425   .     S
C478   C1144   1.390   .     S
H483   N637    1.029   1_455 S
H484   N562    1.027   .     S
N485   Zn496   2.010   .     S
N485   H559    1.029   .     S
N485   N562    1.276   .     S
N486   Zn495   2.010   .     S
N486   H636    1.027   1_455 S
N486   N637    1.276   1_455 S
O487   Zn495   1.967   .     S
O488   Zn496   1.967   .     S
O489   Zn496   1.991   .     S
O490   Zn495   1.991   .     S
O491   Zn495   1.998   .     S
O492   Zn496   1.998   .     S
O493   Zn496   2.027   .     S
O494   Zn495   2.027   .     S
N497   H498    1.031   .     S
N497   C499    1.445   .     S
C499   H500    1.111   .     S
C499   H501    1.110   .     S
C499   H502    1.108   .     S
N503   H504    1.031   .     S
N503   C505    1.448   .     S
C505   H508    1.110   .     S
C505   H506    1.109   .     S
C505   H583    1.108   .     S
H507   C657    1.108   1_455 S
N509   H510    1.032   .     S
N509   C511    1.446   .     S
C511   H514    1.111   .     S
C511   H56     1.112   1_565 S
C511   H57     1.110   1_565 S
N515   H516    1.032   .     S
N515   C669    1.446   1_455 S
C517   H520    1.108   .     S
C517   H519    1.110   .     S
C517   H518    1.112   .     S
C517   N591    1.446   .     S
H522   N65     1.032   1_565 S
C523   H526    1.110   .     S
C523   N65     1.445   1_565 S
C523   H68     1.109   1_565 S
C523   H69     1.108   1_565 S
N527   C529    1.452   .     S
N527   C6      1.433   1_565 S
N527   H72     1.032   1_565 S
C529   H530    1.109   .     S
C529   H532    1.113   .     S
C529   H75     1.111   1_565 S
C533   O563    1.272   .     A
C533   O565    1.283   .     A
C533   C537    1.403   .     S
C534   O566    1.290   .     A
C534   C538    1.409   .     S
C534   O564    1.268   .     A
C535   C552    1.403   .     A
C535   H557    1.081   .     S
C535   C1237   1.387   .     S
C536   H558    1.081   .     S
C536   C551    1.403   .     A
C536   C1238   1.390   1_554 S
C537   C82     1.362   1_565 S
C537   N141    1.433   1_565 S
C539   O569    1.285   .     A
C539   C544    1.429   .     S
C539   O567    1.284   .     A
C540   O570    1.283   .     A
C540   C543    1.429   .     S
C540   O568    1.286   .     A
C541   N573    1.429   .     S
C541   C543    1.403   .     A
C541   C551    1.402   .     A
C542   C552    1.402   .     A
C542   C544    1.400   .     A
C542   N579    1.427   .     S
C543   C545    1.388   .     A
C544   C546    1.390   .     A
C545   C547    1.383   .     A
C545   H555    1.084   .     S
C546   C548    1.385   .     A
C546   H556    1.085   .     S
C547   C549    1.415   .     A
C547   C553    1.407   .     A
C548   C554    1.409   .     A
C548   C550    1.415   .     A
C549   C551    1.419   .     A
C549   C1234   1.398   1_554 S
C550   C552    1.420   .     A
C550   C1233   1.398   .     S
C553   N585    1.424   .     S
C553   C1219   1.387   1_554 S
C554   N591    1.425   .     S
C554   C1220   1.390   .     S
H560   N638    1.027   .     S
N561   Zn572   2.010   .     S
N561   H635    1.029   .     S
N561   N638    1.276   .     S
N562   Zn571   2.010   .     S
O563   Zn571   1.967   .     S
O564   Zn572   1.967   .     S
O565   Zn572   1.991   .     S
O566   Zn571   1.991   .     S
O567   Zn571   1.998   .     S
O568   Zn572   1.998   .     S
O569   Zn572   2.027   .     S
O570   Zn571   2.027   .     S
N573   H574    1.031   .     S
N573   C575    1.445   .     S
C575   H576    1.111   .     S
C575   H577    1.110   .     S
C575   H578    1.108   .     S
N579   H580    1.031   .     S
N579   C581    1.448   .     S
C581   H584    1.110   .     S
C581   H582    1.109   .     S
C581   H659    1.108   .     S
N585   H586    1.032   .     S
N585   C587    1.446   .     S
C587   H590    1.111   .     S
C587   H132    1.112   1_565 S
C587   H133    1.110   1_565 S
N591   H592    1.032   .     S
C593   H596    1.108   .     S
C593   H595    1.110   .     S
C593   H594    1.112   .     S
C593   N667    1.446   .     S
H598   N141    1.032   1_565 S
C599   H602    1.110   .     S
C599   N141    1.445   1_565 S
C599   H144    1.109   1_565 S
C599   H145    1.108   1_565 S
N603   C605    1.452   .     S
N603   C82     1.433   1_565 S
N603   H148    1.032   1_565 S
C605   H606    1.109   .     S
C605   H608    1.113   .     S
C605   H151    1.111   1_565 S
C609   O639    1.272   .     A
C609   O641    1.283   .     A
C609   C613    1.403   .     S
C610   O642    1.290   .     A
C610   C614    1.409   .     S
C610   O640    1.268   .     A
C611   C628    1.403   .     A
C611   H633    1.081   .     S
C611   C1313   1.387   .     S
C612   H634    1.081   .     S
C612   C627    1.403   .     A
C612   C1314   1.390   1_554 S
C613   C158    1.362   1_565 S
C613   N217    1.433   1_565 S
C615   O645    1.285   .     A
C615   C620    1.429   .     S
C615   O643    1.284   .     A
C616   O646    1.283   .     A
C616   C619    1.429   .     S
C616   O644    1.286   .     A
C617   N649    1.429   .     S
C617   C619    1.403   .     A
C617   C627    1.402   .     A
C618   C628    1.402   .     A
C618   C620    1.400   .     A
C618   N655    1.427   .     S
C619   C621    1.388   .     A
C620   C622    1.390   .     A
C621   C623    1.383   .     A
C621   H631    1.084   .     S
C622   C624    1.385   .     A
C622   H632    1.085   .     S
C623   C625    1.415   .     A
C623   C629    1.407   .     A
C624   C630    1.409   .     A
C624   C626    1.415   .     A
C625   C627    1.419   .     A
C625   C1310   1.398   1_554 S
C626   C628    1.420   .     A
C626   C1309   1.398   .     S
C629   N661    1.424   .     S
C629   C1295   1.387   1_554 S
C630   N667    1.425   .     S
C630   C1296   1.390   .     S
H636   N486    1.027   1_655 S
N637   Zn648   2.010   .     S
N637   H483    1.029   1_655 S
N637   N486    1.276   1_655 S
N638   Zn647   2.010   .     S
O639   Zn647   1.967   .     S
O640   Zn648   1.967   .     S
O641   Zn648   1.991   .     S
O642   Zn647   1.991   .     S
O643   Zn647   1.998   .     S
O644   Zn648   1.998   .     S
O645   Zn648   2.027   .     S
O646   Zn647   2.027   .     S
N649   H650    1.031   .     S
N649   C651    1.445   .     S
C651   H652    1.111   .     S
C651   H653    1.110   .     S
C651   H654    1.108   .     S
N655   H656    1.031   .     S
N655   C657    1.448   .     S
C657   H660    1.110   .     S
C657   H658    1.109   .     S
C657   H507    1.108   1_655 S
N661   H662    1.032   .     S
N661   C663    1.446   .     S
C663   H666    1.111   .     S
C663   H208    1.112   1_565 S
C663   H209    1.110   1_565 S
N667   H668    1.032   .     S
C669   H672    1.108   .     S
C669   H671    1.110   .     S
C669   H670    1.112   .     S
C669   N515    1.446   1_655 S
H674   N217    1.032   1_565 S
C675   H678    1.110   .     S
C675   N217    1.445   1_565 S
C675   H220    1.109   1_565 S
C675   H221    1.108   1_565 S
N679   C681    1.452   .     S
N679   C158    1.433   1_565 S
N679   H224    1.032   1_565 S
C681   H682    1.109   .     S
C681   H684    1.113   .     S
C681   H227    1.111   1_565 S
C685   O715    1.272   .     A
C685   O717    1.283   .     A
C685   C689    1.403   .     S
C686   O718    1.290   .     A
C686   C690    1.409   .     S
C686   O716    1.268   .     A
C687   C704    1.403   .     A
C687   H709    1.081   .     S
C687   C21     1.387   1_556 S
C688   H710    1.081   .     S
C688   C703    1.403   .     A
C689   C918    1.362   .     S
C689   N977    1.433   .     S
C690   C1145   1.362   1_545 S
C690   N1211   1.433   1_545 S
C691   O721    1.285   .     A
C691   C696    1.429   .     S
C691   O719    1.284   .     A
C692   O722    1.283   .     A
C692   C695    1.429   .     S
C692   O720    1.286   .     A
C693   N725    1.429   .     S
C693   C695    1.403   .     A
C693   C703    1.402   .     A
C694   C704    1.402   .     A
C694   C696    1.400   .     A
C694   N731    1.427   .     S
C695   C697    1.388   .     A
C696   C698    1.390   .     A
C697   C699    1.383   .     A
C697   H707    1.084   .     S
C698   C700    1.385   .     A
C698   H708    1.085   .     S
C699   C701    1.415   .     A
C699   C705    1.407   .     A
C700   C706    1.409   .     A
C700   C702    1.415   .     A
C701   C703    1.419   .     A
C702   C704    1.420   .     A
C702   C17     1.398   1_556 S
C705   N737    1.424   .     S
C706   N743    1.425   .     S
C706   C4      1.390   1_556 S
H711   N865    1.029   1_455 S
H712   N790    1.027   .     S
N713   Zn724   2.010   .     S
N713   H787    1.029   .     S
N713   N790    1.276   .     S
N714   Zn723   2.010   .     S
N714   H864    1.027   1_455 S
N714   N865    1.276   1_455 S
O715   Zn723   1.967   .     S
O716   Zn724   1.967   .     S
O717   Zn724   1.991   .     S
O718   Zn723   1.991   .     S
O719   Zn723   1.998   .     S
O720   Zn724   1.998   .     S
O721   Zn724   2.027   .     S
O722   Zn723   2.027   .     S
N725   H726    1.031   .     S
N725   C727    1.445   .     S
C727   H728    1.111   .     S
C727   H729    1.110   .     S
C727   H730    1.108   .     S
N731   H732    1.031   .     S
N731   C733    1.448   .     S
C733   H736    1.110   .     S
C733   H734    1.109   .     S
C733   H811    1.108   .     S
H735   C885    1.108   1_455 S
N737   H738    1.032   .     S
N737   C739    1.446   .     S
C739   H742    1.111   .     S
C739   H968    1.112   .     S
C739   H969    1.110   .     S
H740   C1195   1.112   1_545 S
H741   C1195   1.110   1_545 S
N743   H744    1.032   .     S
N743   C897    1.446   1_455 S
C745   H748    1.108   .     S
C745   H747    1.110   .     S
C745   H746    1.112   .     S
C745   N819    1.446   .     S
N749   C1145   1.433   1_545 S
N749   H1206   1.032   1_545 S
N749   C1207   1.445   1_545 S
H750   N977    1.032   .     S
C751   H754    1.110   .     S
C751   N977    1.445   .     S
C751   H980    1.109   .     S
C751   H981    1.108   .     S
H752   C1207   1.109   1_545 S
H753   C1207   1.108   1_545 S
N755   C757    1.452   .     S
N755   C918    1.433   .     S
N755   H984    1.032   .     S
H756   N1211   1.032   1_545 S
C757   H758    1.109   .     S
C757   H760    1.113   .     S
C757   H987    1.111   .     S
H759   C1213   1.111   1_545 S
C761   O791    1.272   .     A
C761   O793    1.283   .     A
C761   C765    1.403   .     S
C762   O794    1.290   .     A
C762   C766    1.409   .     S
C762   O792    1.268   .     A
C763   C780    1.403   .     A
C763   H785    1.081   .     S
C763   C97     1.387   1_556 S
C764   H786    1.081   .     S
C764   C779    1.403   .     A
C765   C994    1.362   .     S
C765   N1053   1.433   .     S
C766   C1221   1.362   1_545 S
C766   N1287   1.433   1_545 S
C767   O797    1.285   .     A
C767   C772    1.429   .     S
C767   O795    1.284   .     A
C768   O798    1.283   .     A
C768   C771    1.429   .     S
C768   O796    1.286   .     A
C769   N801    1.429   .     S
C769   C771    1.403   .     A
C769   C779    1.402   .     A
C770   C780    1.402   .     A
C770   C772    1.400   .     A
C770   N807    1.427   .     S
C771   C773    1.388   .     A
C772   C774    1.390   .     A
C773   C775    1.383   .     A
C773   H783    1.084   .     S
C774   C776    1.385   .     A
C774   H784    1.085   .     S
C775   C777    1.415   .     A
C775   C781    1.407   .     A
C776   C782    1.409   .     A
C776   C778    1.415   .     A
C777   C779    1.419   .     A
C778   C780    1.420   .     A
C778   C93     1.398   1_556 S
C781   N813    1.424   .     S
C782   N819    1.425   .     S
C782   C80     1.390   1_556 S
H788   N866    1.027   .     S
N789   Zn800   2.010   .     S
N789   H863    1.029   .     S
N789   N866    1.276   .     S
N790   Zn799   2.010   .     S
O791   Zn799   1.967   .     S
O792   Zn800   1.967   .     S
O793   Zn800   1.991   .     S
O794   Zn799   1.991   .     S
O795   Zn799   1.998   .     S
O796   Zn800   1.998   .     S
O797   Zn800   2.027   .     S
O798   Zn799   2.027   .     S
N801   H802    1.031   .     S
N801   C803    1.445   .     S
C803   H804    1.111   .     S
C803   H805    1.110   .     S
C803   H806    1.108   .     S
N807   H808    1.031   .     S
N807   C809    1.448   .     S
C809   H812    1.110   .     S
C809   H810    1.109   .     S
C809   H887    1.108   .     S
N813   H814    1.032   .     S
N813   C815    1.446   .     S
C815   H818    1.111   .     S
C815   H1044   1.112   .     S
C815   H1045   1.110   .     S
H816   C1271   1.112   1_545 S
H817   C1271   1.110   1_545 S
N819   H820    1.032   .     S
C821   H824    1.108   .     S
C821   H823    1.110   .     S
C821   H822    1.112   .     S
C821   N895    1.446   .     S
N825   C1221   1.433   1_545 S
N825   H1282   1.032   1_545 S
N825   C1283   1.445   1_545 S
H826   N1053   1.032   .     S
C827   H830    1.110   .     S
C827   N1053   1.445   .     S
C827   H1056   1.109   .     S
C827   H1057   1.108   .     S
H828   C1283   1.109   1_545 S
H829   C1283   1.108   1_545 S
N831   C833    1.452   .     S
N831   C994    1.433   .     S
N831   H1060   1.032   .     S
H832   N1287   1.032   1_545 S
C833   H834    1.109   .     S
C833   H836    1.113   .     S
C833   H1063   1.111   .     S
H835   C1289   1.111   1_545 S
C837   O867    1.272   .     A
C837   O869    1.283   .     A
C837   C841    1.403   .     S
C838   O870    1.290   .     A
C838   C842    1.409   .     S
C838   O868    1.268   .     A
C839   C856    1.403   .     A
C839   H861    1.081   .     S
C839   C173    1.387   1_556 S
C840   H862    1.081   .     S
C840   C855    1.403   .     A
C841   C1070   1.362   .     S
C841   N1129   1.433   .     S
C842   C1297   1.362   1_545 S
C842   N1363   1.433   1_545 S
C843   O873    1.285   .     A
C843   C848    1.429   .     S
C843   O871    1.284   .     A
C844   O874    1.283   .     A
C844   C847    1.429   .     S
C844   O872    1.286   .     A
C845   N877    1.429   .     S
C845   C847    1.403   .     A
C845   C855    1.402   .     A
C846   C856    1.402   .     A
C846   C848    1.400   .     A
C846   N883    1.427   .     S
C847   C849    1.388   .     A
C848   C850    1.390   .     A
C849   C851    1.383   .     A
C849   H859    1.084   .     S
C850   C852    1.385   .     A
C850   H860    1.085   .     S
C851   C853    1.415   .     A
C851   C857    1.407   .     A
C852   C858    1.409   .     A
C852   C854    1.415   .     A
C853   C855    1.419   .     A
C854   C856    1.420   .     A
C854   C169    1.398   1_556 S
C857   N889    1.424   .     S
C858   N895    1.425   .     S
C858   C156    1.390   1_556 S
H864   N714    1.027   1_655 S
N865   Zn876   2.010   .     S
N865   H711    1.029   1_655 S
N865   N714    1.276   1_655 S
N866   Zn875   2.010   .     S
O867   Zn875   1.967   .     S
O868   Zn876   1.967   .     S
O869   Zn876   1.991   .     S
O870   Zn875   1.991   .     S
O871   Zn875   1.998   .     S
O872   Zn876   1.998   .     S
O873   Zn876   2.027   .     S
O874   Zn875   2.027   .     S
N877   H878    1.031   .     S
N877   C879    1.445   .     S
C879   H880    1.111   .     S
C879   H881    1.110   .     S
C879   H882    1.108   .     S
N883   H884    1.031   .     S
N883   C885    1.448   .     S
C885   H888    1.110   .     S
C885   H886    1.109   .     S
C885   H735    1.108   1_655 S
N889   H890    1.032   .     S
N889   C891    1.446   .     S
C891   H894    1.111   .     S
C891   H1120   1.112   .     S
C891   H1121   1.110   .     S
H892   C1347   1.112   1_545 S
H893   C1347   1.110   1_545 S
N895   H896    1.032   .     S
C897   H900    1.108   .     S
C897   H899    1.110   .     S
C897   H898    1.112   .     S
C897   N743    1.446   1_655 S
N901   C1297   1.433   1_545 S
N901   H1358   1.032   1_545 S
N901   C1359   1.445   1_545 S
H902   N1129   1.032   .     S
C903   H906    1.110   .     S
C903   N1129   1.445   .     S
C903   H1132   1.109   .     S
C903   H1133   1.108   .     S
H904   C1359   1.109   1_545 S
H905   C1359   1.108   1_545 S
N907   C909    1.452   .     S
N907   C1070   1.433   .     S
N907   H1136   1.032   .     S
H908   N1363   1.032   1_545 S
C909   H910    1.109   .     S
C909   H912    1.113   .     S
C909   H1139   1.111   .     S
H911   C1365   1.111   1_545 S
C913   O943    1.272   .     A
C913   O945    1.283   .     A
C913   C917    1.403   .     S
C914   O946    1.290   .     A
C914   C918    1.409   .     S
C914   O944    1.268   .     A
C915   C932    1.403   .     A
C915   H937    1.081   .     S
C915   C249    1.387   1_556 S
C916   H938    1.081   .     S
C916   C931    1.403   .     A
C917   C1146   1.362   .     S
C917   N1205   1.433   .     S
C919   O949    1.285   .     A
C919   C924    1.429   .     S
C919   O947    1.284   .     A
C920   O950    1.283   .     A
C920   C923    1.429   .     S
C920   O948    1.286   .     A
C921   N953    1.429   .     S
C921   C923    1.403   .     A
C921   C931    1.402   .     A
C922   C932    1.402   .     A
C922   C924    1.400   .     A
C922   N959    1.427   .     S
C923   C925    1.388   .     A
C924   C926    1.390   .     A
C925   C927    1.383   .     A
C925   H935    1.084   .     S
C926   C928    1.385   .     A
C926   H936    1.085   .     S
C927   C929    1.415   .     A
C927   C933    1.407   .     A
C928   C934    1.409   .     A
C928   C930    1.415   .     A
C929   C931    1.419   .     A
C930   C932    1.420   .     A
C930   C245    1.398   1_556 S
C933   N965    1.424   .     S
C934   N971    1.425   .     S
C934   C232    1.390   1_556 S
H939   N1093   1.029   1_455 S
H940   N1018   1.027   .     S
N941   Zn952   2.010   .     S
N941   H1015   1.029   .     S
N941   N1018   1.276   .     S
N942   Zn951   2.010   .     S
N942   H1092   1.027   1_455 S
N942   N1093   1.276   1_455 S
O943   Zn951   1.967   .     S
O944   Zn952   1.967   .     S
O945   Zn952   1.991   .     S
O946   Zn951   1.991   .     S
O947   Zn951   1.998   .     S
O948   Zn952   1.998   .     S
O949   Zn952   2.027   .     S
O950   Zn951   2.027   .     S
N953   H954    1.031   .     S
N953   C955    1.445   .     S
C955   H956    1.111   .     S
C955   H957    1.110   .     S
C955   H958    1.108   .     S
N959   H960    1.031   .     S
N959   C961    1.448   .     S
C961   H964    1.110   .     S
C961   H962    1.109   .     S
C961   H1039   1.108   .     S
H963   C1113   1.108   1_455 S
N965   H966    1.032   .     S
N965   C967    1.446   .     S
C967   H970    1.111   .     S
C967   H1196   1.112   .     S
C967   H1197   1.110   .     S
N971   H972    1.032   .     S
N971   C1125   1.446   1_455 S
C973   H976    1.108   .     S
C973   H975    1.110   .     S
C973   H974    1.112   .     S
C973   N1047   1.446   .     S
H978   N1205   1.032   .     S
C979   H982    1.110   .     S
C979   N1205   1.445   .     S
C979   H1208   1.109   .     S
C979   H1209   1.108   .     S
N983   C985    1.452   .     S
N983   C1146   1.433   .     S
N983   H1212   1.032   .     S
C985   H986    1.109   .     S
C985   H988    1.113   .     S
C985   H1215   1.111   .     S
C989   O1019   1.272   .     A
C989   O1021   1.283   .     A
C989   C993    1.403   .     S
C990   O1022   1.290   .     A
C990   C994    1.409   .     S
C990   O1020   1.268   .     A
C991   C1008   1.403   .     A
C991   H1013   1.081   .     S
C991   C325    1.387   1_556 S
C992   H1014   1.081   .     S
C992   C1007   1.403   .     A
C993   C1222   1.362   .     S
C993   N1281   1.433   .     S
C995   O1025   1.285   .     A
C995   C1000   1.429   .     S
C995   O1023   1.284   .     A
C996   O1026   1.283   .     A
C996   C999    1.429   .     S
C996   O1024   1.286   .     A
C997   N1029   1.429   .     S
C997   C999    1.403   .     A
C997   C1007   1.402   .     A
C998   C1008   1.402   .     A
C998   C1000   1.400   .     A
C998   N1035   1.427   .     S
C999   C1001   1.388   .     A
C1000  C1002   1.390   .     A
C1001  C1003   1.383   .     A
C1001  H1011   1.084   .     S
C1002  C1004   1.385   .     A
C1002  H1012   1.085   .     S
C1003  C1005   1.415   .     A
C1003  C1009   1.407   .     A
C1004  C1010   1.409   .     A
C1004  C1006   1.415   .     A
C1005  C1007   1.419   .     A
C1006  C1008   1.420   .     A
C1006  C321    1.398   1_556 S
C1009  N1041   1.424   .     S
C1010  N1047   1.425   .     S
C1010  C308    1.390   1_556 S
H1016  N1094   1.027   .     S
N1017  Zn1028  2.010   .     S
N1017  H1091   1.029   .     S
N1017  N1094   1.276   .     S
N1018  Zn1027  2.010   .     S
O1019  Zn1027  1.967   .     S
O1020  Zn1028  1.967   .     S
O1021  Zn1028  1.991   .     S
O1022  Zn1027  1.991   .     S
O1023  Zn1027  1.998   .     S
O1024  Zn1028  1.998   .     S
O1025  Zn1028  2.027   .     S
O1026  Zn1027  2.027   .     S
N1029  H1030   1.031   .     S
N1029  C1031   1.445   .     S
C1031  H1032   1.111   .     S
C1031  H1033   1.110   .     S
C1031  H1034   1.108   .     S
N1035  H1036   1.031   .     S
N1035  C1037   1.448   .     S
C1037  H1040   1.110   .     S
C1037  H1038   1.109   .     S
C1037  H1115   1.108   .     S
N1041  H1042   1.032   .     S
N1041  C1043   1.446   .     S
C1043  H1046   1.111   .     S
C1043  H1272   1.112   .     S
C1043  H1273   1.110   .     S
N1047  H1048   1.032   .     S
C1049  H1052   1.108   .     S
C1049  H1051   1.110   .     S
C1049  H1050   1.112   .     S
C1049  N1123   1.446   .     S
H1054  N1281   1.032   .     S
C1055  H1058   1.110   .     S
C1055  N1281   1.445   .     S
C1055  H1284   1.109   .     S
C1055  H1285   1.108   .     S
N1059  C1061   1.452   .     S
N1059  C1222   1.433   .     S
N1059  H1288   1.032   .     S
C1061  H1062   1.109   .     S
C1061  H1064   1.113   .     S
C1061  H1291   1.111   .     S
C1065  O1095   1.272   .     A
C1065  O1097   1.283   .     A
C1065  C1069   1.403   .     S
C1066  O1098   1.290   .     A
C1066  C1070   1.409   .     S
C1066  O1096   1.268   .     A
C1067  C1084   1.403   .     A
C1067  H1089   1.081   .     S
C1067  C401    1.387   1_556 S
C1068  H1090   1.081   .     S
C1068  C1083   1.403   .     A
C1069  C1298   1.362   .     S
C1069  N1357   1.433   .     S
C1071  O1101   1.285   .     A
C1071  C1076   1.429   .     S
C1071  O1099   1.284   .     A
C1072  O1102   1.283   .     A
C1072  C1075   1.429   .     S
C1072  O1100   1.286   .     A
C1073  N1105   1.429   .     S
C1073  C1075   1.403   .     A
C1073  C1083   1.402   .     A
C1074  C1084   1.402   .     A
C1074  C1076   1.400   .     A
C1074  N1111   1.427   .     S
C1075  C1077   1.388   .     A
C1076  C1078   1.390   .     A
C1077  C1079   1.383   .     A
C1077  H1087   1.084   .     S
C1078  C1080   1.385   .     A
C1078  H1088   1.085   .     S
C1079  C1081   1.415   .     A
C1079  C1085   1.407   .     A
C1080  C1086   1.409   .     A
C1080  C1082   1.415   .     A
C1081  C1083   1.419   .     A
C1082  C1084   1.420   .     A
C1082  C397    1.398   1_556 S
C1085  N1117   1.424   .     S
C1086  N1123   1.425   .     S
C1086  C384    1.390   1_556 S
H1092  N942    1.027   1_655 S
N1093  Zn1104  2.010   .     S
N1093  H939    1.029   1_655 S
N1093  N942    1.276   1_655 S
N1094  Zn1103  2.010   .     S
O1095  Zn1103  1.967   .     S
O1096  Zn1104  1.967   .     S
O1097  Zn1104  1.991   .     S
O1098  Zn1103  1.991   .     S
O1099  Zn1103  1.998   .     S
O1100  Zn1104  1.998   .     S
O1101  Zn1104  2.027   .     S
O1102  Zn1103  2.027   .     S
N1105  H1106   1.031   .     S
N1105  C1107   1.445   .     S
C1107  H1108   1.111   .     S
C1107  H1109   1.110   .     S
C1107  H1110   1.108   .     S
N1111  H1112   1.031   .     S
N1111  C1113   1.448   .     S
C1113  H1116   1.110   .     S
C1113  H1114   1.109   .     S
C1113  H963    1.108   1_655 S
N1117  H1118   1.032   .     S
N1117  C1119   1.446   .     S
C1119  H1122   1.111   .     S
C1119  H1348   1.112   .     S
C1119  H1349   1.110   .     S
N1123  H1124   1.032   .     S
C1125  H1128   1.108   .     S
C1125  H1127   1.110   .     S
C1125  H1126   1.112   .     S
C1125  N971    1.446   1_655 S
H1130  N1357   1.032   .     S
C1131  H1134   1.110   .     S
C1131  N1357   1.445   .     S
C1131  H1360   1.109   .     S
C1131  H1361   1.108   .     S
N1135  C1137   1.452   .     S
N1135  C1298   1.433   .     S
N1135  H1364   1.032   .     S
C1137  H1138   1.109   .     S
C1137  H1140   1.113   .     S
C1137  H1367   1.111   .     S
C1141  O1171   1.272   .     A
C1141  O1173   1.283   .     A
C1141  C1145   1.403   .     S
C1142  O1174   1.290   .     A
C1142  C1146   1.409   .     S
C1142  O1172   1.268   .     A
C1143  C1160   1.403   .     A
C1143  H1165   1.081   .     S
C1143  C477    1.387   1_556 S
C1144  H1166   1.081   .     S
C1144  C1159   1.403   .     A
C1145  C690    1.362   1_565 S
C1145  N749    1.433   1_565 S
C1147  O1177   1.285   .     A
C1147  C1152   1.429   .     S
C1147  O1175   1.284   .     A
C1148  O1178   1.283   .     A
C1148  C1151   1.429   .     S
C1148  O1176   1.286   .     A
C1149  N1181   1.429   .     S
C1149  C1151   1.403   .     A
C1149  C1159   1.402   .     A
C1150  C1160   1.402   .     A
C1150  C1152   1.400   .     A
C1150  N1187   1.427   .     S
C1151  C1153   1.388   .     A
C1152  C1154   1.390   .     A
C1153  C1155   1.383   .     A
C1153  H1163   1.084   .     S
C1154  C1156   1.385   .     A
C1154  H1164   1.085   .     S
C1155  C1157   1.415   .     A
C1155  C1161   1.407   .     A
C1156  C1162   1.409   .     A
C1156  C1158   1.415   .     A
C1157  C1159   1.419   .     A
C1158  C1160   1.420   .     A
C1158  C473    1.398   1_556 S
C1161  N1193   1.424   .     S
C1162  N1199   1.425   .     S
C1162  C460    1.390   1_556 S
H1167  N1321   1.029   1_455 S
H1168  N1246   1.027   .     S
N1169  Zn1180  2.010   .     S
N1169  H1243   1.029   .     S
N1169  N1246   1.276   .     S
N1170  Zn1179  2.010   .     S
N1170  H1320   1.027   1_455 S
N1170  N1321   1.276   1_455 S
O1171  Zn1179  1.967   .     S
O1172  Zn1180  1.967   .     S
O1173  Zn1180  1.991   .     S
O1174  Zn1179  1.991   .     S
O1175  Zn1179  1.998   .     S
O1176  Zn1180  1.998   .     S
O1177  Zn1180  2.027   .     S
O1178  Zn1179  2.027   .     S
N1181  H1182   1.031   .     S
N1181  C1183   1.445   .     S
C1183  H1184   1.111   .     S
C1183  H1185   1.110   .     S
C1183  H1186   1.108   .     S
N1187  H1188   1.031   .     S
N1187  C1189   1.448   .     S
C1189  H1192   1.110   .     S
C1189  H1190   1.109   .     S
C1189  H1267   1.108   .     S
H1191  C1341   1.108   1_455 S
N1193  H1194   1.032   .     S
N1193  C1195   1.446   .     S
C1195  H1198   1.111   .     S
C1195  H740    1.112   1_565 S
C1195  H741    1.110   1_565 S
N1199  H1200   1.032   .     S
N1199  C1353   1.446   1_455 S
C1201  H1204   1.108   .     S
C1201  H1203   1.110   .     S
C1201  H1202   1.112   .     S
C1201  N1275   1.446   .     S
H1206  N749    1.032   1_565 S
C1207  H1210   1.110   .     S
C1207  N749    1.445   1_565 S
C1207  H752    1.109   1_565 S
C1207  H753    1.108   1_565 S
N1211  C1213   1.452   .     S
N1211  C690    1.433   1_565 S
N1211  H756    1.032   1_565 S
C1213  H1214   1.109   .     S
C1213  H1216   1.113   .     S
C1213  H759    1.111   1_565 S
C1217  O1247   1.272   .     A
C1217  O1249   1.283   .     A
C1217  C1221   1.403   .     S
C1218  O1250   1.290   .     A
C1218  C1222   1.409   .     S
C1218  O1248   1.268   .     A
C1219  C1236   1.403   .     A
C1219  H1241   1.081   .     S
C1219  C553    1.387   1_556 S
C1220  H1242   1.081   .     S
C1220  C1235   1.403   .     A
C1221  C766    1.362   1_565 S
C1221  N825    1.433   1_565 S
C1223  O1253   1.285   .     A
C1223  C1228   1.429   .     S
C1223  O1251   1.284   .     A
C1224  O1254   1.283   .     A
C1224  C1227   1.429   .     S
C1224  O1252   1.286   .     A
C1225  N1257   1.429   .     S
C1225  C1227   1.403   .     A
C1225  C1235   1.402   .     A
C1226  C1236   1.402   .     A
C1226  C1228   1.400   .     A
C1226  N1263   1.427   .     S
C1227  C1229   1.388   .     A
C1228  C1230   1.390   .     A
C1229  C1231   1.383   .     A
C1229  H1239   1.084   .     S
C1230  C1232   1.385   .     A
C1230  H1240   1.085   .     S
C1231  C1233   1.415   .     A
C1231  C1237   1.407   .     A
C1232  C1238   1.409   .     A
C1232  C1234   1.415   .     A
C1233  C1235   1.419   .     A
C1234  C1236   1.420   .     A
C1234  C549    1.398   1_556 S
C1237  N1269   1.424   .     S
C1238  N1275   1.425   .     S
C1238  C536    1.390   1_556 S
H1244  N1322   1.027   .     S
N1245  Zn1256  2.010   .     S
N1245  H1319   1.029   .     S
N1245  N1322   1.276   .     S
N1246  Zn1255  2.010   .     S
O1247  Zn1255  1.967   .     S
O1248  Zn1256  1.967   .     S
O1249  Zn1256  1.991   .     S
O1250  Zn1255  1.991   .     S
O1251  Zn1255  1.998   .     S
O1252  Zn1256  1.998   .     S
O1253  Zn1256  2.027   .     S
O1254  Zn1255  2.027   .     S
N1257  H1258   1.031   .     S
N1257  C1259   1.445   .     S
C1259  H1260   1.111   .     S
C1259  H1261   1.110   .     S
C1259  H1262   1.108   .     S
N1263  H1264   1.031   .     S
N1263  C1265   1.448   .     S
C1265  H1268   1.110   .     S
C1265  H1266   1.109   .     S
C1265  H1343   1.108   .     S
N1269  H1270   1.032   .     S
N1269  C1271   1.446   .     S
C1271  H1274   1.111   .     S
C1271  H816    1.112   1_565 S
C1271  H817    1.110   1_565 S
N1275  H1276   1.032   .     S
C1277  H1280   1.108   .     S
C1277  H1279   1.110   .     S
C1277  H1278   1.112   .     S
C1277  N1351   1.446   .     S
H1282  N825    1.032   1_565 S
C1283  H1286   1.110   .     S
C1283  N825    1.445   1_565 S
C1283  H828    1.109   1_565 S
C1283  H829    1.108   1_565 S
N1287  C1289   1.452   .     S
N1287  C766    1.433   1_565 S
N1287  H832    1.032   1_565 S
C1289  H1290   1.109   .     S
C1289  H1292   1.113   .     S
C1289  H835    1.111   1_565 S
C1293  O1323   1.272   .     A
C1293  O1325   1.283   .     A
C1293  C1297   1.403   .     S
C1294  O1326   1.290   .     A
C1294  C1298   1.409   .     S
C1294  O1324   1.268   .     A
C1295  C1312   1.403   .     A
C1295  H1317   1.081   .     S
C1295  C629    1.387   1_556 S
C1296  H1318   1.081   .     S
C1296  C1311   1.403   .     A
C1297  C842    1.362   1_565 S
C1297  N901    1.433   1_565 S
C1299  O1329   1.285   .     A
C1299  C1304   1.429   .     S
C1299  O1327   1.284   .     A
C1300  O1330   1.283   .     A
C1300  C1303   1.429   .     S
C1300  O1328   1.286   .     A
C1301  N1333   1.429   .     S
C1301  C1303   1.403   .     A
C1301  C1311   1.402   .     A
C1302  C1312   1.402   .     A
C1302  C1304   1.400   .     A
C1302  N1339   1.427   .     S
C1303  C1305   1.388   .     A
C1304  C1306   1.390   .     A
C1305  C1307   1.383   .     A
C1305  H1315   1.084   .     S
C1306  C1308   1.385   .     A
C1306  H1316   1.085   .     S
C1307  C1309   1.415   .     A
C1307  C1313   1.407   .     A
C1308  C1314   1.409   .     A
C1308  C1310   1.415   .     A
C1309  C1311   1.419   .     A
C1310  C1312   1.420   .     A
C1310  C625    1.398   1_556 S
C1313  N1345   1.424   .     S
C1314  N1351   1.425   .     S
C1314  C612    1.390   1_556 S
H1320  N1170   1.027   1_655 S
N1321  Zn1332  2.010   .     S
N1321  H1167   1.029   1_655 S
N1321  N1170   1.276   1_655 S
N1322  Zn1331  2.010   .     S
O1323  Zn1331  1.967   .     S
O1324  Zn1332  1.967   .     S
O1325  Zn1332  1.991   .     S
O1326  Zn1331  1.991   .     S
O1327  Zn1331  1.998   .     S
O1328  Zn1332  1.998   .     S
O1329  Zn1332  2.027   .     S
O1330  Zn1331  2.027   .     S
N1333  H1334   1.031   .     S
N1333  C1335   1.445   .     S
C1335  H1336   1.111   .     S
C1335  H1337   1.110   .     S
C1335  H1338   1.108   .     S
N1339  H1340   1.031   .     S
N1339  C1341   1.448   .     S
C1341  H1344   1.110   .     S
C1341  H1342   1.109   .     S
C1341  H1191   1.108   1_655 S
N1345  H1346   1.032   .     S
N1345  C1347   1.446   .     S
C1347  H1350   1.111   .     S
C1347  H892    1.112   1_565 S
C1347  H893    1.110   1_565 S
N1351  H1352   1.032   .     S
C1353  H1356   1.108   .     S
C1353  H1355   1.110   .     S
C1353  H1354   1.112   .     S
C1353  N1199   1.446   1_655 S
H1358  N901    1.032   1_565 S
C1359  H1362   1.110   .     S
C1359  N901    1.445   1_565 S
C1359  H904    1.109   1_565 S
C1359  H905    1.108   1_565 S
N1363  C1365   1.452   .     S
N1363  C842    1.433   1_565 S
N1363  H908    1.032   1_565 S
C1365  H1366   1.109   .     S
C1365  H1368   1.113   .     S
C1365  H911    1.111   1_565 S
