data_str_m2_o1_o16_pcu_sym.143
_audit_creation_date              2020-01-03
_audit_creation_method            'Materials Studio'
_symmetry_space_group_name_H-M    'P1'
_symmetry_Int_Tables_number       1
_symmetry_cell_setting            triclinic
loop_
_symmetry_equiv_pos_as_xyz
  x,y,z
_cell_length_a                    28.7565
_cell_length_b                    32.2458
_cell_length_c                    26.9884
_cell_angle_alpha                 91.2689
_cell_angle_beta                  72.4222
_cell_angle_gamma                 88.9276
loop_
_atom_site_label
_atom_site_type_symbol
_atom_site_fract_x
_atom_site_fract_y
_atom_site_fract_z
_atom_site_U_iso_or_equiv
_atom_site_adp_type
_atom_site_occupancy
C1     C     0.16604   0.24585   0.25081   0.00000  Uiso   1.00
C2     C     0.14573   0.17024   0.48987   0.00000  Uiso   1.00
C3     C     0.15736   0.18014   0.43659   0.00000  Uiso   1.00
C4     C     0.18118   0.17679   0.01645   0.00000  Uiso   1.00
C5     C     0.22557   0.19669   0.49122   0.00000  Uiso   1.00
C6     C     0.23360   0.20998   0.44058   0.00000  Uiso   1.00
C7     C     0.20020   0.20213   0.41413   0.00000  Uiso   1.00
C8     C     0.17388   0.16388   0.06745   0.00000  Uiso   1.00
C9     C     0.25111   0.19144   0.06891   0.00000  Uiso   1.00
C10    C     0.12540   0.16830   0.40759   0.00000  Uiso   1.00
C11    C     0.17114   0.31359   0.29476   0.00000  Uiso   1.00
C12    C     0.14058   0.16815   0.35012   0.00000  Uiso   1.00
C13    C     0.17443   0.02320   0.29123   0.00000  Uiso   1.00
C14    C     0.16800   0.04292   0.24820   0.00000  Uiso   1.00
C15    C     0.15974   0.01999   0.20685   0.00000  Uiso   1.00
C16    C     0.15855   0.31044   0.20908   0.00000  Uiso   1.00
C17    C     0.16473   0.29058   0.25224   0.00000  Uiso   1.00
C18    C     0.29914   0.19600   0.27731   0.00000  Uiso   1.00
C19    C     0.01524   0.19775   0.27625   0.00000  Uiso   1.00
C20    C     0.03329   0.13693   0.22276   0.00000  Uiso   1.00
C21    C     0.31734   0.13729   0.22184   0.00000  Uiso   1.00
C22    C     0.16738   0.08753   0.24862   0.00000  Uiso   1.00
C23    C     0.19279   0.16707   0.15022   0.00000  Uiso   1.00
C24    C     0.26063   0.20354   0.01773   0.00000  Uiso   1.00
C25    C     0.20737   0.17261   0.09414   0.00000  Uiso   1.00
C26    C     0.07981   0.15229   0.43361   0.00000  Uiso   1.00
C27    C     0.06631   0.14656   0.48679   0.00000  Uiso   1.00
C28    C     0.09883   0.15471   0.01462   0.00000  Uiso   1.00
Cu29   Cu    0.11978   0.16666   0.25000   0.00000  Uiso   1.00
Cu30   Cu    0.21355   0.16667   0.25000   0.00000  Uiso   1.00
H31    H     0.27713   0.19839   0.08959   0.00000  Uiso   1.00
H32    H     0.18031   0.04157   0.32284   0.00000  Uiso   1.00
H33    H     0.15347   0.29244   0.17676   0.00000  Uiso   1.00
H34    H     0.27262   0.21937   0.29826   0.00000  Uiso   1.00
H35    H     0.05874   0.11331   0.20058   0.00000  Uiso   1.00
H36    H     0.26590   0.22657   0.42055   0.00000  Uiso   1.00
H37    H     0.14206   0.14717   0.08788   0.00000  Uiso   1.00
H38    H     0.05474   0.14324   0.41263   0.00000  Uiso   1.00
H39    H     0.08555   0.14936   0.05570   0.00000  Uiso   1.00
H40    H     0.03070   0.13466   0.00646   0.00000  Uiso   1.00
H41    H     0.20856   0.21476   0.37619   0.00000  Uiso   1.00
N42    N     0.04931   0.16666   0.24999   0.00000  Uiso   1.00
N43    N     0.28402   0.16669   0.24999   0.00000  Uiso   1.00
O44    O     0.12708   0.22678   0.25001   0.00000  Uiso   1.00
O45    O     0.20627   0.22679   0.25000   0.00000  Uiso   1.00
O46    O     0.10775   0.16665   0.32549   0.00000  Uiso   1.00
O47    O     0.18694   0.16666   0.32549   0.00000  Uiso   1.00
O48    O     0.12706   0.10654   0.24999   0.00000  Uiso   1.00
O49    O     0.20625   0.10655   0.24999   0.00000  Uiso   1.00
O50    O     0.14640   0.16667   0.17451   0.00000  Uiso   1.00
O51    O     0.22559   0.16668   0.17451   0.00000  Uiso   1.00
N52    N     0.15413   0.03943   0.16167   0.00000  Uiso   1.00
H53    H     0.12293   0.05872   0.17300   0.00000  Uiso   1.00
H54    H     0.18438   0.05776   0.14599   0.00000  Uiso   1.00
C55    C     0.02674   0.23792   0.30082   0.00000  Uiso   1.00
C56    C     0.03756   0.23287   0.35238   0.00000  Uiso   1.00
H57    H     0.02560   0.20233   0.36910   0.00000  Uiso   1.00
H58    H     0.07681   0.23711   0.34727   0.00000  Uiso   1.00
H59    H     0.01770   0.25735   0.38098   0.00000  Uiso   1.00
H60    H     0.05329   0.25669   0.27276   0.00000  Uiso   1.00
H61    H     0.32793   0.25972   0.31015   0.00000  Uiso   1.00
N62    N     0.30257   0.10702   0.19056   0.00000  Uiso   1.00
H63    H     0.30957   0.07762   0.20272   0.00000  Uiso   1.00
H64    H     0.32438   0.10983   0.15208   0.00000  Uiso   1.00
N65    N     0.30565   0.22367   0.49430   0.00000  Uiso   1.00
H66    H     0.32517   0.20636   0.46118   0.00000  Uiso   1.00
H67    H     0.29792   0.25334   0.48350   0.00000  Uiso   1.00
C68    C     0.17335   0.29362   0.34431   0.00000  Uiso   1.00
C69    C     0.13178   0.30918   0.39157   0.00000  Uiso   1.00
H70    H     0.13601   0.00906   0.40055   0.00000  Uiso   1.00
H71    H     0.09604   0.30525   0.38442   0.00000  Uiso   1.00
H72    H     0.13216   0.29103   0.42596   0.00000  Uiso   1.00
H73    H     0.17010   0.25967   0.34171   0.00000  Uiso   1.00
H74    H     0.20897   0.30001   0.35072   0.00000  Uiso   1.00
C75    C     0.49937   0.24585   0.25081   0.00000  Uiso   1.00
C76    C     0.47906   0.17024   0.48987   0.00000  Uiso   1.00
C77    C     0.49070   0.18014   0.43659   0.00000  Uiso   1.00
C78    C     0.51451   0.17679   0.01645   0.00000  Uiso   1.00
C79    C     0.55890   0.19669   0.49122   0.00000  Uiso   1.00
C80    C     0.56693   0.20998   0.44058   0.00000  Uiso   1.00
C81    C     0.53354   0.20213   0.41413   0.00000  Uiso   1.00
C82    C     0.50722   0.16388   0.06745   0.00000  Uiso   1.00
C83    C     0.58444   0.19144   0.06891   0.00000  Uiso   1.00
C84    C     0.45873   0.16830   0.40759   0.00000  Uiso   1.00
C85    C     0.50448   0.31359   0.29476   0.00000  Uiso   1.00
C86    C     0.47391   0.16815   0.35012   0.00000  Uiso   1.00
C87    C     0.50776   0.02320   0.29123   0.00000  Uiso   1.00
C88    C     0.50133   0.04292   0.24820   0.00000  Uiso   1.00
C89    C     0.49308   0.01999   0.20685   0.00000  Uiso   1.00
C90    C     0.49188   0.31044   0.20908   0.00000  Uiso   1.00
C91    C     0.49806   0.29058   0.25224   0.00000  Uiso   1.00
C92    C     0.63247   0.19600   0.27731   0.00000  Uiso   1.00
C93    C     0.34857   0.19775   0.27625   0.00000  Uiso   1.00
C94    C     0.36662   0.13693   0.22276   0.00000  Uiso   1.00
C95    C     0.65067   0.13729   0.22184   0.00000  Uiso   1.00
C96    C     0.50071   0.08753   0.24862   0.00000  Uiso   1.00
C97    C     0.52612   0.16707   0.15022   0.00000  Uiso   1.00
C98    C     0.59396   0.20354   0.01773   0.00000  Uiso   1.00
C99    C     0.54070   0.17261   0.09414   0.00000  Uiso   1.00
C100   C     0.41314   0.15229   0.43361   0.00000  Uiso   1.00
C101   C     0.39964   0.14656   0.48679   0.00000  Uiso   1.00
C102   C     0.43217   0.15471   0.01462   0.00000  Uiso   1.00
Cu103  Cu    0.45311   0.16666   0.25000   0.00000  Uiso   1.00
Cu104  Cu    0.54689   0.16667   0.25000   0.00000  Uiso   1.00
H105   H     0.61047   0.19839   0.08959   0.00000  Uiso   1.00
H106   H     0.51364   0.04157   0.32284   0.00000  Uiso   1.00
H107   H     0.48680   0.29244   0.17676   0.00000  Uiso   1.00
H108   H     0.60596   0.21937   0.29826   0.00000  Uiso   1.00
H109   H     0.39207   0.11331   0.20058   0.00000  Uiso   1.00
H110   H     0.59923   0.22657   0.42055   0.00000  Uiso   1.00
H111   H     0.47539   0.14717   0.08788   0.00000  Uiso   1.00
H112   H     0.38807   0.14324   0.41263   0.00000  Uiso   1.00
H113   H     0.41888   0.14936   0.05570   0.00000  Uiso   1.00
H114   H     0.36404   0.13466   0.00646   0.00000  Uiso   1.00
H115   H     0.54189   0.21476   0.37619   0.00000  Uiso   1.00
N116   N     0.38265   0.16666   0.24999   0.00000  Uiso   1.00
N117   N     0.61735   0.16669   0.24999   0.00000  Uiso   1.00
O118   O     0.46042   0.22678   0.25001   0.00000  Uiso   1.00
O119   O     0.53961   0.22679   0.25000   0.00000  Uiso   1.00
O120   O     0.44108   0.16665   0.32549   0.00000  Uiso   1.00
O121   O     0.52027   0.16666   0.32549   0.00000  Uiso   1.00
O122   O     0.46039   0.10654   0.24999   0.00000  Uiso   1.00
O123   O     0.53958   0.10655   0.24999   0.00000  Uiso   1.00
O124   O     0.47973   0.16667   0.17451   0.00000  Uiso   1.00
O125   O     0.55892   0.16668   0.17451   0.00000  Uiso   1.00
N126   N     0.48746   0.03943   0.16167   0.00000  Uiso   1.00
H127   H     0.45627   0.05872   0.17300   0.00000  Uiso   1.00
H128   H     0.51771   0.05776   0.14599   0.00000  Uiso   1.00
C129   C     0.36007   0.23792   0.30082   0.00000  Uiso   1.00
C130   C     0.37090   0.23287   0.35238   0.00000  Uiso   1.00
H131   H     0.35894   0.20233   0.36910   0.00000  Uiso   1.00
H132   H     0.41014   0.23711   0.34727   0.00000  Uiso   1.00
H133   H     0.35103   0.25735   0.38098   0.00000  Uiso   1.00
H134   H     0.38663   0.25669   0.27276   0.00000  Uiso   1.00
H135   H     0.66126   0.25972   0.31015   0.00000  Uiso   1.00
N136   N     0.63590   0.10702   0.19056   0.00000  Uiso   1.00
H137   H     0.64290   0.07762   0.20272   0.00000  Uiso   1.00
H138   H     0.65771   0.10983   0.15208   0.00000  Uiso   1.00
N139   N     0.63898   0.22367   0.49430   0.00000  Uiso   1.00
H140   H     0.65850   0.20636   0.46118   0.00000  Uiso   1.00
H141   H     0.63126   0.25334   0.48350   0.00000  Uiso   1.00
C142   C     0.50669   0.29362   0.34431   0.00000  Uiso   1.00
C143   C     0.46511   0.30918   0.39157   0.00000  Uiso   1.00
H144   H     0.46935   0.00906   0.40055   0.00000  Uiso   1.00
H145   H     0.42938   0.30525   0.38442   0.00000  Uiso   1.00
H146   H     0.46549   0.29103   0.42596   0.00000  Uiso   1.00
H147   H     0.50343   0.25967   0.34171   0.00000  Uiso   1.00
H148   H     0.54231   0.30001   0.35072   0.00000  Uiso   1.00
C149   C     0.83271   0.24585   0.25081   0.00000  Uiso   1.00
C150   C     0.81239   0.17024   0.48987   0.00000  Uiso   1.00
C151   C     0.82403   0.18014   0.43659   0.00000  Uiso   1.00
C152   C     0.84784   0.17679   0.01645   0.00000  Uiso   1.00
C153   C     0.89224   0.19669   0.49122   0.00000  Uiso   1.00
C154   C     0.90026   0.20998   0.44058   0.00000  Uiso   1.00
C155   C     0.86687   0.20213   0.41413   0.00000  Uiso   1.00
C156   C     0.84055   0.16388   0.06745   0.00000  Uiso   1.00
C157   C     0.91777   0.19144   0.06891   0.00000  Uiso   1.00
C158   C     0.79207   0.16830   0.40759   0.00000  Uiso   1.00
C159   C     0.83781   0.31359   0.29476   0.00000  Uiso   1.00
C160   C     0.80725   0.16815   0.35012   0.00000  Uiso   1.00
C161   C     0.84109   0.02320   0.29123   0.00000  Uiso   1.00
C162   C     0.83467   0.04292   0.24820   0.00000  Uiso   1.00
C163   C     0.82641   0.01999   0.20685   0.00000  Uiso   1.00
C164   C     0.82521   0.31044   0.20908   0.00000  Uiso   1.00
C165   C     0.83139   0.29058   0.25224   0.00000  Uiso   1.00
C166   C     0.96581   0.19600   0.27731   0.00000  Uiso   1.00
C167   C     0.68190   0.19775   0.27625   0.00000  Uiso   1.00
C168   C     0.69995   0.13693   0.22276   0.00000  Uiso   1.00
C169   C     0.98401   0.13729   0.22184   0.00000  Uiso   1.00
C170   C     0.83404   0.08753   0.24862   0.00000  Uiso   1.00
C171   C     0.85946   0.16707   0.15022   0.00000  Uiso   1.00
C172   C     0.92730   0.20354   0.01773   0.00000  Uiso   1.00
C173   C     0.87404   0.17261   0.09414   0.00000  Uiso   1.00
C174   C     0.74647   0.15229   0.43361   0.00000  Uiso   1.00
C175   C     0.73297   0.14656   0.48679   0.00000  Uiso   1.00
C176   C     0.76550   0.15471   0.01462   0.00000  Uiso   1.00
Cu177  Cu    0.78645   0.16666   0.25000   0.00000  Uiso   1.00
Cu178  Cu    0.88022   0.16667   0.25000   0.00000  Uiso   1.00
H179   H     0.94380   0.19839   0.08959   0.00000  Uiso   1.00
H180   H     0.84697   0.04157   0.32284   0.00000  Uiso   1.00
H181   H     0.82013   0.29244   0.17676   0.00000  Uiso   1.00
H182   H     0.93929   0.21937   0.29826   0.00000  Uiso   1.00
H183   H     0.72541   0.11331   0.20058   0.00000  Uiso   1.00
H184   H     0.93256   0.22657   0.42055   0.00000  Uiso   1.00
H185   H     0.80873   0.14717   0.08788   0.00000  Uiso   1.00
H186   H     0.72140   0.14324   0.41263   0.00000  Uiso   1.00
H187   H     0.75222   0.14936   0.05570   0.00000  Uiso   1.00
H188   H     0.69737   0.13466   0.00646   0.00000  Uiso   1.00
H189   H     0.87522   0.21476   0.37619   0.00000  Uiso   1.00
N190   N     0.71598   0.16666   0.24999   0.00000  Uiso   1.00
N191   N     0.95069   0.16669   0.24999   0.00000  Uiso   1.00
O192   O     0.79375   0.22678   0.25001   0.00000  Uiso   1.00
O193   O     0.87294   0.22679   0.25000   0.00000  Uiso   1.00
O194   O     0.77441   0.16665   0.32549   0.00000  Uiso   1.00
O195   O     0.85360   0.16666   0.32549   0.00000  Uiso   1.00
O196   O     0.79373   0.10654   0.24999   0.00000  Uiso   1.00
O197   O     0.87292   0.10655   0.24999   0.00000  Uiso   1.00
O198   O     0.81306   0.16667   0.17451   0.00000  Uiso   1.00
O199   O     0.89225   0.16668   0.17451   0.00000  Uiso   1.00
N200   N     0.82079   0.03943   0.16167   0.00000  Uiso   1.00
H201   H     0.78960   0.05872   0.17300   0.00000  Uiso   1.00
H202   H     0.85105   0.05776   0.14599   0.00000  Uiso   1.00
C203   C     0.69341   0.23792   0.30082   0.00000  Uiso   1.00
C204   C     0.70423   0.23287   0.35238   0.00000  Uiso   1.00
H205   H     0.69227   0.20233   0.36910   0.00000  Uiso   1.00
H206   H     0.74348   0.23711   0.34727   0.00000  Uiso   1.00
H207   H     0.68437   0.25735   0.38098   0.00000  Uiso   1.00
H208   H     0.71996   0.25669   0.27276   0.00000  Uiso   1.00
H209   H     0.99459   0.25972   0.31015   0.00000  Uiso   1.00
N210   N     0.96924   0.10702   0.19056   0.00000  Uiso   1.00
H211   H     0.97624   0.07762   0.20272   0.00000  Uiso   1.00
H212   H     0.99105   0.10983   0.15208   0.00000  Uiso   1.00
N213   N     0.97232   0.22367   0.49430   0.00000  Uiso   1.00
H214   H     0.99183   0.20636   0.46118   0.00000  Uiso   1.00
H215   H     0.96459   0.25334   0.48350   0.00000  Uiso   1.00
C216   C     0.84002   0.29362   0.34431   0.00000  Uiso   1.00
C217   C     0.79845   0.30918   0.39157   0.00000  Uiso   1.00
H218   H     0.80268   0.00906   0.40055   0.00000  Uiso   1.00
H219   H     0.76271   0.30525   0.38442   0.00000  Uiso   1.00
H220   H     0.79883   0.29103   0.42596   0.00000  Uiso   1.00
H221   H     0.83677   0.25967   0.34171   0.00000  Uiso   1.00
H222   H     0.87564   0.30001   0.35072   0.00000  Uiso   1.00
C223   C     0.16604   0.57918   0.25081   0.00000  Uiso   1.00
C224   C     0.14573   0.50357   0.48987   0.00000  Uiso   1.00
C225   C     0.15736   0.51347   0.43659   0.00000  Uiso   1.00
C226   C     0.18118   0.51012   0.01645   0.00000  Uiso   1.00
C227   C     0.22557   0.53003   0.49122   0.00000  Uiso   1.00
C228   C     0.23360   0.54332   0.44058   0.00000  Uiso   1.00
C229   C     0.20020   0.53546   0.41413   0.00000  Uiso   1.00
C230   C     0.17388   0.49722   0.06745   0.00000  Uiso   1.00
C231   C     0.25111   0.52477   0.06891   0.00000  Uiso   1.00
C232   C     0.12540   0.50164   0.40759   0.00000  Uiso   1.00
C233   C     0.17114   0.64692   0.29476   0.00000  Uiso   1.00
C234   C     0.14058   0.50149   0.35012   0.00000  Uiso   1.00
C235   C     0.17443   0.35653   0.29123   0.00000  Uiso   1.00
C236   C     0.16800   0.37625   0.24820   0.00000  Uiso   1.00
C237   C     0.15974   0.35333   0.20685   0.00000  Uiso   1.00
C238   C     0.15855   0.64377   0.20908   0.00000  Uiso   1.00
C239   C     0.16473   0.62391   0.25224   0.00000  Uiso   1.00
C240   C     0.29914   0.52933   0.27731   0.00000  Uiso   1.00
C241   C     0.01524   0.53109   0.27625   0.00000  Uiso   1.00
C242   C     0.03329   0.47026   0.22276   0.00000  Uiso   1.00
C243   C     0.31734   0.47062   0.22184   0.00000  Uiso   1.00
C244   C     0.16738   0.42086   0.24862   0.00000  Uiso   1.00
C245   C     0.19279   0.50040   0.15022   0.00000  Uiso   1.00
C246   C     0.26063   0.53687   0.01773   0.00000  Uiso   1.00
C247   C     0.20737   0.50594   0.09414   0.00000  Uiso   1.00
C248   C     0.07981   0.48562   0.43361   0.00000  Uiso   1.00
C249   C     0.06631   0.47989   0.48679   0.00000  Uiso   1.00
C250   C     0.09883   0.48804   0.01462   0.00000  Uiso   1.00
Cu251  Cu    0.11978   0.49999   0.25000   0.00000  Uiso   1.00
Cu252  Cu    0.21355   0.50001   0.25000   0.00000  Uiso   1.00
H253   H     0.27713   0.53172   0.08959   0.00000  Uiso   1.00
H254   H     0.18031   0.37490   0.32284   0.00000  Uiso   1.00
H255   H     0.15347   0.62578   0.17676   0.00000  Uiso   1.00
H256   H     0.27262   0.55271   0.29826   0.00000  Uiso   1.00
H257   H     0.05874   0.44664   0.20058   0.00000  Uiso   1.00
H258   H     0.26590   0.55990   0.42055   0.00000  Uiso   1.00
H259   H     0.14206   0.48050   0.08788   0.00000  Uiso   1.00
H260   H     0.05474   0.47657   0.41263   0.00000  Uiso   1.00
H261   H     0.08555   0.48269   0.05570   0.00000  Uiso   1.00
H262   H     0.03070   0.46799   0.00646   0.00000  Uiso   1.00
H263   H     0.20856   0.54809   0.37619   0.00000  Uiso   1.00
N264   N     0.04931   0.49999   0.24999   0.00000  Uiso   1.00
N265   N     0.28402   0.50002   0.24999   0.00000  Uiso   1.00
O266   O     0.12708   0.56011   0.25001   0.00000  Uiso   1.00
O267   O     0.20627   0.56012   0.25000   0.00000  Uiso   1.00
O268   O     0.10775   0.49998   0.32549   0.00000  Uiso   1.00
O269   O     0.18694   0.49999   0.32549   0.00000  Uiso   1.00
O270   O     0.12706   0.43988   0.24999   0.00000  Uiso   1.00
O271   O     0.20625   0.43989   0.24999   0.00000  Uiso   1.00
O272   O     0.14640   0.50001   0.17451   0.00000  Uiso   1.00
O273   O     0.22559   0.50002   0.17451   0.00000  Uiso   1.00
N274   N     0.15413   0.37276   0.16167   0.00000  Uiso   1.00
H275   H     0.12293   0.39205   0.17300   0.00000  Uiso   1.00
H276   H     0.18438   0.39110   0.14599   0.00000  Uiso   1.00
C277   C     0.02674   0.57126   0.30082   0.00000  Uiso   1.00
C278   C     0.03756   0.56620   0.35238   0.00000  Uiso   1.00
H279   H     0.02560   0.53567   0.36910   0.00000  Uiso   1.00
H280   H     0.07681   0.57045   0.34727   0.00000  Uiso   1.00
H281   H     0.01770   0.59068   0.38098   0.00000  Uiso   1.00
H282   H     0.05329   0.59002   0.27276   0.00000  Uiso   1.00
H283   H     0.32793   0.59305   0.31015   0.00000  Uiso   1.00
N284   N     0.30257   0.44035   0.19056   0.00000  Uiso   1.00
H285   H     0.30957   0.41095   0.20272   0.00000  Uiso   1.00
H286   H     0.32438   0.44316   0.15208   0.00000  Uiso   1.00
N287   N     0.30565   0.55701   0.49430   0.00000  Uiso   1.00
H288   H     0.32517   0.53969   0.46118   0.00000  Uiso   1.00
H289   H     0.29792   0.58667   0.48350   0.00000  Uiso   1.00
C290   C     0.17335   0.62695   0.34431   0.00000  Uiso   1.00
C291   C     0.13178   0.64252   0.39157   0.00000  Uiso   1.00
H292   H     0.13601   0.34240   0.40055   0.00000  Uiso   1.00
H293   H     0.09604   0.63858   0.38442   0.00000  Uiso   1.00
H294   H     0.13216   0.62436   0.42596   0.00000  Uiso   1.00
H295   H     0.17010   0.59300   0.34171   0.00000  Uiso   1.00
H296   H     0.20897   0.63335   0.35072   0.00000  Uiso   1.00
C297   C     0.49937   0.57918   0.25081   0.00000  Uiso   1.00
C298   C     0.47906   0.50357   0.48987   0.00000  Uiso   1.00
C299   C     0.49070   0.51347   0.43659   0.00000  Uiso   1.00
C300   C     0.51451   0.51012   0.01645   0.00000  Uiso   1.00
C301   C     0.55890   0.53003   0.49122   0.00000  Uiso   1.00
C302   C     0.56693   0.54332   0.44058   0.00000  Uiso   1.00
C303   C     0.53354   0.53546   0.41413   0.00000  Uiso   1.00
C304   C     0.50722   0.49722   0.06745   0.00000  Uiso   1.00
C305   C     0.58444   0.52477   0.06891   0.00000  Uiso   1.00
C306   C     0.45873   0.50164   0.40759   0.00000  Uiso   1.00
C307   C     0.50448   0.64692   0.29476   0.00000  Uiso   1.00
C308   C     0.47391   0.50149   0.35012   0.00000  Uiso   1.00
C309   C     0.50776   0.35653   0.29123   0.00000  Uiso   1.00
C310   C     0.50133   0.37625   0.24820   0.00000  Uiso   1.00
C311   C     0.49308   0.35333   0.20685   0.00000  Uiso   1.00
C312   C     0.49188   0.64377   0.20908   0.00000  Uiso   1.00
C313   C     0.49806   0.62391   0.25224   0.00000  Uiso   1.00
C314   C     0.63247   0.52933   0.27731   0.00000  Uiso   1.00
C315   C     0.34857   0.53109   0.27625   0.00000  Uiso   1.00
C316   C     0.36662   0.47026   0.22276   0.00000  Uiso   1.00
C317   C     0.65067   0.47062   0.22184   0.00000  Uiso   1.00
C318   C     0.50071   0.42086   0.24862   0.00000  Uiso   1.00
C319   C     0.52612   0.50040   0.15022   0.00000  Uiso   1.00
C320   C     0.59396   0.53687   0.01773   0.00000  Uiso   1.00
C321   C     0.54070   0.50594   0.09414   0.00000  Uiso   1.00
C322   C     0.41314   0.48562   0.43361   0.00000  Uiso   1.00
C323   C     0.39964   0.47989   0.48679   0.00000  Uiso   1.00
C324   C     0.43217   0.48804   0.01462   0.00000  Uiso   1.00
Cu325  Cu    0.45311   0.49999   0.25000   0.00000  Uiso   1.00
Cu326  Cu    0.54689   0.50001   0.25000   0.00000  Uiso   1.00
H327   H     0.61047   0.53172   0.08959   0.00000  Uiso   1.00
H328   H     0.51364   0.37490   0.32284   0.00000  Uiso   1.00
H329   H     0.48680   0.62578   0.17676   0.00000  Uiso   1.00
H330   H     0.60596   0.55271   0.29826   0.00000  Uiso   1.00
H331   H     0.39207   0.44664   0.20058   0.00000  Uiso   1.00
H332   H     0.59923   0.55990   0.42055   0.00000  Uiso   1.00
H333   H     0.47539   0.48050   0.08788   0.00000  Uiso   1.00
H334   H     0.38807   0.47657   0.41263   0.00000  Uiso   1.00
H335   H     0.41888   0.48269   0.05570   0.00000  Uiso   1.00
H336   H     0.36404   0.46799   0.00646   0.00000  Uiso   1.00
H337   H     0.54189   0.54809   0.37619   0.00000  Uiso   1.00
N338   N     0.38265   0.49999   0.24999   0.00000  Uiso   1.00
N339   N     0.61735   0.50002   0.24999   0.00000  Uiso   1.00
O340   O     0.46042   0.56011   0.25001   0.00000  Uiso   1.00
O341   O     0.53961   0.56012   0.25000   0.00000  Uiso   1.00
O342   O     0.44108   0.49998   0.32549   0.00000  Uiso   1.00
O343   O     0.52027   0.49999   0.32549   0.00000  Uiso   1.00
O344   O     0.46039   0.43988   0.24999   0.00000  Uiso   1.00
O345   O     0.53958   0.43989   0.24999   0.00000  Uiso   1.00
O346   O     0.47973   0.50001   0.17451   0.00000  Uiso   1.00
O347   O     0.55892   0.50002   0.17451   0.00000  Uiso   1.00
N348   N     0.48746   0.37276   0.16167   0.00000  Uiso   1.00
H349   H     0.45627   0.39205   0.17300   0.00000  Uiso   1.00
H350   H     0.51771   0.39110   0.14599   0.00000  Uiso   1.00
C351   C     0.36007   0.57126   0.30082   0.00000  Uiso   1.00
C352   C     0.37090   0.56620   0.35238   0.00000  Uiso   1.00
H353   H     0.35894   0.53567   0.36910   0.00000  Uiso   1.00
H354   H     0.41014   0.57045   0.34727   0.00000  Uiso   1.00
H355   H     0.35103   0.59068   0.38098   0.00000  Uiso   1.00
H356   H     0.38663   0.59002   0.27276   0.00000  Uiso   1.00
H357   H     0.66126   0.59305   0.31015   0.00000  Uiso   1.00
N358   N     0.63590   0.44035   0.19056   0.00000  Uiso   1.00
H359   H     0.64290   0.41095   0.20272   0.00000  Uiso   1.00
H360   H     0.65771   0.44316   0.15208   0.00000  Uiso   1.00
N361   N     0.63898   0.55701   0.49430   0.00000  Uiso   1.00
H362   H     0.65850   0.53969   0.46118   0.00000  Uiso   1.00
H363   H     0.63126   0.58667   0.48350   0.00000  Uiso   1.00
C364   C     0.50669   0.62695   0.34431   0.00000  Uiso   1.00
C365   C     0.46511   0.64252   0.39157   0.00000  Uiso   1.00
H366   H     0.46935   0.34240   0.40055   0.00000  Uiso   1.00
H367   H     0.42938   0.63858   0.38442   0.00000  Uiso   1.00
H368   H     0.46549   0.62436   0.42596   0.00000  Uiso   1.00
H369   H     0.50343   0.59300   0.34171   0.00000  Uiso   1.00
H370   H     0.54231   0.63335   0.35072   0.00000  Uiso   1.00
C371   C     0.83271   0.57918   0.25081   0.00000  Uiso   1.00
C372   C     0.81239   0.50357   0.48987   0.00000  Uiso   1.00
C373   C     0.82403   0.51347   0.43659   0.00000  Uiso   1.00
C374   C     0.84784   0.51012   0.01645   0.00000  Uiso   1.00
C375   C     0.89224   0.53003   0.49122   0.00000  Uiso   1.00
C376   C     0.90026   0.54332   0.44058   0.00000  Uiso   1.00
C377   C     0.86687   0.53546   0.41413   0.00000  Uiso   1.00
C378   C     0.84055   0.49722   0.06745   0.00000  Uiso   1.00
C379   C     0.91777   0.52477   0.06891   0.00000  Uiso   1.00
C380   C     0.79207   0.50164   0.40759   0.00000  Uiso   1.00
C381   C     0.83781   0.64692   0.29476   0.00000  Uiso   1.00
C382   C     0.80725   0.50149   0.35012   0.00000  Uiso   1.00
C383   C     0.84109   0.35653   0.29123   0.00000  Uiso   1.00
C384   C     0.83467   0.37625   0.24820   0.00000  Uiso   1.00
C385   C     0.82641   0.35333   0.20685   0.00000  Uiso   1.00
C386   C     0.82521   0.64377   0.20908   0.00000  Uiso   1.00
C387   C     0.83139   0.62391   0.25224   0.00000  Uiso   1.00
C388   C     0.96581   0.52933   0.27731   0.00000  Uiso   1.00
C389   C     0.68190   0.53109   0.27625   0.00000  Uiso   1.00
C390   C     0.69995   0.47026   0.22276   0.00000  Uiso   1.00
C391   C     0.98401   0.47062   0.22184   0.00000  Uiso   1.00
C392   C     0.83404   0.42086   0.24862   0.00000  Uiso   1.00
C393   C     0.85946   0.50040   0.15022   0.00000  Uiso   1.00
C394   C     0.92730   0.53687   0.01773   0.00000  Uiso   1.00
C395   C     0.87404   0.50594   0.09414   0.00000  Uiso   1.00
C396   C     0.74647   0.48562   0.43361   0.00000  Uiso   1.00
C397   C     0.73297   0.47989   0.48679   0.00000  Uiso   1.00
C398   C     0.76550   0.48804   0.01462   0.00000  Uiso   1.00
Cu399  Cu    0.78645   0.49999   0.25000   0.00000  Uiso   1.00
Cu400  Cu    0.88022   0.50001   0.25000   0.00000  Uiso   1.00
H401   H     0.94380   0.53172   0.08959   0.00000  Uiso   1.00
H402   H     0.84697   0.37490   0.32284   0.00000  Uiso   1.00
H403   H     0.82013   0.62578   0.17676   0.00000  Uiso   1.00
H404   H     0.93929   0.55271   0.29826   0.00000  Uiso   1.00
H405   H     0.72541   0.44664   0.20058   0.00000  Uiso   1.00
H406   H     0.93256   0.55990   0.42055   0.00000  Uiso   1.00
H407   H     0.80873   0.48050   0.08788   0.00000  Uiso   1.00
H408   H     0.72140   0.47657   0.41263   0.00000  Uiso   1.00
H409   H     0.75222   0.48269   0.05570   0.00000  Uiso   1.00
H410   H     0.69737   0.46799   0.00646   0.00000  Uiso   1.00
H411   H     0.87522   0.54809   0.37619   0.00000  Uiso   1.00
N412   N     0.71598   0.49999   0.24999   0.00000  Uiso   1.00
N413   N     0.95069   0.50002   0.24999   0.00000  Uiso   1.00
O414   O     0.79375   0.56011   0.25001   0.00000  Uiso   1.00
O415   O     0.87294   0.56012   0.25000   0.00000  Uiso   1.00
O416   O     0.77441   0.49998   0.32549   0.00000  Uiso   1.00
O417   O     0.85360   0.49999   0.32549   0.00000  Uiso   1.00
O418   O     0.79373   0.43988   0.24999   0.00000  Uiso   1.00
O419   O     0.87292   0.43989   0.24999   0.00000  Uiso   1.00
O420   O     0.81306   0.50001   0.17451   0.00000  Uiso   1.00
O421   O     0.89225   0.50002   0.17451   0.00000  Uiso   1.00
N422   N     0.82079   0.37276   0.16167   0.00000  Uiso   1.00
H423   H     0.78960   0.39205   0.17300   0.00000  Uiso   1.00
H424   H     0.85105   0.39110   0.14599   0.00000  Uiso   1.00
C425   C     0.69341   0.57126   0.30082   0.00000  Uiso   1.00
C426   C     0.70423   0.56620   0.35238   0.00000  Uiso   1.00
H427   H     0.69227   0.53567   0.36910   0.00000  Uiso   1.00
H428   H     0.74348   0.57045   0.34727   0.00000  Uiso   1.00
H429   H     0.68437   0.59068   0.38098   0.00000  Uiso   1.00
H430   H     0.71996   0.59002   0.27276   0.00000  Uiso   1.00
H431   H     0.99459   0.59305   0.31015   0.00000  Uiso   1.00
N432   N     0.96924   0.44035   0.19056   0.00000  Uiso   1.00
H433   H     0.97624   0.41095   0.20272   0.00000  Uiso   1.00
H434   H     0.99105   0.44316   0.15208   0.00000  Uiso   1.00
N435   N     0.97232   0.55701   0.49430   0.00000  Uiso   1.00
H436   H     0.99183   0.53969   0.46118   0.00000  Uiso   1.00
H437   H     0.96459   0.58667   0.48350   0.00000  Uiso   1.00
C438   C     0.84002   0.62695   0.34431   0.00000  Uiso   1.00
C439   C     0.79845   0.64252   0.39157   0.00000  Uiso   1.00
H440   H     0.80268   0.34240   0.40055   0.00000  Uiso   1.00
H441   H     0.76271   0.63858   0.38442   0.00000  Uiso   1.00
H442   H     0.79883   0.62436   0.42596   0.00000  Uiso   1.00
H443   H     0.83677   0.59300   0.34171   0.00000  Uiso   1.00
H444   H     0.87564   0.63335   0.35072   0.00000  Uiso   1.00
C445   C     0.16604   0.91251   0.25081   0.00000  Uiso   1.00
C446   C     0.14573   0.83691   0.48987   0.00000  Uiso   1.00
C447   C     0.15736   0.84680   0.43659   0.00000  Uiso   1.00
C448   C     0.18118   0.84346   0.01645   0.00000  Uiso   1.00
C449   C     0.22557   0.86336   0.49122   0.00000  Uiso   1.00
C450   C     0.23360   0.87665   0.44058   0.00000  Uiso   1.00
C451   C     0.20020   0.86879   0.41413   0.00000  Uiso   1.00
C452   C     0.17388   0.83055   0.06745   0.00000  Uiso   1.00
C453   C     0.25111   0.85811   0.06891   0.00000  Uiso   1.00
C454   C     0.12540   0.83497   0.40759   0.00000  Uiso   1.00
C455   C     0.17114   0.98025   0.29476   0.00000  Uiso   1.00
C456   C     0.14058   0.83482   0.35012   0.00000  Uiso   1.00
C457   C     0.17443   0.68987   0.29123   0.00000  Uiso   1.00
C458   C     0.16800   0.70958   0.24820   0.00000  Uiso   1.00
C459   C     0.15974   0.68666   0.20685   0.00000  Uiso   1.00
C460   C     0.15855   0.97710   0.20908   0.00000  Uiso   1.00
C461   C     0.16473   0.95725   0.25224   0.00000  Uiso   1.00
C462   C     0.29914   0.86267   0.27731   0.00000  Uiso   1.00
C463   C     0.01524   0.86442   0.27625   0.00000  Uiso   1.00
C464   C     0.03329   0.80360   0.22276   0.00000  Uiso   1.00
C465   C     0.31734   0.80395   0.22184   0.00000  Uiso   1.00
C466   C     0.16738   0.75419   0.24862   0.00000  Uiso   1.00
C467   C     0.19279   0.83373   0.15022   0.00000  Uiso   1.00
C468   C     0.26063   0.87021   0.01773   0.00000  Uiso   1.00
C469   C     0.20737   0.83928   0.09414   0.00000  Uiso   1.00
C470   C     0.07981   0.81895   0.43361   0.00000  Uiso   1.00
C471   C     0.06631   0.81323   0.48679   0.00000  Uiso   1.00
C472   C     0.09883   0.82138   0.01462   0.00000  Uiso   1.00
Cu473  Cu    0.11978   0.83333   0.25000   0.00000  Uiso   1.00
Cu474  Cu    0.21355   0.83334   0.25000   0.00000  Uiso   1.00
H475   H     0.27713   0.86505   0.08959   0.00000  Uiso   1.00
H476   H     0.18031   0.70823   0.32284   0.00000  Uiso   1.00
H477   H     0.15347   0.95911   0.17676   0.00000  Uiso   1.00
H478   H     0.27262   0.88604   0.29826   0.00000  Uiso   1.00
H479   H     0.05874   0.77998   0.20058   0.00000  Uiso   1.00
H480   H     0.26590   0.89324   0.42055   0.00000  Uiso   1.00
H481   H     0.14206   0.81384   0.08788   0.00000  Uiso   1.00
H482   H     0.05474   0.80991   0.41263   0.00000  Uiso   1.00
H483   H     0.08555   0.81603   0.05570   0.00000  Uiso   1.00
H484   H     0.03070   0.80132   0.00646   0.00000  Uiso   1.00
H485   H     0.20856   0.88143   0.37619   0.00000  Uiso   1.00
N486   N     0.04931   0.83332   0.24999   0.00000  Uiso   1.00
N487   N     0.28402   0.83335   0.24999   0.00000  Uiso   1.00
O488   O     0.12708   0.89345   0.25001   0.00000  Uiso   1.00
O489   O     0.20627   0.89346   0.25000   0.00000  Uiso   1.00
O490   O     0.10775   0.83332   0.32549   0.00000  Uiso   1.00
O491   O     0.18694   0.83333   0.32549   0.00000  Uiso   1.00
O492   O     0.12706   0.77321   0.24999   0.00000  Uiso   1.00
O493   O     0.20625   0.77322   0.24999   0.00000  Uiso   1.00
O494   O     0.14640   0.83334   0.17451   0.00000  Uiso   1.00
O495   O     0.22559   0.83335   0.17451   0.00000  Uiso   1.00
N496   N     0.15413   0.70609   0.16167   0.00000  Uiso   1.00
H497   H     0.12293   0.72539   0.17300   0.00000  Uiso   1.00
H498   H     0.18438   0.72443   0.14599   0.00000  Uiso   1.00
C499   C     0.02674   0.90459   0.30082   0.00000  Uiso   1.00
C500   C     0.03756   0.89953   0.35238   0.00000  Uiso   1.00
H501   H     0.02560   0.86900   0.36910   0.00000  Uiso   1.00
H502   H     0.07681   0.90378   0.34727   0.00000  Uiso   1.00
H503   H     0.01770   0.92401   0.38098   0.00000  Uiso   1.00
H504   H     0.05329   0.92336   0.27276   0.00000  Uiso   1.00
H505   H     0.32793   0.92639   0.31015   0.00000  Uiso   1.00
N506   N     0.30257   0.77368   0.19056   0.00000  Uiso   1.00
H507   H     0.30957   0.74429   0.20272   0.00000  Uiso   1.00
H508   H     0.32438   0.77649   0.15208   0.00000  Uiso   1.00
N509   N     0.30565   0.89034   0.49430   0.00000  Uiso   1.00
H510   H     0.32517   0.87303   0.46118   0.00000  Uiso   1.00
H511   H     0.29792   0.92000   0.48350   0.00000  Uiso   1.00
C512   C     0.17335   0.96028   0.34431   0.00000  Uiso   1.00
C513   C     0.13178   0.97585   0.39157   0.00000  Uiso   1.00
H514   H     0.13601   0.67573   0.40055   0.00000  Uiso   1.00
H515   H     0.09604   0.97192   0.38442   0.00000  Uiso   1.00
H516   H     0.13216   0.95770   0.42596   0.00000  Uiso   1.00
H517   H     0.17010   0.92634   0.34171   0.00000  Uiso   1.00
H518   H     0.20897   0.96668   0.35072   0.00000  Uiso   1.00
C519   C     0.49937   0.91251   0.25081   0.00000  Uiso   1.00
C520   C     0.47906   0.83691   0.48987   0.00000  Uiso   1.00
C521   C     0.49070   0.84680   0.43659   0.00000  Uiso   1.00
C522   C     0.51451   0.84346   0.01645   0.00000  Uiso   1.00
C523   C     0.55890   0.86336   0.49122   0.00000  Uiso   1.00
C524   C     0.56693   0.87665   0.44058   0.00000  Uiso   1.00
C525   C     0.53354   0.86879   0.41413   0.00000  Uiso   1.00
C526   C     0.50722   0.83055   0.06745   0.00000  Uiso   1.00
C527   C     0.58444   0.85811   0.06891   0.00000  Uiso   1.00
C528   C     0.45873   0.83497   0.40759   0.00000  Uiso   1.00
C529   C     0.50448   0.98025   0.29476   0.00000  Uiso   1.00
C530   C     0.47391   0.83482   0.35012   0.00000  Uiso   1.00
C531   C     0.50776   0.68987   0.29123   0.00000  Uiso   1.00
C532   C     0.50133   0.70958   0.24820   0.00000  Uiso   1.00
C533   C     0.49308   0.68666   0.20685   0.00000  Uiso   1.00
C534   C     0.49188   0.97710   0.20908   0.00000  Uiso   1.00
C535   C     0.49806   0.95725   0.25224   0.00000  Uiso   1.00
C536   C     0.63247   0.86267   0.27731   0.00000  Uiso   1.00
C537   C     0.34857   0.86442   0.27625   0.00000  Uiso   1.00
C538   C     0.36662   0.80360   0.22276   0.00000  Uiso   1.00
C539   C     0.65067   0.80395   0.22184   0.00000  Uiso   1.00
C540   C     0.50071   0.75419   0.24862   0.00000  Uiso   1.00
C541   C     0.52612   0.83373   0.15022   0.00000  Uiso   1.00
C542   C     0.59396   0.87021   0.01773   0.00000  Uiso   1.00
C543   C     0.54070   0.83928   0.09414   0.00000  Uiso   1.00
C544   C     0.41314   0.81895   0.43361   0.00000  Uiso   1.00
C545   C     0.39964   0.81323   0.48679   0.00000  Uiso   1.00
C546   C     0.43217   0.82138   0.01462   0.00000  Uiso   1.00
Cu547  Cu    0.45311   0.83333   0.25000   0.00000  Uiso   1.00
Cu548  Cu    0.54689   0.83334   0.25000   0.00000  Uiso   1.00
H549   H     0.61047   0.86505   0.08959   0.00000  Uiso   1.00
H550   H     0.51364   0.70823   0.32284   0.00000  Uiso   1.00
H551   H     0.48680   0.95911   0.17676   0.00000  Uiso   1.00
H552   H     0.60596   0.88604   0.29826   0.00000  Uiso   1.00
H553   H     0.39207   0.77998   0.20058   0.00000  Uiso   1.00
H554   H     0.59923   0.89324   0.42055   0.00000  Uiso   1.00
H555   H     0.47539   0.81384   0.08788   0.00000  Uiso   1.00
H556   H     0.38807   0.80991   0.41263   0.00000  Uiso   1.00
H557   H     0.41888   0.81603   0.05570   0.00000  Uiso   1.00
H558   H     0.36404   0.80132   0.00646   0.00000  Uiso   1.00
H559   H     0.54189   0.88143   0.37619   0.00000  Uiso   1.00
N560   N     0.38265   0.83332   0.24999   0.00000  Uiso   1.00
N561   N     0.61735   0.83335   0.24999   0.00000  Uiso   1.00
O562   O     0.46042   0.89345   0.25001   0.00000  Uiso   1.00
O563   O     0.53961   0.89346   0.25000   0.00000  Uiso   1.00
O564   O     0.44108   0.83332   0.32549   0.00000  Uiso   1.00
O565   O     0.52027   0.83333   0.32549   0.00000  Uiso   1.00
O566   O     0.46039   0.77321   0.24999   0.00000  Uiso   1.00
O567   O     0.53958   0.77322   0.24999   0.00000  Uiso   1.00
O568   O     0.47973   0.83334   0.17451   0.00000  Uiso   1.00
O569   O     0.55892   0.83335   0.17451   0.00000  Uiso   1.00
N570   N     0.48746   0.70609   0.16167   0.00000  Uiso   1.00
H571   H     0.45627   0.72539   0.17300   0.00000  Uiso   1.00
H572   H     0.51771   0.72443   0.14599   0.00000  Uiso   1.00
C573   C     0.36007   0.90459   0.30082   0.00000  Uiso   1.00
C574   C     0.37090   0.89953   0.35238   0.00000  Uiso   1.00
H575   H     0.35894   0.86900   0.36910   0.00000  Uiso   1.00
H576   H     0.41014   0.90378   0.34727   0.00000  Uiso   1.00
H577   H     0.35103   0.92401   0.38098   0.00000  Uiso   1.00
H578   H     0.38663   0.92336   0.27276   0.00000  Uiso   1.00
H579   H     0.66126   0.92639   0.31015   0.00000  Uiso   1.00
N580   N     0.63590   0.77368   0.19056   0.00000  Uiso   1.00
H581   H     0.64290   0.74429   0.20272   0.00000  Uiso   1.00
H582   H     0.65771   0.77649   0.15208   0.00000  Uiso   1.00
N583   N     0.63898   0.89034   0.49430   0.00000  Uiso   1.00
H584   H     0.65850   0.87303   0.46118   0.00000  Uiso   1.00
H585   H     0.63126   0.92000   0.48350   0.00000  Uiso   1.00
C586   C     0.50669   0.96028   0.34431   0.00000  Uiso   1.00
C587   C     0.46511   0.97585   0.39157   0.00000  Uiso   1.00
H588   H     0.46935   0.67573   0.40055   0.00000  Uiso   1.00
H589   H     0.42938   0.97192   0.38442   0.00000  Uiso   1.00
H590   H     0.46549   0.95770   0.42596   0.00000  Uiso   1.00
H591   H     0.50343   0.92634   0.34171   0.00000  Uiso   1.00
H592   H     0.54231   0.96668   0.35072   0.00000  Uiso   1.00
C593   C     0.83271   0.91251   0.25081   0.00000  Uiso   1.00
C594   C     0.81239   0.83691   0.48987   0.00000  Uiso   1.00
C595   C     0.82403   0.84680   0.43659   0.00000  Uiso   1.00
C596   C     0.84784   0.84346   0.01645   0.00000  Uiso   1.00
C597   C     0.89224   0.86336   0.49122   0.00000  Uiso   1.00
C598   C     0.90026   0.87665   0.44058   0.00000  Uiso   1.00
C599   C     0.86687   0.86879   0.41413   0.00000  Uiso   1.00
C600   C     0.84055   0.83055   0.06745   0.00000  Uiso   1.00
C601   C     0.91777   0.85811   0.06891   0.00000  Uiso   1.00
C602   C     0.79207   0.83497   0.40759   0.00000  Uiso   1.00
C603   C     0.83781   0.98025   0.29476   0.00000  Uiso   1.00
C604   C     0.80725   0.83482   0.35012   0.00000  Uiso   1.00
C605   C     0.84109   0.68987   0.29123   0.00000  Uiso   1.00
C606   C     0.83467   0.70958   0.24820   0.00000  Uiso   1.00
C607   C     0.82641   0.68666   0.20685   0.00000  Uiso   1.00
C608   C     0.82521   0.97710   0.20908   0.00000  Uiso   1.00
C609   C     0.83139   0.95725   0.25224   0.00000  Uiso   1.00
C610   C     0.96581   0.86267   0.27731   0.00000  Uiso   1.00
C611   C     0.68190   0.86442   0.27625   0.00000  Uiso   1.00
C612   C     0.69995   0.80360   0.22276   0.00000  Uiso   1.00
C613   C     0.98401   0.80395   0.22184   0.00000  Uiso   1.00
C614   C     0.83404   0.75419   0.24862   0.00000  Uiso   1.00
C615   C     0.85946   0.83373   0.15022   0.00000  Uiso   1.00
C616   C     0.92730   0.87021   0.01773   0.00000  Uiso   1.00
C617   C     0.87404   0.83928   0.09414   0.00000  Uiso   1.00
C618   C     0.74647   0.81895   0.43361   0.00000  Uiso   1.00
C619   C     0.73297   0.81323   0.48679   0.00000  Uiso   1.00
C620   C     0.76550   0.82138   0.01462   0.00000  Uiso   1.00
Cu621  Cu    0.78645   0.83333   0.25000   0.00000  Uiso   1.00
Cu622  Cu    0.88022   0.83334   0.25000   0.00000  Uiso   1.00
H623   H     0.94380   0.86505   0.08959   0.00000  Uiso   1.00
H624   H     0.84697   0.70823   0.32284   0.00000  Uiso   1.00
H625   H     0.82013   0.95911   0.17676   0.00000  Uiso   1.00
H626   H     0.93929   0.88604   0.29826   0.00000  Uiso   1.00
H627   H     0.72541   0.77998   0.20058   0.00000  Uiso   1.00
H628   H     0.93256   0.89324   0.42055   0.00000  Uiso   1.00
H629   H     0.80873   0.81384   0.08788   0.00000  Uiso   1.00
H630   H     0.72140   0.80991   0.41263   0.00000  Uiso   1.00
H631   H     0.75222   0.81603   0.05570   0.00000  Uiso   1.00
H632   H     0.69737   0.80132   0.00646   0.00000  Uiso   1.00
H633   H     0.87522   0.88143   0.37619   0.00000  Uiso   1.00
N634   N     0.71598   0.83332   0.24999   0.00000  Uiso   1.00
N635   N     0.95069   0.83335   0.24999   0.00000  Uiso   1.00
O636   O     0.79375   0.89345   0.25001   0.00000  Uiso   1.00
O637   O     0.87294   0.89346   0.25000   0.00000  Uiso   1.00
O638   O     0.77441   0.83332   0.32549   0.00000  Uiso   1.00
O639   O     0.85360   0.83333   0.32549   0.00000  Uiso   1.00
O640   O     0.79373   0.77321   0.24999   0.00000  Uiso   1.00
O641   O     0.87292   0.77322   0.24999   0.00000  Uiso   1.00
O642   O     0.81306   0.83334   0.17451   0.00000  Uiso   1.00
O643   O     0.89225   0.83335   0.17451   0.00000  Uiso   1.00
N644   N     0.82079   0.70609   0.16167   0.00000  Uiso   1.00
H645   H     0.78960   0.72539   0.17300   0.00000  Uiso   1.00
H646   H     0.85105   0.72443   0.14599   0.00000  Uiso   1.00
C647   C     0.69341   0.90459   0.30082   0.00000  Uiso   1.00
C648   C     0.70423   0.89953   0.35238   0.00000  Uiso   1.00
H649   H     0.69227   0.86900   0.36910   0.00000  Uiso   1.00
H650   H     0.74348   0.90378   0.34727   0.00000  Uiso   1.00
H651   H     0.68437   0.92401   0.38098   0.00000  Uiso   1.00
H652   H     0.71996   0.92336   0.27276   0.00000  Uiso   1.00
H653   H     0.99459   0.92639   0.31015   0.00000  Uiso   1.00
N654   N     0.96924   0.77368   0.19056   0.00000  Uiso   1.00
H655   H     0.97624   0.74429   0.20272   0.00000  Uiso   1.00
H656   H     0.99105   0.77649   0.15208   0.00000  Uiso   1.00
N657   N     0.97232   0.89034   0.49430   0.00000  Uiso   1.00
H658   H     0.99183   0.87303   0.46118   0.00000  Uiso   1.00
H659   H     0.96459   0.92000   0.48350   0.00000  Uiso   1.00
C660   C     0.84002   0.96028   0.34431   0.00000  Uiso   1.00
C661   C     0.79845   0.97585   0.39157   0.00000  Uiso   1.00
H662   H     0.80268   0.67573   0.40055   0.00000  Uiso   1.00
H663   H     0.76271   0.97192   0.38442   0.00000  Uiso   1.00
H664   H     0.79883   0.95770   0.42596   0.00000  Uiso   1.00
H665   H     0.83677   0.92634   0.34171   0.00000  Uiso   1.00
H666   H     0.87564   0.96668   0.35072   0.00000  Uiso   1.00
C667   C     0.16604   0.24585   0.75081   0.00000  Uiso   1.00
C668   C     0.14573   0.17024   0.98987   0.00000  Uiso   1.00
C669   C     0.15736   0.18014   0.93659   0.00000  Uiso   1.00
C670   C     0.18118   0.17679   0.51645   0.00000  Uiso   1.00
C671   C     0.22557   0.19669   0.99122   0.00000  Uiso   1.00
C672   C     0.23360   0.20998   0.94058   0.00000  Uiso   1.00
C673   C     0.20020   0.20213   0.91413   0.00000  Uiso   1.00
C674   C     0.17388   0.16388   0.56745   0.00000  Uiso   1.00
C675   C     0.25111   0.19144   0.56891   0.00000  Uiso   1.00
C676   C     0.12540   0.16830   0.90759   0.00000  Uiso   1.00
C677   C     0.17114   0.31359   0.79476   0.00000  Uiso   1.00
C678   C     0.14058   0.16815   0.85012   0.00000  Uiso   1.00
C679   C     0.17443   0.02320   0.79123   0.00000  Uiso   1.00
C680   C     0.16800   0.04292   0.74820   0.00000  Uiso   1.00
C681   C     0.15974   0.01999   0.70685   0.00000  Uiso   1.00
C682   C     0.15855   0.31044   0.70908   0.00000  Uiso   1.00
C683   C     0.16473   0.29058   0.75224   0.00000  Uiso   1.00
C684   C     0.29914   0.19600   0.77731   0.00000  Uiso   1.00
C685   C     0.01524   0.19775   0.77625   0.00000  Uiso   1.00
C686   C     0.03329   0.13693   0.72276   0.00000  Uiso   1.00
C687   C     0.31734   0.13729   0.72184   0.00000  Uiso   1.00
C688   C     0.16738   0.08753   0.74862   0.00000  Uiso   1.00
C689   C     0.19279   0.16707   0.65022   0.00000  Uiso   1.00
C690   C     0.26063   0.20354   0.51773   0.00000  Uiso   1.00
C691   C     0.20737   0.17261   0.59414   0.00000  Uiso   1.00
C692   C     0.07981   0.15229   0.93361   0.00000  Uiso   1.00
C693   C     0.06631   0.14656   0.98679   0.00000  Uiso   1.00
C694   C     0.09883   0.15471   0.51462   0.00000  Uiso   1.00
Cu695  Cu    0.11978   0.16666   0.75000   0.00000  Uiso   1.00
Cu696  Cu    0.21355   0.16667   0.75000   0.00000  Uiso   1.00
H697   H     0.27713   0.19839   0.58959   0.00000  Uiso   1.00
H698   H     0.18031   0.04157   0.82284   0.00000  Uiso   1.00
H699   H     0.15347   0.29244   0.67676   0.00000  Uiso   1.00
H700   H     0.27262   0.21937   0.79826   0.00000  Uiso   1.00
H701   H     0.05874   0.11331   0.70058   0.00000  Uiso   1.00
H702   H     0.26590   0.22657   0.92055   0.00000  Uiso   1.00
H703   H     0.14206   0.14717   0.58788   0.00000  Uiso   1.00
H704   H     0.05474   0.14324   0.91263   0.00000  Uiso   1.00
H705   H     0.08555   0.14936   0.55570   0.00000  Uiso   1.00
H706   H     0.03070   0.13466   0.50646   0.00000  Uiso   1.00
H707   H     0.20856   0.21476   0.87619   0.00000  Uiso   1.00
N708   N     0.04931   0.16666   0.74999   0.00000  Uiso   1.00
N709   N     0.28402   0.16669   0.74999   0.00000  Uiso   1.00
O710   O     0.12708   0.22678   0.75001   0.00000  Uiso   1.00
O711   O     0.20627   0.22679   0.75000   0.00000  Uiso   1.00
O712   O     0.10775   0.16665   0.82549   0.00000  Uiso   1.00
O713   O     0.18694   0.16666   0.82549   0.00000  Uiso   1.00
O714   O     0.12706   0.10654   0.74999   0.00000  Uiso   1.00
O715   O     0.20625   0.10655   0.74999   0.00000  Uiso   1.00
O716   O     0.14640   0.16667   0.67451   0.00000  Uiso   1.00
O717   O     0.22559   0.16668   0.67451   0.00000  Uiso   1.00
N718   N     0.15413   0.03943   0.66167   0.00000  Uiso   1.00
H719   H     0.12293   0.05872   0.67300   0.00000  Uiso   1.00
H720   H     0.18438   0.05776   0.64599   0.00000  Uiso   1.00
C721   C     0.02674   0.23792   0.80082   0.00000  Uiso   1.00
C722   C     0.03756   0.23287   0.85238   0.00000  Uiso   1.00
H723   H     0.02560   0.20233   0.86910   0.00000  Uiso   1.00
H724   H     0.07681   0.23711   0.84727   0.00000  Uiso   1.00
H725   H     0.01770   0.25735   0.88098   0.00000  Uiso   1.00
H726   H     0.05329   0.25669   0.77276   0.00000  Uiso   1.00
H727   H     0.32793   0.25972   0.81015   0.00000  Uiso   1.00
N728   N     0.30257   0.10702   0.69056   0.00000  Uiso   1.00
H729   H     0.30957   0.07762   0.70272   0.00000  Uiso   1.00
H730   H     0.32438   0.10983   0.65208   0.00000  Uiso   1.00
N731   N     0.30565   0.22367   0.99430   0.00000  Uiso   1.00
H732   H     0.32517   0.20636   0.96118   0.00000  Uiso   1.00
H733   H     0.29792   0.25334   0.98350   0.00000  Uiso   1.00
C734   C     0.17335   0.29362   0.84431   0.00000  Uiso   1.00
C735   C     0.13178   0.30918   0.89157   0.00000  Uiso   1.00
H736   H     0.13601   0.00906   0.90055   0.00000  Uiso   1.00
H737   H     0.09604   0.30525   0.88442   0.00000  Uiso   1.00
H738   H     0.13216   0.29103   0.92596   0.00000  Uiso   1.00
H739   H     0.17010   0.25967   0.84171   0.00000  Uiso   1.00
H740   H     0.20897   0.30001   0.85072   0.00000  Uiso   1.00
C741   C     0.49937   0.24585   0.75081   0.00000  Uiso   1.00
C742   C     0.47906   0.17024   0.98987   0.00000  Uiso   1.00
C743   C     0.49070   0.18014   0.93659   0.00000  Uiso   1.00
C744   C     0.51451   0.17679   0.51645   0.00000  Uiso   1.00
C745   C     0.55890   0.19669   0.99122   0.00000  Uiso   1.00
C746   C     0.56693   0.20998   0.94058   0.00000  Uiso   1.00
C747   C     0.53354   0.20213   0.91413   0.00000  Uiso   1.00
C748   C     0.50722   0.16388   0.56745   0.00000  Uiso   1.00
C749   C     0.58444   0.19144   0.56891   0.00000  Uiso   1.00
C750   C     0.45873   0.16830   0.90759   0.00000  Uiso   1.00
C751   C     0.50448   0.31359   0.79476   0.00000  Uiso   1.00
C752   C     0.47391   0.16815   0.85012   0.00000  Uiso   1.00
C753   C     0.50776   0.02320   0.79123   0.00000  Uiso   1.00
C754   C     0.50133   0.04292   0.74820   0.00000  Uiso   1.00
C755   C     0.49308   0.01999   0.70685   0.00000  Uiso   1.00
C756   C     0.49188   0.31044   0.70908   0.00000  Uiso   1.00
C757   C     0.49806   0.29058   0.75224   0.00000  Uiso   1.00
C758   C     0.63247   0.19600   0.77731   0.00000  Uiso   1.00
C759   C     0.34857   0.19775   0.77625   0.00000  Uiso   1.00
C760   C     0.36662   0.13693   0.72276   0.00000  Uiso   1.00
C761   C     0.65067   0.13729   0.72184   0.00000  Uiso   1.00
C762   C     0.50071   0.08753   0.74862   0.00000  Uiso   1.00
C763   C     0.52612   0.16707   0.65022   0.00000  Uiso   1.00
C764   C     0.59396   0.20354   0.51773   0.00000  Uiso   1.00
C765   C     0.54070   0.17261   0.59414   0.00000  Uiso   1.00
C766   C     0.41314   0.15229   0.93361   0.00000  Uiso   1.00
C767   C     0.39964   0.14656   0.98679   0.00000  Uiso   1.00
C768   C     0.43217   0.15471   0.51462   0.00000  Uiso   1.00
Cu769  Cu    0.45311   0.16666   0.75000   0.00000  Uiso   1.00
Cu770  Cu    0.54689   0.16667   0.75000   0.00000  Uiso   1.00
H771   H     0.61047   0.19839   0.58959   0.00000  Uiso   1.00
H772   H     0.51364   0.04157   0.82284   0.00000  Uiso   1.00
H773   H     0.48680   0.29244   0.67676   0.00000  Uiso   1.00
H774   H     0.60596   0.21937   0.79826   0.00000  Uiso   1.00
H775   H     0.39207   0.11331   0.70058   0.00000  Uiso   1.00
H776   H     0.59923   0.22657   0.92055   0.00000  Uiso   1.00
H777   H     0.47539   0.14717   0.58788   0.00000  Uiso   1.00
H778   H     0.38807   0.14324   0.91263   0.00000  Uiso   1.00
H779   H     0.41888   0.14936   0.55570   0.00000  Uiso   1.00
H780   H     0.36404   0.13466   0.50646   0.00000  Uiso   1.00
H781   H     0.54189   0.21476   0.87619   0.00000  Uiso   1.00
N782   N     0.38265   0.16666   0.74999   0.00000  Uiso   1.00
N783   N     0.61735   0.16669   0.74999   0.00000  Uiso   1.00
O784   O     0.46042   0.22678   0.75001   0.00000  Uiso   1.00
O785   O     0.53961   0.22679   0.75000   0.00000  Uiso   1.00
O786   O     0.44108   0.16665   0.82549   0.00000  Uiso   1.00
O787   O     0.52027   0.16666   0.82549   0.00000  Uiso   1.00
O788   O     0.46039   0.10654   0.74999   0.00000  Uiso   1.00
O789   O     0.53958   0.10655   0.74999   0.00000  Uiso   1.00
O790   O     0.47973   0.16667   0.67451   0.00000  Uiso   1.00
O791   O     0.55892   0.16668   0.67451   0.00000  Uiso   1.00
N792   N     0.48746   0.03943   0.66167   0.00000  Uiso   1.00
H793   H     0.45627   0.05872   0.67300   0.00000  Uiso   1.00
H794   H     0.51771   0.05776   0.64599   0.00000  Uiso   1.00
C795   C     0.36007   0.23792   0.80082   0.00000  Uiso   1.00
C796   C     0.37090   0.23287   0.85238   0.00000  Uiso   1.00
H797   H     0.35894   0.20233   0.86910   0.00000  Uiso   1.00
H798   H     0.41014   0.23711   0.84727   0.00000  Uiso   1.00
H799   H     0.35103   0.25735   0.88098   0.00000  Uiso   1.00
H800   H     0.38663   0.25669   0.77276   0.00000  Uiso   1.00
H801   H     0.66126   0.25972   0.81015   0.00000  Uiso   1.00
N802   N     0.63590   0.10702   0.69056   0.00000  Uiso   1.00
H803   H     0.64290   0.07762   0.70272   0.00000  Uiso   1.00
H804   H     0.65771   0.10983   0.65208   0.00000  Uiso   1.00
N805   N     0.63898   0.22367   0.99430   0.00000  Uiso   1.00
H806   H     0.65850   0.20636   0.96118   0.00000  Uiso   1.00
H807   H     0.63126   0.25334   0.98350   0.00000  Uiso   1.00
C808   C     0.50669   0.29362   0.84431   0.00000  Uiso   1.00
C809   C     0.46511   0.30918   0.89157   0.00000  Uiso   1.00
H810   H     0.46935   0.00906   0.90055   0.00000  Uiso   1.00
H811   H     0.42938   0.30525   0.88442   0.00000  Uiso   1.00
H812   H     0.46549   0.29103   0.92596   0.00000  Uiso   1.00
H813   H     0.50343   0.25967   0.84171   0.00000  Uiso   1.00
H814   H     0.54231   0.30001   0.85072   0.00000  Uiso   1.00
C815   C     0.83271   0.24585   0.75081   0.00000  Uiso   1.00
C816   C     0.81239   0.17024   0.98987   0.00000  Uiso   1.00
C817   C     0.82403   0.18014   0.93659   0.00000  Uiso   1.00
C818   C     0.84784   0.17679   0.51645   0.00000  Uiso   1.00
C819   C     0.89224   0.19669   0.99122   0.00000  Uiso   1.00
C820   C     0.90026   0.20998   0.94058   0.00000  Uiso   1.00
C821   C     0.86687   0.20213   0.91413   0.00000  Uiso   1.00
C822   C     0.84055   0.16388   0.56745   0.00000  Uiso   1.00
C823   C     0.91777   0.19144   0.56891   0.00000  Uiso   1.00
C824   C     0.79207   0.16830   0.90759   0.00000  Uiso   1.00
C825   C     0.83781   0.31359   0.79476   0.00000  Uiso   1.00
C826   C     0.80725   0.16815   0.85012   0.00000  Uiso   1.00
C827   C     0.84109   0.02320   0.79123   0.00000  Uiso   1.00
C828   C     0.83467   0.04292   0.74820   0.00000  Uiso   1.00
C829   C     0.82641   0.01999   0.70685   0.00000  Uiso   1.00
C830   C     0.82521   0.31044   0.70908   0.00000  Uiso   1.00
C831   C     0.83139   0.29058   0.75224   0.00000  Uiso   1.00
C832   C     0.96581   0.19600   0.77731   0.00000  Uiso   1.00
C833   C     0.68190   0.19775   0.77625   0.00000  Uiso   1.00
C834   C     0.69995   0.13693   0.72276   0.00000  Uiso   1.00
C835   C     0.98401   0.13729   0.72184   0.00000  Uiso   1.00
C836   C     0.83404   0.08753   0.74862   0.00000  Uiso   1.00
C837   C     0.85946   0.16707   0.65022   0.00000  Uiso   1.00
C838   C     0.92730   0.20354   0.51773   0.00000  Uiso   1.00
C839   C     0.87404   0.17261   0.59414   0.00000  Uiso   1.00
C840   C     0.74647   0.15229   0.93361   0.00000  Uiso   1.00
C841   C     0.73297   0.14656   0.98679   0.00000  Uiso   1.00
C842   C     0.76550   0.15471   0.51462   0.00000  Uiso   1.00
Cu843  Cu    0.78645   0.16666   0.75000   0.00000  Uiso   1.00
Cu844  Cu    0.88022   0.16667   0.75000   0.00000  Uiso   1.00
H845   H     0.94380   0.19839   0.58959   0.00000  Uiso   1.00
H846   H     0.84697   0.04157   0.82284   0.00000  Uiso   1.00
H847   H     0.82013   0.29244   0.67676   0.00000  Uiso   1.00
H848   H     0.93929   0.21937   0.79826   0.00000  Uiso   1.00
H849   H     0.72541   0.11331   0.70058   0.00000  Uiso   1.00
H850   H     0.93256   0.22657   0.92055   0.00000  Uiso   1.00
H851   H     0.80873   0.14717   0.58788   0.00000  Uiso   1.00
H852   H     0.72140   0.14324   0.91263   0.00000  Uiso   1.00
H853   H     0.75222   0.14936   0.55570   0.00000  Uiso   1.00
H854   H     0.69737   0.13466   0.50646   0.00000  Uiso   1.00
H855   H     0.87522   0.21476   0.87619   0.00000  Uiso   1.00
N856   N     0.71598   0.16666   0.74999   0.00000  Uiso   1.00
N857   N     0.95069   0.16669   0.74999   0.00000  Uiso   1.00
O858   O     0.79375   0.22678   0.75001   0.00000  Uiso   1.00
O859   O     0.87294   0.22679   0.75000   0.00000  Uiso   1.00
O860   O     0.77441   0.16665   0.82549   0.00000  Uiso   1.00
O861   O     0.85360   0.16666   0.82549   0.00000  Uiso   1.00
O862   O     0.79373   0.10654   0.74999   0.00000  Uiso   1.00
O863   O     0.87292   0.10655   0.74999   0.00000  Uiso   1.00
O864   O     0.81306   0.16667   0.67451   0.00000  Uiso   1.00
O865   O     0.89225   0.16668   0.67451   0.00000  Uiso   1.00
N866   N     0.82079   0.03943   0.66167   0.00000  Uiso   1.00
H867   H     0.78960   0.05872   0.67300   0.00000  Uiso   1.00
H868   H     0.85105   0.05776   0.64599   0.00000  Uiso   1.00
C869   C     0.69341   0.23792   0.80082   0.00000  Uiso   1.00
C870   C     0.70423   0.23287   0.85238   0.00000  Uiso   1.00
H871   H     0.69227   0.20233   0.86910   0.00000  Uiso   1.00
H872   H     0.74348   0.23711   0.84727   0.00000  Uiso   1.00
H873   H     0.68437   0.25735   0.88098   0.00000  Uiso   1.00
H874   H     0.71996   0.25669   0.77276   0.00000  Uiso   1.00
H875   H     0.99459   0.25972   0.81015   0.00000  Uiso   1.00
N876   N     0.96924   0.10702   0.69056   0.00000  Uiso   1.00
H877   H     0.97624   0.07762   0.70272   0.00000  Uiso   1.00
H878   H     0.99105   0.10983   0.65208   0.00000  Uiso   1.00
N879   N     0.97232   0.22367   0.99430   0.00000  Uiso   1.00
H880   H     0.99183   0.20636   0.96118   0.00000  Uiso   1.00
H881   H     0.96459   0.25334   0.98350   0.00000  Uiso   1.00
C882   C     0.84002   0.29362   0.84431   0.00000  Uiso   1.00
C883   C     0.79845   0.30918   0.89157   0.00000  Uiso   1.00
H884   H     0.80268   0.00906   0.90055   0.00000  Uiso   1.00
H885   H     0.76271   0.30525   0.88442   0.00000  Uiso   1.00
H886   H     0.79883   0.29103   0.92596   0.00000  Uiso   1.00
H887   H     0.83677   0.25967   0.84171   0.00000  Uiso   1.00
H888   H     0.87564   0.30001   0.85072   0.00000  Uiso   1.00
C889   C     0.16604   0.57918   0.75081   0.00000  Uiso   1.00
C890   C     0.14573   0.50357   0.98987   0.00000  Uiso   1.00
C891   C     0.15736   0.51347   0.93659   0.00000  Uiso   1.00
C892   C     0.18118   0.51012   0.51645   0.00000  Uiso   1.00
C893   C     0.22557   0.53003   0.99122   0.00000  Uiso   1.00
C894   C     0.23360   0.54332   0.94058   0.00000  Uiso   1.00
C895   C     0.20020   0.53546   0.91413   0.00000  Uiso   1.00
C896   C     0.17388   0.49722   0.56745   0.00000  Uiso   1.00
C897   C     0.25111   0.52477   0.56891   0.00000  Uiso   1.00
C898   C     0.12540   0.50164   0.90759   0.00000  Uiso   1.00
C899   C     0.17114   0.64692   0.79476   0.00000  Uiso   1.00
C900   C     0.14058   0.50149   0.85012   0.00000  Uiso   1.00
C901   C     0.17443   0.35653   0.79123   0.00000  Uiso   1.00
C902   C     0.16800   0.37625   0.74820   0.00000  Uiso   1.00
C903   C     0.15974   0.35333   0.70685   0.00000  Uiso   1.00
C904   C     0.15855   0.64377   0.70908   0.00000  Uiso   1.00
C905   C     0.16473   0.62391   0.75224   0.00000  Uiso   1.00
C906   C     0.29914   0.52933   0.77731   0.00000  Uiso   1.00
C907   C     0.01524   0.53109   0.77625   0.00000  Uiso   1.00
C908   C     0.03329   0.47026   0.72276   0.00000  Uiso   1.00
C909   C     0.31734   0.47062   0.72184   0.00000  Uiso   1.00
C910   C     0.16738   0.42086   0.74862   0.00000  Uiso   1.00
C911   C     0.19279   0.50040   0.65022   0.00000  Uiso   1.00
C912   C     0.26063   0.53687   0.51773   0.00000  Uiso   1.00
C913   C     0.20737   0.50594   0.59414   0.00000  Uiso   1.00
C914   C     0.07981   0.48562   0.93361   0.00000  Uiso   1.00
C915   C     0.06631   0.47989   0.98679   0.00000  Uiso   1.00
C916   C     0.09883   0.48804   0.51462   0.00000  Uiso   1.00
Cu917  Cu    0.11978   0.49999   0.75000   0.00000  Uiso   1.00
Cu918  Cu    0.21355   0.50001   0.75000   0.00000  Uiso   1.00
H919   H     0.27713   0.53172   0.58959   0.00000  Uiso   1.00
H920   H     0.18031   0.37490   0.82284   0.00000  Uiso   1.00
H921   H     0.15347   0.62578   0.67676   0.00000  Uiso   1.00
H922   H     0.27262   0.55271   0.79826   0.00000  Uiso   1.00
H923   H     0.05874   0.44664   0.70058   0.00000  Uiso   1.00
H924   H     0.26590   0.55990   0.92055   0.00000  Uiso   1.00
H925   H     0.14206   0.48050   0.58788   0.00000  Uiso   1.00
H926   H     0.05474   0.47657   0.91263   0.00000  Uiso   1.00
H927   H     0.08555   0.48269   0.55570   0.00000  Uiso   1.00
H928   H     0.03070   0.46799   0.50646   0.00000  Uiso   1.00
H929   H     0.20856   0.54809   0.87619   0.00000  Uiso   1.00
N930   N     0.04931   0.49999   0.74999   0.00000  Uiso   1.00
N931   N     0.28402   0.50002   0.74999   0.00000  Uiso   1.00
O932   O     0.12708   0.56011   0.75001   0.00000  Uiso   1.00
O933   O     0.20627   0.56012   0.75000   0.00000  Uiso   1.00
O934   O     0.10775   0.49998   0.82549   0.00000  Uiso   1.00
O935   O     0.18694   0.49999   0.82549   0.00000  Uiso   1.00
O936   O     0.12706   0.43988   0.74999   0.00000  Uiso   1.00
O937   O     0.20625   0.43989   0.74999   0.00000  Uiso   1.00
O938   O     0.14640   0.50001   0.67451   0.00000  Uiso   1.00
O939   O     0.22559   0.50002   0.67451   0.00000  Uiso   1.00
N940   N     0.15413   0.37276   0.66167   0.00000  Uiso   1.00
H941   H     0.12293   0.39205   0.67300   0.00000  Uiso   1.00
H942   H     0.18438   0.39110   0.64599   0.00000  Uiso   1.00
C943   C     0.02674   0.57126   0.80082   0.00000  Uiso   1.00
C944   C     0.03756   0.56620   0.85238   0.00000  Uiso   1.00
H945   H     0.02560   0.53567   0.86910   0.00000  Uiso   1.00
H946   H     0.07681   0.57045   0.84727   0.00000  Uiso   1.00
H947   H     0.01770   0.59068   0.88098   0.00000  Uiso   1.00
H948   H     0.05329   0.59002   0.77276   0.00000  Uiso   1.00
H949   H     0.32793   0.59305   0.81015   0.00000  Uiso   1.00
N950   N     0.30257   0.44035   0.69056   0.00000  Uiso   1.00
H951   H     0.30957   0.41095   0.70272   0.00000  Uiso   1.00
H952   H     0.32438   0.44316   0.65208   0.00000  Uiso   1.00
N953   N     0.30565   0.55701   0.99430   0.00000  Uiso   1.00
H954   H     0.32517   0.53969   0.96118   0.00000  Uiso   1.00
H955   H     0.29792   0.58667   0.98350   0.00000  Uiso   1.00
C956   C     0.17335   0.62695   0.84431   0.00000  Uiso   1.00
C957   C     0.13178   0.64252   0.89157   0.00000  Uiso   1.00
H958   H     0.13601   0.34240   0.90055   0.00000  Uiso   1.00
H959   H     0.09604   0.63858   0.88442   0.00000  Uiso   1.00
H960   H     0.13216   0.62436   0.92596   0.00000  Uiso   1.00
H961   H     0.17010   0.59300   0.84171   0.00000  Uiso   1.00
H962   H     0.20897   0.63335   0.85072   0.00000  Uiso   1.00
C963   C     0.49937   0.57918   0.75081   0.00000  Uiso   1.00
C964   C     0.47906   0.50357   0.98987   0.00000  Uiso   1.00
C965   C     0.49070   0.51347   0.93659   0.00000  Uiso   1.00
C966   C     0.51451   0.51012   0.51645   0.00000  Uiso   1.00
C967   C     0.55890   0.53003   0.99122   0.00000  Uiso   1.00
C968   C     0.56693   0.54332   0.94058   0.00000  Uiso   1.00
C969   C     0.53354   0.53546   0.91413   0.00000  Uiso   1.00
C970   C     0.50722   0.49722   0.56745   0.00000  Uiso   1.00
C971   C     0.58444   0.52477   0.56891   0.00000  Uiso   1.00
C972   C     0.45873   0.50164   0.90759   0.00000  Uiso   1.00
C973   C     0.50448   0.64692   0.79476   0.00000  Uiso   1.00
C974   C     0.47391   0.50149   0.85012   0.00000  Uiso   1.00
C975   C     0.50776   0.35653   0.79123   0.00000  Uiso   1.00
C976   C     0.50133   0.37625   0.74820   0.00000  Uiso   1.00
C977   C     0.49308   0.35333   0.70685   0.00000  Uiso   1.00
C978   C     0.49188   0.64377   0.70908   0.00000  Uiso   1.00
C979   C     0.49806   0.62391   0.75224   0.00000  Uiso   1.00
C980   C     0.63247   0.52933   0.77731   0.00000  Uiso   1.00
C981   C     0.34857   0.53109   0.77625   0.00000  Uiso   1.00
C982   C     0.36662   0.47026   0.72276   0.00000  Uiso   1.00
C983   C     0.65067   0.47062   0.72184   0.00000  Uiso   1.00
C984   C     0.50071   0.42086   0.74862   0.00000  Uiso   1.00
C985   C     0.52612   0.50040   0.65022   0.00000  Uiso   1.00
C986   C     0.59396   0.53687   0.51773   0.00000  Uiso   1.00
C987   C     0.54070   0.50594   0.59414   0.00000  Uiso   1.00
C988   C     0.41314   0.48562   0.93361   0.00000  Uiso   1.00
C989   C     0.39964   0.47989   0.98679   0.00000  Uiso   1.00
C990   C     0.43217   0.48804   0.51462   0.00000  Uiso   1.00
Cu991  Cu    0.45311   0.49999   0.75000   0.00000  Uiso   1.00
Cu992  Cu    0.54689   0.50001   0.75000   0.00000  Uiso   1.00
H993   H     0.61047   0.53172   0.58959   0.00000  Uiso   1.00
H994   H     0.51364   0.37490   0.82284   0.00000  Uiso   1.00
H995   H     0.48680   0.62578   0.67676   0.00000  Uiso   1.00
H996   H     0.60596   0.55271   0.79826   0.00000  Uiso   1.00
H997   H     0.39207   0.44664   0.70058   0.00000  Uiso   1.00
H998   H     0.59923   0.55990   0.92055   0.00000  Uiso   1.00
H999   H     0.47539   0.48050   0.58788   0.00000  Uiso   1.00
H1000  H     0.38807   0.47657   0.91263   0.00000  Uiso   1.00
H1001  H     0.41888   0.48269   0.55570   0.00000  Uiso   1.00
H1002  H     0.36404   0.46799   0.50646   0.00000  Uiso   1.00
H1003  H     0.54189   0.54809   0.87619   0.00000  Uiso   1.00
N1004  N     0.38265   0.49999   0.74999   0.00000  Uiso   1.00
N1005  N     0.61735   0.50002   0.74999   0.00000  Uiso   1.00
O1006  O     0.46042   0.56011   0.75001   0.00000  Uiso   1.00
O1007  O     0.53961   0.56012   0.75000   0.00000  Uiso   1.00
O1008  O     0.44108   0.49998   0.82549   0.00000  Uiso   1.00
O1009  O     0.52027   0.49999   0.82549   0.00000  Uiso   1.00
O1010  O     0.46039   0.43988   0.74999   0.00000  Uiso   1.00
O1011  O     0.53958   0.43989   0.74999   0.00000  Uiso   1.00
O1012  O     0.47973   0.50001   0.67451   0.00000  Uiso   1.00
O1013  O     0.55892   0.50002   0.67451   0.00000  Uiso   1.00
N1014  N     0.48746   0.37276   0.66167   0.00000  Uiso   1.00
H1015  H     0.45627   0.39205   0.67300   0.00000  Uiso   1.00
H1016  H     0.51771   0.39110   0.64599   0.00000  Uiso   1.00
C1017  C     0.36007   0.57126   0.80082   0.00000  Uiso   1.00
C1018  C     0.37090   0.56620   0.85238   0.00000  Uiso   1.00
H1019  H     0.35894   0.53567   0.86910   0.00000  Uiso   1.00
H1020  H     0.41014   0.57045   0.84727   0.00000  Uiso   1.00
H1021  H     0.35103   0.59068   0.88098   0.00000  Uiso   1.00
H1022  H     0.38663   0.59002   0.77276   0.00000  Uiso   1.00
H1023  H     0.66126   0.59305   0.81015   0.00000  Uiso   1.00
N1024  N     0.63590   0.44035   0.69056   0.00000  Uiso   1.00
H1025  H     0.64290   0.41095   0.70272   0.00000  Uiso   1.00
H1026  H     0.65771   0.44316   0.65208   0.00000  Uiso   1.00
N1027  N     0.63898   0.55701   0.99430   0.00000  Uiso   1.00
H1028  H     0.65850   0.53969   0.96118   0.00000  Uiso   1.00
H1029  H     0.63126   0.58667   0.98350   0.00000  Uiso   1.00
C1030  C     0.50669   0.62695   0.84431   0.00000  Uiso   1.00
C1031  C     0.46511   0.64252   0.89157   0.00000  Uiso   1.00
H1032  H     0.46935   0.34240   0.90055   0.00000  Uiso   1.00
H1033  H     0.42938   0.63858   0.88442   0.00000  Uiso   1.00
H1034  H     0.46549   0.62436   0.92596   0.00000  Uiso   1.00
H1035  H     0.50343   0.59300   0.84171   0.00000  Uiso   1.00
H1036  H     0.54231   0.63335   0.85072   0.00000  Uiso   1.00
C1037  C     0.83271   0.57918   0.75081   0.00000  Uiso   1.00
C1038  C     0.81239   0.50357   0.98987   0.00000  Uiso   1.00
C1039  C     0.82403   0.51347   0.93659   0.00000  Uiso   1.00
C1040  C     0.84784   0.51012   0.51645   0.00000  Uiso   1.00
C1041  C     0.89224   0.53003   0.99122   0.00000  Uiso   1.00
C1042  C     0.90026   0.54332   0.94058   0.00000  Uiso   1.00
C1043  C     0.86687   0.53546   0.91413   0.00000  Uiso   1.00
C1044  C     0.84055   0.49722   0.56745   0.00000  Uiso   1.00
C1045  C     0.91777   0.52477   0.56891   0.00000  Uiso   1.00
C1046  C     0.79207   0.50164   0.90759   0.00000  Uiso   1.00
C1047  C     0.83781   0.64692   0.79476   0.00000  Uiso   1.00
C1048  C     0.80725   0.50149   0.85012   0.00000  Uiso   1.00
C1049  C     0.84109   0.35653   0.79123   0.00000  Uiso   1.00
C1050  C     0.83467   0.37625   0.74820   0.00000  Uiso   1.00
C1051  C     0.82641   0.35333   0.70685   0.00000  Uiso   1.00
C1052  C     0.82521   0.64377   0.70908   0.00000  Uiso   1.00
C1053  C     0.83139   0.62391   0.75224   0.00000  Uiso   1.00
C1054  C     0.96581   0.52933   0.77731   0.00000  Uiso   1.00
C1055  C     0.68190   0.53109   0.77625   0.00000  Uiso   1.00
C1056  C     0.69995   0.47026   0.72276   0.00000  Uiso   1.00
C1057  C     0.98401   0.47062   0.72184   0.00000  Uiso   1.00
C1058  C     0.83404   0.42086   0.74862   0.00000  Uiso   1.00
C1059  C     0.85946   0.50040   0.65022   0.00000  Uiso   1.00
C1060  C     0.92730   0.53687   0.51773   0.00000  Uiso   1.00
C1061  C     0.87404   0.50594   0.59414   0.00000  Uiso   1.00
C1062  C     0.74647   0.48562   0.93361   0.00000  Uiso   1.00
C1063  C     0.73297   0.47989   0.98679   0.00000  Uiso   1.00
C1064  C     0.76550   0.48804   0.51462   0.00000  Uiso   1.00
Cu1065 Cu    0.78645   0.49999   0.75000   0.00000  Uiso   1.00
Cu1066 Cu    0.88022   0.50001   0.75000   0.00000  Uiso   1.00
H1067  H     0.94380   0.53172   0.58959   0.00000  Uiso   1.00
H1068  H     0.84697   0.37490   0.82284   0.00000  Uiso   1.00
H1069  H     0.82013   0.62578   0.67676   0.00000  Uiso   1.00
H1070  H     0.93929   0.55271   0.79826   0.00000  Uiso   1.00
H1071  H     0.72541   0.44664   0.70058   0.00000  Uiso   1.00
H1072  H     0.93256   0.55990   0.92055   0.00000  Uiso   1.00
H1073  H     0.80873   0.48050   0.58788   0.00000  Uiso   1.00
H1074  H     0.72140   0.47657   0.91263   0.00000  Uiso   1.00
H1075  H     0.75222   0.48269   0.55570   0.00000  Uiso   1.00
H1076  H     0.69737   0.46799   0.50646   0.00000  Uiso   1.00
H1077  H     0.87522   0.54809   0.87619   0.00000  Uiso   1.00
N1078  N     0.71598   0.49999   0.74999   0.00000  Uiso   1.00
N1079  N     0.95069   0.50002   0.74999   0.00000  Uiso   1.00
O1080  O     0.79375   0.56011   0.75001   0.00000  Uiso   1.00
O1081  O     0.87294   0.56012   0.75000   0.00000  Uiso   1.00
O1082  O     0.77441   0.49998   0.82549   0.00000  Uiso   1.00
O1083  O     0.85360   0.49999   0.82549   0.00000  Uiso   1.00
O1084  O     0.79373   0.43988   0.74999   0.00000  Uiso   1.00
O1085  O     0.87292   0.43989   0.74999   0.00000  Uiso   1.00
O1086  O     0.81306   0.50001   0.67451   0.00000  Uiso   1.00
O1087  O     0.89225   0.50002   0.67451   0.00000  Uiso   1.00
N1088  N     0.82079   0.37276   0.66167   0.00000  Uiso   1.00
H1089  H     0.78960   0.39205   0.67300   0.00000  Uiso   1.00
H1090  H     0.85105   0.39110   0.64599   0.00000  Uiso   1.00
C1091  C     0.69341   0.57126   0.80082   0.00000  Uiso   1.00
C1092  C     0.70423   0.56620   0.85238   0.00000  Uiso   1.00
H1093  H     0.69227   0.53567   0.86910   0.00000  Uiso   1.00
H1094  H     0.74348   0.57045   0.84727   0.00000  Uiso   1.00
H1095  H     0.68437   0.59068   0.88098   0.00000  Uiso   1.00
H1096  H     0.71996   0.59002   0.77276   0.00000  Uiso   1.00
H1097  H     0.99459   0.59305   0.81015   0.00000  Uiso   1.00
N1098  N     0.96924   0.44035   0.69056   0.00000  Uiso   1.00
H1099  H     0.97624   0.41095   0.70272   0.00000  Uiso   1.00
H1100  H     0.99105   0.44316   0.65208   0.00000  Uiso   1.00
N1101  N     0.97232   0.55701   0.99430   0.00000  Uiso   1.00
H1102  H     0.99183   0.53969   0.96118   0.00000  Uiso   1.00
H1103  H     0.96459   0.58667   0.98350   0.00000  Uiso   1.00
C1104  C     0.84002   0.62695   0.84431   0.00000  Uiso   1.00
C1105  C     0.79845   0.64252   0.89157   0.00000  Uiso   1.00
H1106  H     0.80268   0.34240   0.90055   0.00000  Uiso   1.00
H1107  H     0.76271   0.63858   0.88442   0.00000  Uiso   1.00
H1108  H     0.79883   0.62436   0.92596   0.00000  Uiso   1.00
H1109  H     0.83677   0.59300   0.84171   0.00000  Uiso   1.00
H1110  H     0.87564   0.63335   0.85072   0.00000  Uiso   1.00
C1111  C     0.16604   0.91251   0.75081   0.00000  Uiso   1.00
C1112  C     0.14573   0.83691   0.98987   0.00000  Uiso   1.00
C1113  C     0.15736   0.84680   0.93659   0.00000  Uiso   1.00
C1114  C     0.18118   0.84346   0.51645   0.00000  Uiso   1.00
C1115  C     0.22557   0.86336   0.99122   0.00000  Uiso   1.00
C1116  C     0.23360   0.87665   0.94058   0.00000  Uiso   1.00
C1117  C     0.20020   0.86879   0.91413   0.00000  Uiso   1.00
C1118  C     0.17388   0.83055   0.56745   0.00000  Uiso   1.00
C1119  C     0.25111   0.85811   0.56891   0.00000  Uiso   1.00
C1120  C     0.12540   0.83497   0.90759   0.00000  Uiso   1.00
C1121  C     0.17114   0.98025   0.79476   0.00000  Uiso   1.00
C1122  C     0.14058   0.83482   0.85012   0.00000  Uiso   1.00
C1123  C     0.17443   0.68987   0.79123   0.00000  Uiso   1.00
C1124  C     0.16800   0.70958   0.74820   0.00000  Uiso   1.00
C1125  C     0.15974   0.68666   0.70685   0.00000  Uiso   1.00
C1126  C     0.15855   0.97710   0.70908   0.00000  Uiso   1.00
C1127  C     0.16473   0.95725   0.75224   0.00000  Uiso   1.00
C1128  C     0.29914   0.86267   0.77731   0.00000  Uiso   1.00
C1129  C     0.01524   0.86442   0.77625   0.00000  Uiso   1.00
C1130  C     0.03329   0.80360   0.72276   0.00000  Uiso   1.00
C1131  C     0.31734   0.80395   0.72184   0.00000  Uiso   1.00
C1132  C     0.16738   0.75419   0.74862   0.00000  Uiso   1.00
C1133  C     0.19279   0.83373   0.65022   0.00000  Uiso   1.00
C1134  C     0.26063   0.87021   0.51773   0.00000  Uiso   1.00
C1135  C     0.20737   0.83928   0.59414   0.00000  Uiso   1.00
C1136  C     0.07981   0.81895   0.93361   0.00000  Uiso   1.00
C1137  C     0.06631   0.81323   0.98679   0.00000  Uiso   1.00
C1138  C     0.09883   0.82138   0.51462   0.00000  Uiso   1.00
Cu1139 Cu    0.11978   0.83333   0.75000   0.00000  Uiso   1.00
Cu1140 Cu    0.21355   0.83334   0.75000   0.00000  Uiso   1.00
H1141  H     0.27713   0.86505   0.58959   0.00000  Uiso   1.00
H1142  H     0.18031   0.70823   0.82284   0.00000  Uiso   1.00
H1143  H     0.15347   0.95911   0.67676   0.00000  Uiso   1.00
H1144  H     0.27262   0.88604   0.79826   0.00000  Uiso   1.00
H1145  H     0.05874   0.77998   0.70058   0.00000  Uiso   1.00
H1146  H     0.26590   0.89324   0.92055   0.00000  Uiso   1.00
H1147  H     0.14206   0.81384   0.58788   0.00000  Uiso   1.00
H1148  H     0.05474   0.80991   0.91263   0.00000  Uiso   1.00
H1149  H     0.08555   0.81603   0.55570   0.00000  Uiso   1.00
H1150  H     0.03070   0.80132   0.50646   0.00000  Uiso   1.00
H1151  H     0.20856   0.88143   0.87619   0.00000  Uiso   1.00
N1152  N     0.04931   0.83332   0.74999   0.00000  Uiso   1.00
N1153  N     0.28402   0.83335   0.74999   0.00000  Uiso   1.00
O1154  O     0.12708   0.89345   0.75001   0.00000  Uiso   1.00
O1155  O     0.20627   0.89346   0.75000   0.00000  Uiso   1.00
O1156  O     0.10775   0.83332   0.82549   0.00000  Uiso   1.00
O1157  O     0.18694   0.83333   0.82549   0.00000  Uiso   1.00
O1158  O     0.12706   0.77321   0.74999   0.00000  Uiso   1.00
O1159  O     0.20625   0.77322   0.74999   0.00000  Uiso   1.00
O1160  O     0.14640   0.83334   0.67451   0.00000  Uiso   1.00
O1161  O     0.22559   0.83335   0.67451   0.00000  Uiso   1.00
N1162  N     0.15413   0.70609   0.66167   0.00000  Uiso   1.00
H1163  H     0.12293   0.72539   0.67300   0.00000  Uiso   1.00
H1164  H     0.18438   0.72443   0.64599   0.00000  Uiso   1.00
C1165  C     0.02674   0.90459   0.80082   0.00000  Uiso   1.00
C1166  C     0.03756   0.89953   0.85238   0.00000  Uiso   1.00
H1167  H     0.02560   0.86900   0.86910   0.00000  Uiso   1.00
H1168  H     0.07681   0.90378   0.84727   0.00000  Uiso   1.00
H1169  H     0.01770   0.92401   0.88098   0.00000  Uiso   1.00
H1170  H     0.05329   0.92336   0.77276   0.00000  Uiso   1.00
H1171  H     0.32793   0.92639   0.81015   0.00000  Uiso   1.00
N1172  N     0.30257   0.77368   0.69056   0.00000  Uiso   1.00
H1173  H     0.30957   0.74429   0.70272   0.00000  Uiso   1.00
H1174  H     0.32438   0.77649   0.65208   0.00000  Uiso   1.00
N1175  N     0.30565   0.89034   0.99430   0.00000  Uiso   1.00
H1176  H     0.32517   0.87303   0.96118   0.00000  Uiso   1.00
H1177  H     0.29792   0.92000   0.98350   0.00000  Uiso   1.00
C1178  C     0.17335   0.96028   0.84431   0.00000  Uiso   1.00
C1179  C     0.13178   0.97585   0.89157   0.00000  Uiso   1.00
H1180  H     0.13601   0.67573   0.90055   0.00000  Uiso   1.00
H1181  H     0.09604   0.97192   0.88442   0.00000  Uiso   1.00
H1182  H     0.13216   0.95770   0.92596   0.00000  Uiso   1.00
H1183  H     0.17010   0.92634   0.84171   0.00000  Uiso   1.00
H1184  H     0.20897   0.96668   0.85072   0.00000  Uiso   1.00
C1185  C     0.49937   0.91251   0.75081   0.00000  Uiso   1.00
C1186  C     0.47906   0.83691   0.98987   0.00000  Uiso   1.00
C1187  C     0.49070   0.84680   0.93659   0.00000  Uiso   1.00
C1188  C     0.51451   0.84346   0.51645   0.00000  Uiso   1.00
C1189  C     0.55890   0.86336   0.99122   0.00000  Uiso   1.00
C1190  C     0.56693   0.87665   0.94058   0.00000  Uiso   1.00
C1191  C     0.53354   0.86879   0.91413   0.00000  Uiso   1.00
C1192  C     0.50722   0.83055   0.56745   0.00000  Uiso   1.00
C1193  C     0.58444   0.85811   0.56891   0.00000  Uiso   1.00
C1194  C     0.45873   0.83497   0.90759   0.00000  Uiso   1.00
C1195  C     0.50448   0.98025   0.79476   0.00000  Uiso   1.00
C1196  C     0.47391   0.83482   0.85012   0.00000  Uiso   1.00
C1197  C     0.50776   0.68987   0.79123   0.00000  Uiso   1.00
C1198  C     0.50133   0.70958   0.74820   0.00000  Uiso   1.00
C1199  C     0.49308   0.68666   0.70685   0.00000  Uiso   1.00
C1200  C     0.49188   0.97710   0.70908   0.00000  Uiso   1.00
C1201  C     0.49806   0.95725   0.75224   0.00000  Uiso   1.00
C1202  C     0.63247   0.86267   0.77731   0.00000  Uiso   1.00
C1203  C     0.34857   0.86442   0.77625   0.00000  Uiso   1.00
C1204  C     0.36662   0.80360   0.72276   0.00000  Uiso   1.00
C1205  C     0.65067   0.80395   0.72184   0.00000  Uiso   1.00
C1206  C     0.50071   0.75419   0.74862   0.00000  Uiso   1.00
C1207  C     0.52612   0.83373   0.65022   0.00000  Uiso   1.00
C1208  C     0.59396   0.87021   0.51773   0.00000  Uiso   1.00
C1209  C     0.54070   0.83928   0.59414   0.00000  Uiso   1.00
C1210  C     0.41314   0.81895   0.93361   0.00000  Uiso   1.00
C1211  C     0.39964   0.81323   0.98679   0.00000  Uiso   1.00
C1212  C     0.43217   0.82138   0.51462   0.00000  Uiso   1.00
Cu1213 Cu    0.45311   0.83333   0.75000   0.00000  Uiso   1.00
Cu1214 Cu    0.54689   0.83334   0.75000   0.00000  Uiso   1.00
H1215  H     0.61047   0.86505   0.58959   0.00000  Uiso   1.00
H1216  H     0.51364   0.70823   0.82284   0.00000  Uiso   1.00
H1217  H     0.48680   0.95911   0.67676   0.00000  Uiso   1.00
H1218  H     0.60596   0.88604   0.79826   0.00000  Uiso   1.00
H1219  H     0.39207   0.77998   0.70058   0.00000  Uiso   1.00
H1220  H     0.59923   0.89324   0.92055   0.00000  Uiso   1.00
H1221  H     0.47539   0.81384   0.58788   0.00000  Uiso   1.00
H1222  H     0.38807   0.80991   0.91263   0.00000  Uiso   1.00
H1223  H     0.41888   0.81603   0.55570   0.00000  Uiso   1.00
H1224  H     0.36404   0.80132   0.50646   0.00000  Uiso   1.00
H1225  H     0.54189   0.88143   0.87619   0.00000  Uiso   1.00
N1226  N     0.38265   0.83332   0.74999   0.00000  Uiso   1.00
N1227  N     0.61735   0.83335   0.74999   0.00000  Uiso   1.00
O1228  O     0.46042   0.89345   0.75001   0.00000  Uiso   1.00
O1229  O     0.53961   0.89346   0.75000   0.00000  Uiso   1.00
O1230  O     0.44108   0.83332   0.82549   0.00000  Uiso   1.00
O1231  O     0.52027   0.83333   0.82549   0.00000  Uiso   1.00
O1232  O     0.46039   0.77321   0.74999   0.00000  Uiso   1.00
O1233  O     0.53958   0.77322   0.74999   0.00000  Uiso   1.00
O1234  O     0.47973   0.83334   0.67451   0.00000  Uiso   1.00
O1235  O     0.55892   0.83335   0.67451   0.00000  Uiso   1.00
N1236  N     0.48746   0.70609   0.66167   0.00000  Uiso   1.00
H1237  H     0.45627   0.72539   0.67300   0.00000  Uiso   1.00
H1238  H     0.51771   0.72443   0.64599   0.00000  Uiso   1.00
C1239  C     0.36007   0.90459   0.80082   0.00000  Uiso   1.00
C1240  C     0.37090   0.89953   0.85238   0.00000  Uiso   1.00
H1241  H     0.35894   0.86900   0.86910   0.00000  Uiso   1.00
H1242  H     0.41014   0.90378   0.84727   0.00000  Uiso   1.00
H1243  H     0.35103   0.92401   0.88098   0.00000  Uiso   1.00
H1244  H     0.38663   0.92336   0.77276   0.00000  Uiso   1.00
H1245  H     0.66126   0.92639   0.81015   0.00000  Uiso   1.00
N1246  N     0.63590   0.77368   0.69056   0.00000  Uiso   1.00
H1247  H     0.64290   0.74429   0.70272   0.00000  Uiso   1.00
H1248  H     0.65771   0.77649   0.65208   0.00000  Uiso   1.00
N1249  N     0.63898   0.89034   0.99430   0.00000  Uiso   1.00
H1250  H     0.65850   0.87303   0.96118   0.00000  Uiso   1.00
H1251  H     0.63126   0.92000   0.98350   0.00000  Uiso   1.00
C1252  C     0.50669   0.96028   0.84431   0.00000  Uiso   1.00
C1253  C     0.46511   0.97585   0.89157   0.00000  Uiso   1.00
H1254  H     0.46935   0.67573   0.90055   0.00000  Uiso   1.00
H1255  H     0.42938   0.97192   0.88442   0.00000  Uiso   1.00
H1256  H     0.46549   0.95770   0.92596   0.00000  Uiso   1.00
H1257  H     0.50343   0.92634   0.84171   0.00000  Uiso   1.00
H1258  H     0.54231   0.96668   0.85072   0.00000  Uiso   1.00
C1259  C     0.83271   0.91251   0.75081   0.00000  Uiso   1.00
C1260  C     0.81239   0.83691   0.98987   0.00000  Uiso   1.00
C1261  C     0.82403   0.84680   0.93659   0.00000  Uiso   1.00
C1262  C     0.84784   0.84346   0.51645   0.00000  Uiso   1.00
C1263  C     0.89224   0.86336   0.99122   0.00000  Uiso   1.00
C1264  C     0.90026   0.87665   0.94058   0.00000  Uiso   1.00
C1265  C     0.86687   0.86879   0.91413   0.00000  Uiso   1.00
C1266  C     0.84055   0.83055   0.56745   0.00000  Uiso   1.00
C1267  C     0.91777   0.85811   0.56891   0.00000  Uiso   1.00
C1268  C     0.79207   0.83497   0.90759   0.00000  Uiso   1.00
C1269  C     0.83781   0.98025   0.79476   0.00000  Uiso   1.00
C1270  C     0.80725   0.83482   0.85012   0.00000  Uiso   1.00
C1271  C     0.84109   0.68987   0.79123   0.00000  Uiso   1.00
C1272  C     0.83467   0.70958   0.74820   0.00000  Uiso   1.00
C1273  C     0.82641   0.68666   0.70685   0.00000  Uiso   1.00
C1274  C     0.82521   0.97710   0.70908   0.00000  Uiso   1.00
C1275  C     0.83139   0.95725   0.75224   0.00000  Uiso   1.00
C1276  C     0.96581   0.86267   0.77731   0.00000  Uiso   1.00
C1277  C     0.68190   0.86442   0.77625   0.00000  Uiso   1.00
C1278  C     0.69995   0.80360   0.72276   0.00000  Uiso   1.00
C1279  C     0.98401   0.80395   0.72184   0.00000  Uiso   1.00
C1280  C     0.83404   0.75419   0.74862   0.00000  Uiso   1.00
C1281  C     0.85946   0.83373   0.65022   0.00000  Uiso   1.00
C1282  C     0.92730   0.87021   0.51773   0.00000  Uiso   1.00
C1283  C     0.87404   0.83928   0.59414   0.00000  Uiso   1.00
C1284  C     0.74647   0.81895   0.93361   0.00000  Uiso   1.00
C1285  C     0.73297   0.81323   0.98679   0.00000  Uiso   1.00
C1286  C     0.76550   0.82138   0.51462   0.00000  Uiso   1.00
Cu1287 Cu    0.78645   0.83333   0.75000   0.00000  Uiso   1.00
Cu1288 Cu    0.88022   0.83334   0.75000   0.00000  Uiso   1.00
H1289  H     0.94380   0.86505   0.58959   0.00000  Uiso   1.00
H1290  H     0.84697   0.70823   0.82284   0.00000  Uiso   1.00
H1291  H     0.82013   0.95911   0.67676   0.00000  Uiso   1.00
H1292  H     0.93929   0.88604   0.79826   0.00000  Uiso   1.00
H1293  H     0.72541   0.77998   0.70058   0.00000  Uiso   1.00
H1294  H     0.93256   0.89324   0.92055   0.00000  Uiso   1.00
H1295  H     0.80873   0.81384   0.58788   0.00000  Uiso   1.00
H1296  H     0.72140   0.80991   0.91263   0.00000  Uiso   1.00
H1297  H     0.75222   0.81603   0.55570   0.00000  Uiso   1.00
H1298  H     0.69737   0.80132   0.50646   0.00000  Uiso   1.00
H1299  H     0.87522   0.88143   0.87619   0.00000  Uiso   1.00
N1300  N     0.71598   0.83332   0.74999   0.00000  Uiso   1.00
N1301  N     0.95069   0.83335   0.74999   0.00000  Uiso   1.00
O1302  O     0.79375   0.89345   0.75001   0.00000  Uiso   1.00
O1303  O     0.87294   0.89346   0.75000   0.00000  Uiso   1.00
O1304  O     0.77441   0.83332   0.82549   0.00000  Uiso   1.00
O1305  O     0.85360   0.83333   0.82549   0.00000  Uiso   1.00
O1306  O     0.79373   0.77321   0.74999   0.00000  Uiso   1.00
O1307  O     0.87292   0.77322   0.74999   0.00000  Uiso   1.00
O1308  O     0.81306   0.83334   0.67451   0.00000  Uiso   1.00
O1309  O     0.89225   0.83335   0.67451   0.00000  Uiso   1.00
N1310  N     0.82079   0.70609   0.66167   0.00000  Uiso   1.00
H1311  H     0.78960   0.72539   0.67300   0.00000  Uiso   1.00
H1312  H     0.85105   0.72443   0.64599   0.00000  Uiso   1.00
C1313  C     0.69341   0.90459   0.80082   0.00000  Uiso   1.00
C1314  C     0.70423   0.89953   0.85238   0.00000  Uiso   1.00
H1315  H     0.69227   0.86900   0.86910   0.00000  Uiso   1.00
H1316  H     0.74348   0.90378   0.84727   0.00000  Uiso   1.00
H1317  H     0.68437   0.92401   0.88098   0.00000  Uiso   1.00
H1318  H     0.71996   0.92336   0.77276   0.00000  Uiso   1.00
H1319  H     0.99459   0.92639   0.81015   0.00000  Uiso   1.00
N1320  N     0.96924   0.77368   0.69056   0.00000  Uiso   1.00
H1321  H     0.97624   0.74429   0.70272   0.00000  Uiso   1.00
H1322  H     0.99105   0.77649   0.65208   0.00000  Uiso   1.00
N1323  N     0.97232   0.89034   0.99430   0.00000  Uiso   1.00
H1324  H     0.99183   0.87303   0.96118   0.00000  Uiso   1.00
H1325  H     0.96459   0.92000   0.98350   0.00000  Uiso   1.00
C1326  C     0.84002   0.96028   0.84431   0.00000  Uiso   1.00
C1327  C     0.79845   0.97585   0.89157   0.00000  Uiso   1.00
H1328  H     0.80268   0.67573   0.90055   0.00000  Uiso   1.00
H1329  H     0.76271   0.97192   0.88442   0.00000  Uiso   1.00
H1330  H     0.79883   0.95770   0.92596   0.00000  Uiso   1.00
H1331  H     0.83677   0.92634   0.84171   0.00000  Uiso   1.00
H1332  H     0.87564   0.96668   0.85072   0.00000  Uiso   1.00
loop_
_geom_bond_atom_site_label_1
_geom_bond_atom_site_label_2
_geom_bond_distance
_geom_bond_site_symmetry_2
_ccdc_geom_bond_type
C1     O44     1.294   .     A
C1     O45     1.294   .     A
C1     C17     1.442   .     S
C2     C3      1.420   .     A
C2     C670    1.429   .     S
C2     C694    1.418   .     S
C3     C10     1.427   .     A
C3     C7      1.410   .     A
C4     C8      1.402   .     A
C4     C668    1.429   1_554 S
C4     C671    1.425   1_554 S
C5     C6      1.394   .     A
C5     C670    1.425   .     S
C5     C690    1.419   .     S
C6     C7      1.382   .     A
C6     H36     1.081   .     S
C7     H41     1.071   .     S
C8     C25     1.395   .     A
C8     H37     1.077   .     S
C9     C24     1.391   .     A
C9     C25     1.394   .     A
C9     H31     1.084   .     S
C10    C12     1.479   .     S
C10    C26     1.402   .     A
C11    C68     1.515   .     S
C11    C17     1.413   .     A
C11    C235    1.393   .     S
C12    O46     1.310   .     A
C12    O47     1.297   .     A
C13    H32     1.084   .     S
C13    C14     1.395   .     A
C13    C455    1.393   1_545 S
C14    C15     1.407   .     A
C14    C22     1.438   .     S
C15    N52     1.433   .     S
C15    C460    1.386   1_545 S
C16    H33     1.085   .     S
C16    C17     1.397   .     A
C16    C237    1.386   .     S
C18    H34     1.081   .     S
C18    N43     1.343   .     A
C18    C93     1.415   .     S
C19    C55     1.529   .     S
C19    N42     1.407   .     A
C19    C166    1.415   1_455 S
C20    N42     1.364   .     A
C20    H35     1.081   .     S
C20    C169    1.425   1_455 S
C21    N43     1.374   .     A
C21    N62     1.429   .     S
C21    C94     1.425   .     S
C22    O48     1.291   .     A
C22    O49     1.295   .     A
C23    O51     1.301   .     A
C23    C25     1.459   .     S
C23    O50     1.297   .     A
C24    C671    1.419   1_554 S
C24    N731    1.433   1_554 S
C26    C27     1.386   .     A
C26    H38     1.083   .     S
C27    C694    1.390   .     S
C27    H706    1.083   .     S
C28    H39     1.077   .     S
C28    C693    1.390   1_554 S
C28    C668    1.418   1_554 S
Cu29   O46     1.961   .     S
Cu29   Cu30    2.697   .     S
Cu29   O50     1.948   .     S
Cu29   O44     1.954   .     S
Cu29   N42     2.026   .     S
Cu29   O48     1.946   .     S
Cu30   O49     1.954   .     S
Cu30   O51     1.961   .     S
Cu30   N43     2.026   .     S
Cu30   O47     1.948   .     S
Cu30   O45     1.946   .     S
H40    C693    1.083   1_554 S
N52    H53     1.044   .     S
N52    H54     1.046   .     S
C55    C56     1.526   .     S
C55    H60     1.100   .     S
C55    H209    1.113   1_455 S
C56    H59     1.111   .     S
C56    H58     1.106   .     S
C56    H57     1.109   .     S
H61    C129    1.113   .     S
N62    H64     1.046   .     S
N62    H63     1.046   .     S
N65    H66     1.043   .     S
N65    H67     1.045   .     S
N65    C690    1.433   .     S
C68    H74     1.111   .     S
C68    H73     1.103   .     S
C68    C69     1.528   .     S
C69    H72     1.111   .     S
C69    H71     1.110   .     S
C69    H292    1.110   .     S
H70    C513    1.110   1_545 S
C75    O118    1.294   .     A
C75    O119    1.294   .     A
C75    C91     1.442   .     S
C76    C77     1.420   .     A
C76    C744    1.429   .     S
C76    C768    1.418   .     S
C77    C84     1.427   .     A
C77    C81     1.410   .     A
C78    C82     1.402   .     A
C78    C742    1.429   1_554 S
C78    C745    1.425   1_554 S
C79    C80     1.394   .     A
C79    C744    1.425   .     S
C79    C764    1.419   .     S
C80    C81     1.382   .     A
C80    H110    1.081   .     S
C81    H115    1.071   .     S
C82    C99     1.395   .     A
C82    H111    1.077   .     S
C83    C98     1.391   .     A
C83    C99     1.394   .     A
C83    H105    1.084   .     S
C84    C86     1.479   .     S
C84    C100    1.402   .     A
C85    C142    1.515   .     S
C85    C91     1.413   .     A
C85    C309    1.393   .     S
C86    O120    1.310   .     A
C86    O121    1.297   .     A
C87    H106    1.084   .     S
C87    C88     1.395   .     A
C87    C529    1.393   1_545 S
C88    C89     1.407   .     A
C88    C96     1.438   .     S
C89    N126    1.433   .     S
C89    C534    1.386   1_545 S
C90    H107    1.085   .     S
C90    C91     1.397   .     A
C90    C311    1.386   .     S
C92    H108    1.081   .     S
C92    N117    1.343   .     A
C92    C167    1.415   .     S
C93    C129    1.529   .     S
C93    N116    1.407   .     A
C94    N116    1.364   .     A
C94    H109    1.081   .     S
C95    N117    1.374   .     A
C95    N136    1.429   .     S
C95    C168    1.425   .     S
C96    O122    1.291   .     A
C96    O123    1.295   .     A
C97    O125    1.301   .     A
C97    C99     1.459   .     S
C97    O124    1.297   .     A
C98    C745    1.419   1_554 S
C98    N805    1.433   1_554 S
C100   C101    1.386   .     A
C100   H112    1.083   .     S
C101   C768    1.390   .     S
C101   H780    1.083   .     S
C102   H113    1.077   .     S
C102   C767    1.390   1_554 S
C102   C742    1.418   1_554 S
Cu103  O120    1.961   .     S
Cu103  Cu104   2.697   .     S
Cu103  O124    1.948   .     S
Cu103  O118    1.954   .     S
Cu103  N116    2.026   .     S
Cu103  O122    1.946   .     S
Cu104  O123    1.954   .     S
Cu104  O125    1.961   .     S
Cu104  N117    2.026   .     S
Cu104  O121    1.948   .     S
Cu104  O119    1.946   .     S
H114   C767    1.083   1_554 S
N126   H127    1.044   .     S
N126   H128    1.046   .     S
C129   C130    1.526   .     S
C129   H134    1.100   .     S
C130   H133    1.111   .     S
C130   H132    1.106   .     S
C130   H131    1.109   .     S
H135   C203    1.113   .     S
N136   H138    1.046   .     S
N136   H137    1.046   .     S
N139   H140    1.043   .     S
N139   H141    1.045   .     S
N139   C764    1.433   .     S
C142   H148    1.111   .     S
C142   H147    1.103   .     S
C142   C143    1.528   .     S
C143   H146    1.111   .     S
C143   H145    1.110   .     S
C143   H366    1.110   .     S
H144   C587    1.110   1_545 S
C149   O192    1.294   .     A
C149   O193    1.294   .     A
C149   C165    1.442   .     S
C150   C151    1.420   .     A
C150   C818    1.429   .     S
C150   C842    1.418   .     S
C151   C158    1.427   .     A
C151   C155    1.410   .     A
C152   C156    1.402   .     A
C152   C816    1.429   1_554 S
C152   C819    1.425   1_554 S
C153   C154    1.394   .     A
C153   C818    1.425   .     S
C153   C838    1.419   .     S
C154   C155    1.382   .     A
C154   H184    1.081   .     S
C155   H189    1.071   .     S
C156   C173    1.395   .     A
C156   H185    1.077   .     S
C157   C172    1.391   .     A
C157   C173    1.394   .     A
C157   H179    1.084   .     S
C158   C160    1.479   .     S
C158   C174    1.402   .     A
C159   C216    1.515   .     S
C159   C165    1.413   .     A
C159   C383    1.393   .     S
C160   O194    1.310   .     A
C160   O195    1.297   .     A
C161   H180    1.084   .     S
C161   C162    1.395   .     A
C161   C603    1.393   1_545 S
C162   C163    1.407   .     A
C162   C170    1.438   .     S
C163   N200    1.433   .     S
C163   C608    1.386   1_545 S
C164   H181    1.085   .     S
C164   C165    1.397   .     A
C164   C385    1.386   .     S
C166   H182    1.081   .     S
C166   N191    1.343   .     A
C166   C19     1.415   1_655 S
C167   C203    1.529   .     S
C167   N190    1.407   .     A
C168   N190    1.364   .     A
C168   H183    1.081   .     S
C169   N191    1.374   .     A
C169   N210    1.429   .     S
C169   C20     1.425   1_655 S
C170   O196    1.291   .     A
C170   O197    1.295   .     A
C171   O199    1.301   .     A
C171   C173    1.459   .     S
C171   O198    1.297   .     A
C172   C819    1.419   1_554 S
C172   N879    1.433   1_554 S
C174   C175    1.386   .     A
C174   H186    1.083   .     S
C175   C842    1.390   .     S
C175   H854    1.083   .     S
C176   H187    1.077   .     S
C176   C841    1.390   1_554 S
C176   C816    1.418   1_554 S
Cu177  O194    1.961   .     S
Cu177  Cu178   2.697   .     S
Cu177  O198    1.948   .     S
Cu177  O192    1.954   .     S
Cu177  N190    2.026   .     S
Cu177  O196    1.946   .     S
Cu178  O197    1.954   .     S
Cu178  O199    1.961   .     S
Cu178  N191    2.026   .     S
Cu178  O195    1.948   .     S
Cu178  O193    1.946   .     S
H188   C841    1.083   1_554 S
N200   H201    1.044   .     S
N200   H202    1.046   .     S
C203   C204    1.526   .     S
C203   H208    1.100   .     S
C204   H207    1.111   .     S
C204   H206    1.106   .     S
C204   H205    1.109   .     S
H209   C55     1.113   1_655 S
N210   H212    1.046   .     S
N210   H211    1.046   .     S
N213   H214    1.043   .     S
N213   H215    1.045   .     S
N213   C838    1.433   .     S
C216   H222    1.111   .     S
C216   H221    1.103   .     S
C216   C217    1.528   .     S
C217   H220    1.111   .     S
C217   H219    1.110   .     S
C217   H440    1.110   .     S
H218   C661    1.110   1_545 S
C223   O266    1.294   .     A
C223   O267    1.294   .     A
C223   C239    1.442   .     S
C224   C225    1.420   .     A
C224   C892    1.429   .     S
C224   C916    1.418   .     S
C225   C232    1.427   .     A
C225   C229    1.410   .     A
C226   C230    1.402   .     A
C226   C890    1.429   1_554 S
C226   C893    1.425   1_554 S
C227   C228    1.394   .     A
C227   C892    1.425   .     S
C227   C912    1.419   .     S
C228   C229    1.382   .     A
C228   H258    1.081   .     S
C229   H263    1.071   .     S
C230   C247    1.395   .     A
C230   H259    1.077   .     S
C231   C246    1.391   .     A
C231   C247    1.394   .     A
C231   H253    1.084   .     S
C232   C234    1.479   .     S
C232   C248    1.402   .     A
C233   C290    1.515   .     S
C233   C239    1.413   .     A
C233   C457    1.393   .     S
C234   O268    1.310   .     A
C234   O269    1.297   .     A
C235   H254    1.084   .     S
C235   C236    1.395   .     A
C236   C237    1.407   .     A
C236   C244    1.438   .     S
C237   N274    1.433   .     S
C238   H255    1.085   .     S
C238   C239    1.397   .     A
C238   C459    1.386   .     S
C240   H256    1.081   .     S
C240   N265    1.343   .     A
C240   C315    1.415   .     S
C241   C277    1.529   .     S
C241   N264    1.407   .     A
C241   C388    1.415   1_455 S
C242   N264    1.364   .     A
C242   H257    1.081   .     S
C242   C391    1.425   1_455 S
C243   N265    1.374   .     A
C243   N284    1.429   .     S
C243   C316    1.425   .     S
C244   O270    1.291   .     A
C244   O271    1.295   .     A
C245   O273    1.301   .     A
C245   C247    1.459   .     S
C245   O272    1.297   .     A
C246   C893    1.419   1_554 S
C246   N953    1.433   1_554 S
C248   C249    1.386   .     A
C248   H260    1.083   .     S
C249   C916    1.390   .     S
C249   H928    1.083   .     S
C250   H261    1.077   .     S
C250   C915    1.390   1_554 S
C250   C890    1.418   1_554 S
Cu251  O268    1.961   .     S
Cu251  Cu252   2.697   .     S
Cu251  O272    1.948   .     S
Cu251  O266    1.954   .     S
Cu251  N264    2.026   .     S
Cu251  O270    1.946   .     S
Cu252  O271    1.954   .     S
Cu252  O273    1.961   .     S
Cu252  N265    2.026   .     S
Cu252  O269    1.948   .     S
Cu252  O267    1.946   .     S
H262   C915    1.083   1_554 S
N274   H275    1.044   .     S
N274   H276    1.046   .     S
C277   C278    1.526   .     S
C277   H282    1.100   .     S
C277   H431    1.113   1_455 S
C278   H281    1.111   .     S
C278   H280    1.106   .     S
C278   H279    1.109   .     S
H283   C351    1.113   .     S
N284   H286    1.046   .     S
N284   H285    1.046   .     S
N287   H288    1.043   .     S
N287   H289    1.045   .     S
N287   C912    1.433   .     S
C290   H296    1.111   .     S
C290   H295    1.103   .     S
C290   C291    1.528   .     S
C291   H294    1.111   .     S
C291   H293    1.110   .     S
C291   H514    1.110   .     S
C297   O340    1.294   .     A
C297   O341    1.294   .     A
C297   C313    1.442   .     S
C298   C299    1.420   .     A
C298   C966    1.429   .     S
C298   C990    1.418   .     S
C299   C306    1.427   .     A
C299   C303    1.410   .     A
C300   C304    1.402   .     A
C300   C964    1.429   1_554 S
C300   C967    1.425   1_554 S
C301   C302    1.394   .     A
C301   C966    1.425   .     S
C301   C986    1.419   .     S
C302   C303    1.382   .     A
C302   H332    1.081   .     S
C303   H337    1.071   .     S
C304   C321    1.395   .     A
C304   H333    1.077   .     S
C305   C320    1.391   .     A
C305   C321    1.394   .     A
C305   H327    1.084   .     S
C306   C308    1.479   .     S
C306   C322    1.402   .     A
C307   C364    1.515   .     S
C307   C313    1.413   .     A
C307   C531    1.393   .     S
C308   O342    1.310   .     A
C308   O343    1.297   .     A
C309   H328    1.084   .     S
C309   C310    1.395   .     A
C310   C311    1.407   .     A
C310   C318    1.438   .     S
C311   N348    1.433   .     S
C312   H329    1.085   .     S
C312   C313    1.397   .     A
C312   C533    1.386   .     S
C314   H330    1.081   .     S
C314   N339    1.343   .     A
C314   C389    1.415   .     S
C315   C351    1.529   .     S
C315   N338    1.407   .     A
C316   N338    1.364   .     A
C316   H331    1.081   .     S
C317   N339    1.374   .     A
C317   N358    1.429   .     S
C317   C390    1.425   .     S
C318   O344    1.291   .     A
C318   O345    1.295   .     A
C319   O347    1.301   .     A
C319   C321    1.459   .     S
C319   O346    1.297   .     A
C320   C967    1.419   1_554 S
C320   N1027   1.433   1_554 S
C322   C323    1.386   .     A
C322   H334    1.083   .     S
C323   C990    1.390   .     S
C323   H1002   1.083   .     S
C324   H335    1.077   .     S
C324   C989    1.390   1_554 S
C324   C964    1.418   1_554 S
Cu325  O342    1.961   .     S
Cu325  Cu326   2.697   .     S
Cu325  O346    1.948   .     S
Cu325  O340    1.954   .     S
Cu325  N338    2.026   .     S
Cu325  O344    1.946   .     S
Cu326  O345    1.954   .     S
Cu326  O347    1.961   .     S
Cu326  N339    2.026   .     S
Cu326  O343    1.948   .     S
Cu326  O341    1.946   .     S
H336   C989    1.083   1_554 S
N348   H349    1.044   .     S
N348   H350    1.046   .     S
C351   C352    1.526   .     S
C351   H356    1.100   .     S
C352   H355    1.111   .     S
C352   H354    1.106   .     S
C352   H353    1.109   .     S
H357   C425    1.113   .     S
N358   H360    1.046   .     S
N358   H359    1.046   .     S
N361   H362    1.043   .     S
N361   H363    1.045   .     S
N361   C986    1.433   .     S
C364   H370    1.111   .     S
C364   H369    1.103   .     S
C364   C365    1.528   .     S
C365   H368    1.111   .     S
C365   H367    1.110   .     S
C365   H588    1.110   .     S
C371   O414    1.294   .     A
C371   O415    1.294   .     A
C371   C387    1.442   .     S
C372   C373    1.420   .     A
C372   C1040   1.429   .     S
C372   C1064   1.418   .     S
C373   C380    1.427   .     A
C373   C377    1.410   .     A
C374   C378    1.402   .     A
C374   C1038   1.429   1_554 S
C374   C1041   1.425   1_554 S
C375   C376    1.394   .     A
C375   C1040   1.425   .     S
C375   C1060   1.419   .     S
C376   C377    1.382   .     A
C376   H406    1.081   .     S
C377   H411    1.071   .     S
C378   C395    1.395   .     A
C378   H407    1.077   .     S
C379   C394    1.391   .     A
C379   C395    1.394   .     A
C379   H401    1.084   .     S
C380   C382    1.479   .     S
C380   C396    1.402   .     A
C381   C438    1.515   .     S
C381   C387    1.413   .     A
C381   C605    1.393   .     S
C382   O416    1.310   .     A
C382   O417    1.297   .     A
C383   H402    1.084   .     S
C383   C384    1.395   .     A
C384   C385    1.407   .     A
C384   C392    1.438   .     S
C385   N422    1.433   .     S
C386   H403    1.085   .     S
C386   C387    1.397   .     A
C386   C607    1.386   .     S
C388   H404    1.081   .     S
C388   N413    1.343   .     A
C388   C241    1.415   1_655 S
C389   C425    1.529   .     S
C389   N412    1.407   .     A
C390   N412    1.364   .     A
C390   H405    1.081   .     S
C391   N413    1.374   .     A
C391   N432    1.429   .     S
C391   C242    1.425   1_655 S
C392   O418    1.291   .     A
C392   O419    1.295   .     A
C393   O421    1.301   .     A
C393   C395    1.459   .     S
C393   O420    1.297   .     A
C394   C1041   1.419   1_554 S
C394   N1101   1.433   1_554 S
C396   C397    1.386   .     A
C396   H408    1.083   .     S
C397   C1064   1.390   .     S
C397   H1076   1.083   .     S
C398   H409    1.077   .     S
C398   C1063   1.390   1_554 S
C398   C1038   1.418   1_554 S
Cu399  O416    1.961   .     S
Cu399  Cu400   2.697   .     S
Cu399  O420    1.948   .     S
Cu399  O414    1.954   .     S
Cu399  N412    2.026   .     S
Cu399  O418    1.946   .     S
Cu400  O419    1.954   .     S
Cu400  O421    1.961   .     S
Cu400  N413    2.026   .     S
Cu400  O417    1.948   .     S
Cu400  O415    1.946   .     S
H410   C1063   1.083   1_554 S
N422   H423    1.044   .     S
N422   H424    1.046   .     S
C425   C426    1.526   .     S
C425   H430    1.100   .     S
C426   H429    1.111   .     S
C426   H428    1.106   .     S
C426   H427    1.109   .     S
H431   C277    1.113   1_655 S
N432   H434    1.046   .     S
N432   H433    1.046   .     S
N435   H436    1.043   .     S
N435   H437    1.045   .     S
N435   C1060   1.433   .     S
C438   H444    1.111   .     S
C438   H443    1.103   .     S
C438   C439    1.528   .     S
C439   H442    1.111   .     S
C439   H441    1.110   .     S
C439   H662    1.110   .     S
C445   O488    1.294   .     A
C445   O489    1.294   .     A
C445   C461    1.442   .     S
C446   C447    1.420   .     A
C446   C1114   1.429   .     S
C446   C1138   1.418   .     S
C447   C454    1.427   .     A
C447   C451    1.410   .     A
C448   C452    1.402   .     A
C448   C1112   1.429   1_554 S
C448   C1115   1.425   1_554 S
C449   C450    1.394   .     A
C449   C1114   1.425   .     S
C449   C1134   1.419   .     S
C450   C451    1.382   .     A
C450   H480    1.081   .     S
C451   H485    1.071   .     S
C452   C469    1.395   .     A
C452   H481    1.077   .     S
C453   C468    1.391   .     A
C453   C469    1.394   .     A
C453   H475    1.084   .     S
C454   C456    1.479   .     S
C454   C470    1.402   .     A
C455   C512    1.515   .     S
C455   C461    1.413   .     A
C455   C13     1.393   1_565 S
C456   O490    1.310   .     A
C456   O491    1.297   .     A
C457   H476    1.084   .     S
C457   C458    1.395   .     A
C458   C459    1.407   .     A
C458   C466    1.438   .     S
C459   N496    1.433   .     S
C460   H477    1.085   .     S
C460   C461    1.397   .     A
C460   C15     1.386   1_565 S
C462   H478    1.081   .     S
C462   N487    1.343   .     A
C462   C537    1.415   .     S
C463   C499    1.529   .     S
C463   N486    1.407   .     A
C463   C610    1.415   1_455 S
C464   N486    1.364   .     A
C464   H479    1.081   .     S
C464   C613    1.425   1_455 S
C465   N487    1.374   .     A
C465   N506    1.429   .     S
C465   C538    1.425   .     S
C466   O492    1.291   .     A
C466   O493    1.295   .     A
C467   O495    1.301   .     A
C467   C469    1.459   .     S
C467   O494    1.297   .     A
C468   C1115   1.419   1_554 S
C468   N1175   1.433   1_554 S
C470   C471    1.386   .     A
C470   H482    1.083   .     S
C471   C1138   1.390   .     S
C471   H1150   1.083   .     S
C472   H483    1.077   .     S
C472   C1137   1.390   1_554 S
C472   C1112   1.418   1_554 S
Cu473  O490    1.961   .     S
Cu473  Cu474   2.697   .     S
Cu473  O494    1.948   .     S
Cu473  O488    1.954   .     S
Cu473  N486    2.026   .     S
Cu473  O492    1.946   .     S
Cu474  O493    1.954   .     S
Cu474  O495    1.961   .     S
Cu474  N487    2.026   .     S
Cu474  O491    1.948   .     S
Cu474  O489    1.946   .     S
H484   C1137   1.083   1_554 S
N496   H497    1.044   .     S
N496   H498    1.046   .     S
C499   C500    1.526   .     S
C499   H504    1.100   .     S
C499   H653    1.113   1_455 S
C500   H503    1.111   .     S
C500   H502    1.106   .     S
C500   H501    1.109   .     S
H505   C573    1.113   .     S
N506   H508    1.046   .     S
N506   H507    1.046   .     S
N509   H510    1.043   .     S
N509   H511    1.045   .     S
N509   C1134   1.433   .     S
C512   H518    1.111   .     S
C512   H517    1.103   .     S
C512   C513    1.528   .     S
C513   H516    1.111   .     S
C513   H515    1.110   .     S
C513   H70     1.110   1_565 S
C519   O562    1.294   .     A
C519   O563    1.294   .     A
C519   C535    1.442   .     S
C520   C521    1.420   .     A
C520   C1188   1.429   .     S
C520   C1212   1.418   .     S
C521   C528    1.427   .     A
C521   C525    1.410   .     A
C522   C526    1.402   .     A
C522   C1186   1.429   1_554 S
C522   C1189   1.425   1_554 S
C523   C524    1.394   .     A
C523   C1188   1.425   .     S
C523   C1208   1.419   .     S
C524   C525    1.382   .     A
C524   H554    1.081   .     S
C525   H559    1.071   .     S
C526   C543    1.395   .     A
C526   H555    1.077   .     S
C527   C542    1.391   .     A
C527   C543    1.394   .     A
C527   H549    1.084   .     S
C528   C530    1.479   .     S
C528   C544    1.402   .     A
C529   C586    1.515   .     S
C529   C535    1.413   .     A
C529   C87     1.393   1_565 S
C530   O564    1.310   .     A
C530   O565    1.297   .     A
C531   H550    1.084   .     S
C531   C532    1.395   .     A
C532   C533    1.407   .     A
C532   C540    1.438   .     S
C533   N570    1.433   .     S
C534   H551    1.085   .     S
C534   C535    1.397   .     A
C534   C89     1.386   1_565 S
C536   H552    1.081   .     S
C536   N561    1.343   .     A
C536   C611    1.415   .     S
C537   C573    1.529   .     S
C537   N560    1.407   .     A
C538   N560    1.364   .     A
C538   H553    1.081   .     S
C539   N561    1.374   .     A
C539   N580    1.429   .     S
C539   C612    1.425   .     S
C540   O566    1.291   .     A
C540   O567    1.295   .     A
C541   O569    1.301   .     A
C541   C543    1.459   .     S
C541   O568    1.297   .     A
C542   C1189   1.419   1_554 S
C542   N1249   1.433   1_554 S
C544   C545    1.386   .     A
C544   H556    1.083   .     S
C545   C1212   1.390   .     S
C545   H1224   1.083   .     S
C546   H557    1.077   .     S
C546   C1211   1.390   1_554 S
C546   C1186   1.418   1_554 S
Cu547  O564    1.961   .     S
Cu547  Cu548   2.697   .     S
Cu547  O568    1.948   .     S
Cu547  O562    1.954   .     S
Cu547  N560    2.026   .     S
Cu547  O566    1.946   .     S
Cu548  O567    1.954   .     S
Cu548  O569    1.961   .     S
Cu548  N561    2.026   .     S
Cu548  O565    1.948   .     S
Cu548  O563    1.946   .     S
H558   C1211   1.083   1_554 S
N570   H571    1.044   .     S
N570   H572    1.046   .     S
C573   C574    1.526   .     S
C573   H578    1.100   .     S
C574   H577    1.111   .     S
C574   H576    1.106   .     S
C574   H575    1.109   .     S
H579   C647    1.113   .     S
N580   H582    1.046   .     S
N580   H581    1.046   .     S
N583   H584    1.043   .     S
N583   H585    1.045   .     S
N583   C1208   1.433   .     S
C586   H592    1.111   .     S
C586   H591    1.103   .     S
C586   C587    1.528   .     S
C587   H590    1.111   .     S
C587   H589    1.110   .     S
C587   H144    1.110   1_565 S
C593   O636    1.294   .     A
C593   O637    1.294   .     A
C593   C609    1.442   .     S
C594   C595    1.420   .     A
C594   C1262   1.429   .     S
C594   C1286   1.418   .     S
C595   C602    1.427   .     A
C595   C599    1.410   .     A
C596   C600    1.402   .     A
C596   C1260   1.429   1_554 S
C596   C1263   1.425   1_554 S
C597   C598    1.394   .     A
C597   C1262   1.425   .     S
C597   C1282   1.419   .     S
C598   C599    1.382   .     A
C598   H628    1.081   .     S
C599   H633    1.071   .     S
C600   C617    1.395   .     A
C600   H629    1.077   .     S
C601   C616    1.391   .     A
C601   C617    1.394   .     A
C601   H623    1.084   .     S
C602   C604    1.479   .     S
C602   C618    1.402   .     A
C603   C660    1.515   .     S
C603   C609    1.413   .     A
C603   C161    1.393   1_565 S
C604   O638    1.310   .     A
C604   O639    1.297   .     A
C605   H624    1.084   .     S
C605   C606    1.395   .     A
C606   C607    1.407   .     A
C606   C614    1.438   .     S
C607   N644    1.433   .     S
C608   H625    1.085   .     S
C608   C609    1.397   .     A
C608   C163    1.386   1_565 S
C610   H626    1.081   .     S
C610   N635    1.343   .     A
C610   C463    1.415   1_655 S
C611   C647    1.529   .     S
C611   N634    1.407   .     A
C612   N634    1.364   .     A
C612   H627    1.081   .     S
C613   N635    1.374   .     A
C613   N654    1.429   .     S
C613   C464    1.425   1_655 S
C614   O640    1.291   .     A
C614   O641    1.295   .     A
C615   O643    1.301   .     A
C615   C617    1.459   .     S
C615   O642    1.297   .     A
C616   C1263   1.419   1_554 S
C616   N1323   1.433   1_554 S
C618   C619    1.386   .     A
C618   H630    1.083   .     S
C619   C1286   1.390   .     S
C619   H1298   1.083   .     S
C620   H631    1.077   .     S
C620   C1285   1.390   1_554 S
C620   C1260   1.418   1_554 S
Cu621  O638    1.961   .     S
Cu621  Cu622   2.697   .     S
Cu621  O642    1.948   .     S
Cu621  O636    1.954   .     S
Cu621  N634    2.026   .     S
Cu621  O640    1.946   .     S
Cu622  O641    1.954   .     S
Cu622  O643    1.961   .     S
Cu622  N635    2.026   .     S
Cu622  O639    1.948   .     S
Cu622  O637    1.946   .     S
H632   C1285   1.083   1_554 S
N644   H645    1.044   .     S
N644   H646    1.046   .     S
C647   C648    1.526   .     S
C647   H652    1.100   .     S
C648   H651    1.111   .     S
C648   H650    1.106   .     S
C648   H649    1.109   .     S
H653   C499    1.113   1_655 S
N654   H656    1.046   .     S
N654   H655    1.046   .     S
N657   H658    1.043   .     S
N657   H659    1.045   .     S
N657   C1282   1.433   .     S
C660   H666    1.111   .     S
C660   H665    1.103   .     S
C660   C661    1.528   .     S
C661   H664    1.111   .     S
C661   H663    1.110   .     S
C661   H218    1.110   1_565 S
C667   O710    1.294   .     A
C667   O711    1.294   .     A
C667   C683    1.442   .     S
C668   C669    1.420   .     A
C668   C4      1.429   1_556 S
C668   C28     1.418   1_556 S
C669   C676    1.427   .     A
C669   C673    1.410   .     A
C670   C674    1.402   .     A
C671   C672    1.394   .     A
C671   C4      1.425   1_556 S
C671   C24     1.419   1_556 S
C672   C673    1.382   .     A
C672   H702    1.081   .     S
C673   H707    1.071   .     S
C674   C691    1.395   .     A
C674   H703    1.077   .     S
C675   C690    1.391   .     A
C675   C691    1.394   .     A
C675   H697    1.084   .     S
C676   C678    1.479   .     S
C676   C692    1.402   .     A
C677   C734    1.515   .     S
C677   C683    1.413   .     A
C677   C901    1.393   .     S
C678   O712    1.310   .     A
C678   O713    1.297   .     A
C679   H698    1.084   .     S
C679   C680    1.395   .     A
C679   C1121   1.393   1_545 S
C680   C681    1.407   .     A
C680   C688    1.438   .     S
C681   N718    1.433   .     S
C681   C1126   1.386   1_545 S
C682   H699    1.085   .     S
C682   C683    1.397   .     A
C682   C903    1.386   .     S
C684   H700    1.081   .     S
C684   N709    1.343   .     A
C684   C759    1.415   .     S
C685   C721    1.529   .     S
C685   N708    1.407   .     A
C685   C832    1.415   1_455 S
C686   N708    1.364   .     A
C686   H701    1.081   .     S
C686   C835    1.425   1_455 S
C687   N709    1.374   .     A
C687   N728    1.429   .     S
C687   C760    1.425   .     S
C688   O714    1.291   .     A
C688   O715    1.295   .     A
C689   O717    1.301   .     A
C689   C691    1.459   .     S
C689   O716    1.297   .     A
C692   C693    1.386   .     A
C692   H704    1.083   .     S
C693   C28     1.390   1_556 S
C693   H40     1.083   1_556 S
C694   H705    1.077   .     S
Cu695  O712    1.961   .     S
Cu695  Cu696   2.697   .     S
Cu695  O716    1.948   .     S
Cu695  O710    1.954   .     S
Cu695  N708    2.026   .     S
Cu695  O714    1.946   .     S
Cu696  O715    1.954   .     S
Cu696  O717    1.961   .     S
Cu696  N709    2.026   .     S
Cu696  O713    1.948   .     S
Cu696  O711    1.946   .     S
N718   H719    1.044   .     S
N718   H720    1.046   .     S
C721   C722    1.526   .     S
C721   H726    1.100   .     S
C721   H875    1.113   1_455 S
C722   H725    1.111   .     S
C722   H724    1.106   .     S
C722   H723    1.109   .     S
H727   C795    1.113   .     S
N728   H730    1.046   .     S
N728   H729    1.046   .     S
N731   H732    1.043   .     S
N731   H733    1.045   .     S
N731   C24     1.433   1_556 S
C734   H740    1.111   .     S
C734   H739    1.103   .     S
C734   C735    1.528   .     S
C735   H738    1.111   .     S
C735   H737    1.110   .     S
C735   H958    1.110   .     S
H736   C1179   1.110   1_545 S
C741   O784    1.294   .     A
C741   O785    1.294   .     A
C741   C757    1.442   .     S
C742   C743    1.420   .     A
C742   C78     1.429   1_556 S
C742   C102    1.418   1_556 S
C743   C750    1.427   .     A
C743   C747    1.410   .     A
C744   C748    1.402   .     A
C745   C746    1.394   .     A
C745   C78     1.425   1_556 S
C745   C98     1.419   1_556 S
C746   C747    1.382   .     A
C746   H776    1.081   .     S
C747   H781    1.071   .     S
C748   C765    1.395   .     A
C748   H777    1.077   .     S
C749   C764    1.391   .     A
C749   C765    1.394   .     A
C749   H771    1.084   .     S
C750   C752    1.479   .     S
C750   C766    1.402   .     A
C751   C808    1.515   .     S
C751   C757    1.413   .     A
C751   C975    1.393   .     S
C752   O786    1.310   .     A
C752   O787    1.297   .     A
C753   H772    1.084   .     S
C753   C754    1.395   .     A
C753   C1195   1.393   1_545 S
C754   C755    1.407   .     A
C754   C762    1.438   .     S
C755   N792    1.433   .     S
C755   C1200   1.386   1_545 S
C756   H773    1.085   .     S
C756   C757    1.397   .     A
C756   C977    1.386   .     S
C758   H774    1.081   .     S
C758   N783    1.343   .     A
C758   C833    1.415   .     S
C759   C795    1.529   .     S
C759   N782    1.407   .     A
C760   N782    1.364   .     A
C760   H775    1.081   .     S
C761   N783    1.374   .     A
C761   N802    1.429   .     S
C761   C834    1.425   .     S
C762   O788    1.291   .     A
C762   O789    1.295   .     A
C763   O791    1.301   .     A
C763   C765    1.459   .     S
C763   O790    1.297   .     A
C766   C767    1.386   .     A
C766   H778    1.083   .     S
C767   C102    1.390   1_556 S
C767   H114    1.083   1_556 S
C768   H779    1.077   .     S
Cu769  O786    1.961   .     S
Cu769  Cu770   2.697   .     S
Cu769  O790    1.948   .     S
Cu769  O784    1.954   .     S
Cu769  N782    2.026   .     S
Cu769  O788    1.946   .     S
Cu770  O789    1.954   .     S
Cu770  O791    1.961   .     S
Cu770  N783    2.026   .     S
Cu770  O787    1.948   .     S
Cu770  O785    1.946   .     S
N792   H793    1.044   .     S
N792   H794    1.046   .     S
C795   C796    1.526   .     S
C795   H800    1.100   .     S
C796   H799    1.111   .     S
C796   H798    1.106   .     S
C796   H797    1.109   .     S
H801   C869    1.113   .     S
N802   H804    1.046   .     S
N802   H803    1.046   .     S
N805   H806    1.043   .     S
N805   H807    1.045   .     S
N805   C98     1.433   1_556 S
C808   H814    1.111   .     S
C808   H813    1.103   .     S
C808   C809    1.528   .     S
C809   H812    1.111   .     S
C809   H811    1.110   .     S
C809   H1032   1.110   .     S
H810   C1253   1.110   1_545 S
C815   O858    1.294   .     A
C815   O859    1.294   .     A
C815   C831    1.442   .     S
C816   C817    1.420   .     A
C816   C152    1.429   1_556 S
C816   C176    1.418   1_556 S
C817   C824    1.427   .     A
C817   C821    1.410   .     A
C818   C822    1.402   .     A
C819   C820    1.394   .     A
C819   C152    1.425   1_556 S
C819   C172    1.419   1_556 S
C820   C821    1.382   .     A
C820   H850    1.081   .     S
C821   H855    1.071   .     S
C822   C839    1.395   .     A
C822   H851    1.077   .     S
C823   C838    1.391   .     A
C823   C839    1.394   .     A
C823   H845    1.084   .     S
C824   C826    1.479   .     S
C824   C840    1.402   .     A
C825   C882    1.515   .     S
C825   C831    1.413   .     A
C825   C1049   1.393   .     S
C826   O860    1.310   .     A
C826   O861    1.297   .     A
C827   H846    1.084   .     S
C827   C828    1.395   .     A
C827   C1269   1.393   1_545 S
C828   C829    1.407   .     A
C828   C836    1.438   .     S
C829   N866    1.433   .     S
C829   C1274   1.386   1_545 S
C830   H847    1.085   .     S
C830   C831    1.397   .     A
C830   C1051   1.386   .     S
C832   H848    1.081   .     S
C832   N857    1.343   .     A
C832   C685    1.415   1_655 S
C833   C869    1.529   .     S
C833   N856    1.407   .     A
C834   N856    1.364   .     A
C834   H849    1.081   .     S
C835   N857    1.374   .     A
C835   N876    1.429   .     S
C835   C686    1.425   1_655 S
C836   O862    1.291   .     A
C836   O863    1.295   .     A
C837   O865    1.301   .     A
C837   C839    1.459   .     S
C837   O864    1.297   .     A
C840   C841    1.386   .     A
C840   H852    1.083   .     S
C841   C176    1.390   1_556 S
C841   H188    1.083   1_556 S
C842   H853    1.077   .     S
Cu843  O860    1.961   .     S
Cu843  Cu844   2.697   .     S
Cu843  O864    1.948   .     S
Cu843  O858    1.954   .     S
Cu843  N856    2.026   .     S
Cu843  O862    1.946   .     S
Cu844  O863    1.954   .     S
Cu844  O865    1.961   .     S
Cu844  N857    2.026   .     S
Cu844  O861    1.948   .     S
Cu844  O859    1.946   .     S
N866   H867    1.044   .     S
N866   H868    1.046   .     S
C869   C870    1.526   .     S
C869   H874    1.100   .     S
C870   H873    1.111   .     S
C870   H872    1.106   .     S
C870   H871    1.109   .     S
H875   C721    1.113   1_655 S
N876   H878    1.046   .     S
N876   H877    1.046   .     S
N879   H880    1.043   .     S
N879   H881    1.045   .     S
N879   C172    1.433   1_556 S
C882   H888    1.111   .     S
C882   H887    1.103   .     S
C882   C883    1.528   .     S
C883   H886    1.111   .     S
C883   H885    1.110   .     S
C883   H1106   1.110   .     S
H884   C1327   1.110   1_545 S
C889   O932    1.294   .     A
C889   O933    1.294   .     A
C889   C905    1.442   .     S
C890   C891    1.420   .     A
C890   C226    1.429   1_556 S
C890   C250    1.418   1_556 S
C891   C898    1.427   .     A
C891   C895    1.410   .     A
C892   C896    1.402   .     A
C893   C894    1.394   .     A
C893   C226    1.425   1_556 S
C893   C246    1.419   1_556 S
C894   C895    1.382   .     A
C894   H924    1.081   .     S
C895   H929    1.071   .     S
C896   C913    1.395   .     A
C896   H925    1.077   .     S
C897   C912    1.391   .     A
C897   C913    1.394   .     A
C897   H919    1.084   .     S
C898   C900    1.479   .     S
C898   C914    1.402   .     A
C899   C956    1.515   .     S
C899   C905    1.413   .     A
C899   C1123   1.393   .     S
C900   O934    1.310   .     A
C900   O935    1.297   .     A
C901   H920    1.084   .     S
C901   C902    1.395   .     A
C902   C903    1.407   .     A
C902   C910    1.438   .     S
C903   N940    1.433   .     S
C904   H921    1.085   .     S
C904   C905    1.397   .     A
C904   C1125   1.386   .     S
C906   H922    1.081   .     S
C906   N931    1.343   .     A
C906   C981    1.415   .     S
C907   C943    1.529   .     S
C907   N930    1.407   .     A
C907   C1054   1.415   1_455 S
C908   N930    1.364   .     A
C908   H923    1.081   .     S
C908   C1057   1.425   1_455 S
C909   N931    1.374   .     A
C909   N950    1.429   .     S
C909   C982    1.425   .     S
C910   O936    1.291   .     A
C910   O937    1.295   .     A
C911   O939    1.301   .     A
C911   C913    1.459   .     S
C911   O938    1.297   .     A
C914   C915    1.386   .     A
C914   H926    1.083   .     S
C915   C250    1.390   1_556 S
C915   H262    1.083   1_556 S
C916   H927    1.077   .     S
Cu917  O934    1.961   .     S
Cu917  Cu918   2.697   .     S
Cu917  O938    1.948   .     S
Cu917  O932    1.954   .     S
Cu917  N930    2.026   .     S
Cu917  O936    1.946   .     S
Cu918  O937    1.954   .     S
Cu918  O939    1.961   .     S
Cu918  N931    2.026   .     S
Cu918  O935    1.948   .     S
Cu918  O933    1.946   .     S
N940   H941    1.044   .     S
N940   H942    1.046   .     S
C943   C944    1.526   .     S
C943   H948    1.100   .     S
C943   H1097   1.113   1_455 S
C944   H947    1.111   .     S
C944   H946    1.106   .     S
C944   H945    1.109   .     S
H949   C1017   1.113   .     S
N950   H952    1.046   .     S
N950   H951    1.046   .     S
N953   H954    1.043   .     S
N953   H955    1.045   .     S
N953   C246    1.433   1_556 S
C956   H962    1.111   .     S
C956   H961    1.103   .     S
C956   C957    1.528   .     S
C957   H960    1.111   .     S
C957   H959    1.110   .     S
C957   H1180   1.110   .     S
C963   O1006   1.294   .     A
C963   O1007   1.294   .     A
C963   C979    1.442   .     S
C964   C965    1.420   .     A
C964   C300    1.429   1_556 S
C964   C324    1.418   1_556 S
C965   C972    1.427   .     A
C965   C969    1.410   .     A
C966   C970    1.402   .     A
C967   C968    1.394   .     A
C967   C300    1.425   1_556 S
C967   C320    1.419   1_556 S
C968   C969    1.382   .     A
C968   H998    1.081   .     S
C969   H1003   1.071   .     S
C970   C987    1.395   .     A
C970   H999    1.077   .     S
C971   C986    1.391   .     A
C971   C987    1.394   .     A
C971   H993    1.084   .     S
C972   C974    1.479   .     S
C972   C988    1.402   .     A
C973   C1030   1.515   .     S
C973   C979    1.413   .     A
C973   C1197   1.393   .     S
C974   O1008   1.310   .     A
C974   O1009   1.297   .     A
C975   H994    1.084   .     S
C975   C976    1.395   .     A
C976   C977    1.407   .     A
C976   C984    1.438   .     S
C977   N1014   1.433   .     S
C978   H995    1.085   .     S
C978   C979    1.397   .     A
C978   C1199   1.386   .     S
C980   H996    1.081   .     S
C980   N1005   1.343   .     A
C980   C1055   1.415   .     S
C981   C1017   1.529   .     S
C981   N1004   1.407   .     A
C982   N1004   1.364   .     A
C982   H997    1.081   .     S
C983   N1005   1.374   .     A
C983   N1024   1.429   .     S
C983   C1056   1.425   .     S
C984   O1010   1.291   .     A
C984   O1011   1.295   .     A
C985   O1013   1.301   .     A
C985   C987    1.459   .     S
C985   O1012   1.297   .     A
C988   C989    1.386   .     A
C988   H1000   1.083   .     S
C989   C324    1.390   1_556 S
C989   H336    1.083   1_556 S
C990   H1001   1.077   .     S
Cu991  O1008   1.961   .     S
Cu991  Cu992   2.697   .     S
Cu991  O1012   1.948   .     S
Cu991  O1006   1.954   .     S
Cu991  N1004   2.026   .     S
Cu991  O1010   1.946   .     S
Cu992  O1011   1.954   .     S
Cu992  O1013   1.961   .     S
Cu992  N1005   2.026   .     S
Cu992  O1009   1.948   .     S
Cu992  O1007   1.946   .     S
N1014  H1015   1.044   .     S
N1014  H1016   1.046   .     S
C1017  C1018   1.526   .     S
C1017  H1022   1.100   .     S
C1018  H1021   1.111   .     S
C1018  H1020   1.106   .     S
C1018  H1019   1.109   .     S
H1023  C1091   1.113   .     S
N1024  H1026   1.046   .     S
N1024  H1025   1.046   .     S
N1027  H1028   1.043   .     S
N1027  H1029   1.045   .     S
N1027  C320    1.433   1_556 S
C1030  H1036   1.111   .     S
C1030  H1035   1.103   .     S
C1030  C1031   1.528   .     S
C1031  H1034   1.111   .     S
C1031  H1033   1.110   .     S
C1031  H1254   1.110   .     S
C1037  O1080   1.294   .     A
C1037  O1081   1.294   .     A
C1037  C1053   1.442   .     S
C1038  C1039   1.420   .     A
C1038  C374    1.429   1_556 S
C1038  C398    1.418   1_556 S
C1039  C1046   1.427   .     A
C1039  C1043   1.410   .     A
C1040  C1044   1.402   .     A
C1041  C1042   1.394   .     A
C1041  C374    1.425   1_556 S
C1041  C394    1.419   1_556 S
C1042  C1043   1.382   .     A
C1042  H1072   1.081   .     S
C1043  H1077   1.071   .     S
C1044  C1061   1.395   .     A
C1044  H1073   1.077   .     S
C1045  C1060   1.391   .     A
C1045  C1061   1.394   .     A
C1045  H1067   1.084   .     S
C1046  C1048   1.479   .     S
C1046  C1062   1.402   .     A
C1047  C1104   1.515   .     S
C1047  C1053   1.413   .     A
C1047  C1271   1.393   .     S
C1048  O1082   1.310   .     A
C1048  O1083   1.297   .     A
C1049  H1068   1.084   .     S
C1049  C1050   1.395   .     A
C1050  C1051   1.407   .     A
C1050  C1058   1.438   .     S
C1051  N1088   1.433   .     S
C1052  H1069   1.085   .     S
C1052  C1053   1.397   .     A
C1052  C1273   1.386   .     S
C1054  H1070   1.081   .     S
C1054  N1079   1.343   .     A
C1054  C907    1.415   1_655 S
C1055  C1091   1.529   .     S
C1055  N1078   1.407   .     A
C1056  N1078   1.364   .     A
C1056  H1071   1.081   .     S
C1057  N1079   1.374   .     A
C1057  N1098   1.429   .     S
C1057  C908    1.425   1_655 S
C1058  O1084   1.291   .     A
C1058  O1085   1.295   .     A
C1059  O1087   1.301   .     A
C1059  C1061   1.459   .     S
C1059  O1086   1.297   .     A
C1062  C1063   1.386   .     A
C1062  H1074   1.083   .     S
C1063  C398    1.390   1_556 S
C1063  H410    1.083   1_556 S
C1064  H1075   1.077   .     S
Cu1065 O1082   1.961   .     S
Cu1065 Cu1066  2.697   .     S
Cu1065 O1086   1.948   .     S
Cu1065 O1080   1.954   .     S
Cu1065 N1078   2.026   .     S
Cu1065 O1084   1.946   .     S
Cu1066 O1085   1.954   .     S
Cu1066 O1087   1.961   .     S
Cu1066 N1079   2.026   .     S
Cu1066 O1083   1.948   .     S
Cu1066 O1081   1.946   .     S
N1088  H1089   1.044   .     S
N1088  H1090   1.046   .     S
C1091  C1092   1.526   .     S
C1091  H1096   1.100   .     S
C1092  H1095   1.111   .     S
C1092  H1094   1.106   .     S
C1092  H1093   1.109   .     S
H1097  C943    1.113   1_655 S
N1098  H1100   1.046   .     S
N1098  H1099   1.046   .     S
N1101  H1102   1.043   .     S
N1101  H1103   1.045   .     S
N1101  C394    1.433   1_556 S
C1104  H1110   1.111   .     S
C1104  H1109   1.103   .     S
C1104  C1105   1.528   .     S
C1105  H1108   1.111   .     S
C1105  H1107   1.110   .     S
C1105  H1328   1.110   .     S
C1111  O1154   1.294   .     A
C1111  O1155   1.294   .     A
C1111  C1127   1.442   .     S
C1112  C1113   1.420   .     A
C1112  C448    1.429   1_556 S
C1112  C472    1.418   1_556 S
C1113  C1120   1.427   .     A
C1113  C1117   1.410   .     A
C1114  C1118   1.402   .     A
C1115  C1116   1.394   .     A
C1115  C448    1.425   1_556 S
C1115  C468    1.419   1_556 S
C1116  C1117   1.382   .     A
C1116  H1146   1.081   .     S
C1117  H1151   1.071   .     S
C1118  C1135   1.395   .     A
C1118  H1147   1.077   .     S
C1119  C1134   1.391   .     A
C1119  C1135   1.394   .     A
C1119  H1141   1.084   .     S
C1120  C1122   1.479   .     S
C1120  C1136   1.402   .     A
C1121  C1178   1.515   .     S
C1121  C1127   1.413   .     A
C1121  C679    1.393   1_565 S
C1122  O1156   1.310   .     A
C1122  O1157   1.297   .     A
C1123  H1142   1.084   .     S
C1123  C1124   1.395   .     A
C1124  C1125   1.407   .     A
C1124  C1132   1.438   .     S
C1125  N1162   1.433   .     S
C1126  H1143   1.085   .     S
C1126  C1127   1.397   .     A
C1126  C681    1.386   1_565 S
C1128  H1144   1.081   .     S
C1128  N1153   1.343   .     A
C1128  C1203   1.415   .     S
C1129  C1165   1.529   .     S
C1129  N1152   1.407   .     A
C1129  C1276   1.415   1_455 S
C1130  N1152   1.364   .     A
C1130  H1145   1.081   .     S
C1130  C1279   1.425   1_455 S
C1131  N1153   1.374   .     A
C1131  N1172   1.429   .     S
C1131  C1204   1.425   .     S
C1132  O1158   1.291   .     A
C1132  O1159   1.295   .     A
C1133  O1161   1.301   .     A
C1133  C1135   1.459   .     S
C1133  O1160   1.297   .     A
C1136  C1137   1.386   .     A
C1136  H1148   1.083   .     S
C1137  C472    1.390   1_556 S
C1137  H484    1.083   1_556 S
C1138  H1149   1.077   .     S
Cu1139 O1156   1.961   .     S
Cu1139 Cu1140  2.697   .     S
Cu1139 O1160   1.948   .     S
Cu1139 O1154   1.954   .     S
Cu1139 N1152   2.026   .     S
Cu1139 O1158   1.946   .     S
Cu1140 O1159   1.954   .     S
Cu1140 O1161   1.961   .     S
Cu1140 N1153   2.026   .     S
Cu1140 O1157   1.948   .     S
Cu1140 O1155   1.946   .     S
N1162  H1163   1.044   .     S
N1162  H1164   1.046   .     S
C1165  C1166   1.526   .     S
C1165  H1170   1.100   .     S
C1165  H1319   1.113   1_455 S
C1166  H1169   1.111   .     S
C1166  H1168   1.106   .     S
C1166  H1167   1.109   .     S
H1171  C1239   1.113   .     S
N1172  H1174   1.046   .     S
N1172  H1173   1.046   .     S
N1175  H1176   1.043   .     S
N1175  H1177   1.045   .     S
N1175  C468    1.433   1_556 S
C1178  H1184   1.111   .     S
C1178  H1183   1.103   .     S
C1178  C1179   1.528   .     S
C1179  H1182   1.111   .     S
C1179  H1181   1.110   .     S
C1179  H736    1.110   1_565 S
C1185  O1228   1.294   .     A
C1185  O1229   1.294   .     A
C1185  C1201   1.442   .     S
C1186  C1187   1.420   .     A
C1186  C522    1.429   1_556 S
C1186  C546    1.418   1_556 S
C1187  C1194   1.427   .     A
C1187  C1191   1.410   .     A
C1188  C1192   1.402   .     A
C1189  C1190   1.394   .     A
C1189  C522    1.425   1_556 S
C1189  C542    1.419   1_556 S
C1190  C1191   1.382   .     A
C1190  H1220   1.081   .     S
C1191  H1225   1.071   .     S
C1192  C1209   1.395   .     A
C1192  H1221   1.077   .     S
C1193  C1208   1.391   .     A
C1193  C1209   1.394   .     A
C1193  H1215   1.084   .     S
C1194  C1196   1.479   .     S
C1194  C1210   1.402   .     A
C1195  C1252   1.515   .     S
C1195  C1201   1.413   .     A
C1195  C753    1.393   1_565 S
C1196  O1230   1.310   .     A
C1196  O1231   1.297   .     A
C1197  H1216   1.084   .     S
C1197  C1198   1.395   .     A
C1198  C1199   1.407   .     A
C1198  C1206   1.438   .     S
C1199  N1236   1.433   .     S
C1200  H1217   1.085   .     S
C1200  C1201   1.397   .     A
C1200  C755    1.386   1_565 S
C1202  H1218   1.081   .     S
C1202  N1227   1.343   .     A
C1202  C1277   1.415   .     S
C1203  C1239   1.529   .     S
C1203  N1226   1.407   .     A
C1204  N1226   1.364   .     A
C1204  H1219   1.081   .     S
C1205  N1227   1.374   .     A
C1205  N1246   1.429   .     S
C1205  C1278   1.425   .     S
C1206  O1232   1.291   .     A
C1206  O1233   1.295   .     A
C1207  O1235   1.301   .     A
C1207  C1209   1.459   .     S
C1207  O1234   1.297   .     A
C1210  C1211   1.386   .     A
C1210  H1222   1.083   .     S
C1211  C546    1.390   1_556 S
C1211  H558    1.083   1_556 S
C1212  H1223   1.077   .     S
Cu1213 O1230   1.961   .     S
Cu1213 Cu1214  2.697   .     S
Cu1213 O1234   1.948   .     S
Cu1213 O1228   1.954   .     S
Cu1213 N1226   2.026   .     S
Cu1213 O1232   1.946   .     S
Cu1214 O1233   1.954   .     S
Cu1214 O1235   1.961   .     S
Cu1214 N1227   2.026   .     S
Cu1214 O1231   1.948   .     S
Cu1214 O1229   1.946   .     S
N1236  H1237   1.044   .     S
N1236  H1238   1.046   .     S
C1239  C1240   1.526   .     S
C1239  H1244   1.100   .     S
C1240  H1243   1.111   .     S
C1240  H1242   1.106   .     S
C1240  H1241   1.109   .     S
H1245  C1313   1.113   .     S
N1246  H1248   1.046   .     S
N1246  H1247   1.046   .     S
N1249  H1250   1.043   .     S
N1249  H1251   1.045   .     S
N1249  C542    1.433   1_556 S
C1252  H1258   1.111   .     S
C1252  H1257   1.103   .     S
C1252  C1253   1.528   .     S
C1253  H1256   1.111   .     S
C1253  H1255   1.110   .     S
C1253  H810    1.110   1_565 S
C1259  O1302   1.294   .     A
C1259  O1303   1.294   .     A
C1259  C1275   1.442   .     S
C1260  C1261   1.420   .     A
C1260  C596    1.429   1_556 S
C1260  C620    1.418   1_556 S
C1261  C1268   1.427   .     A
C1261  C1265   1.410   .     A
C1262  C1266   1.402   .     A
C1263  C1264   1.394   .     A
C1263  C596    1.425   1_556 S
C1263  C616    1.419   1_556 S
C1264  C1265   1.382   .     A
C1264  H1294   1.081   .     S
C1265  H1299   1.071   .     S
C1266  C1283   1.395   .     A
C1266  H1295   1.077   .     S
C1267  C1282   1.391   .     A
C1267  C1283   1.394   .     A
C1267  H1289   1.084   .     S
C1268  C1270   1.479   .     S
C1268  C1284   1.402   .     A
C1269  C1326   1.515   .     S
C1269  C1275   1.413   .     A
C1269  C827    1.393   1_565 S
C1270  O1304   1.310   .     A
C1270  O1305   1.297   .     A
C1271  H1290   1.084   .     S
C1271  C1272   1.395   .     A
C1272  C1273   1.407   .     A
C1272  C1280   1.438   .     S
C1273  N1310   1.433   .     S
C1274  H1291   1.085   .     S
C1274  C1275   1.397   .     A
C1274  C829    1.386   1_565 S
C1276  H1292   1.081   .     S
C1276  N1301   1.343   .     A
C1276  C1129   1.415   1_655 S
C1277  C1313   1.529   .     S
C1277  N1300   1.407   .     A
C1278  N1300   1.364   .     A
C1278  H1293   1.081   .     S
C1279  N1301   1.374   .     A
C1279  N1320   1.429   .     S
C1279  C1130   1.425   1_655 S
C1280  O1306   1.291   .     A
C1280  O1307   1.295   .     A
C1281  O1309   1.301   .     A
C1281  C1283   1.459   .     S
C1281  O1308   1.297   .     A
C1284  C1285   1.386   .     A
C1284  H1296   1.083   .     S
C1285  C620    1.390   1_556 S
C1285  H632    1.083   1_556 S
C1286  H1297   1.077   .     S
Cu1287 O1304   1.961   .     S
Cu1287 Cu1288  2.697   .     S
Cu1287 O1308   1.948   .     S
Cu1287 O1302   1.954   .     S
Cu1287 N1300   2.026   .     S
Cu1287 O1306   1.946   .     S
Cu1288 O1307   1.954   .     S
Cu1288 O1309   1.961   .     S
Cu1288 N1301   2.026   .     S
Cu1288 O1305   1.948   .     S
Cu1288 O1303   1.946   .     S
N1310  H1311   1.044   .     S
N1310  H1312   1.046   .     S
C1313  C1314   1.526   .     S
C1313  H1318   1.100   .     S
C1314  H1317   1.111   .     S
C1314  H1316   1.106   .     S
C1314  H1315   1.109   .     S
H1319  C1165   1.113   1_655 S
N1320  H1322   1.046   .     S
N1320  H1321   1.046   .     S
N1323  H1324   1.043   .     S
N1323  H1325   1.045   .     S
N1323  C616    1.433   1_556 S
C1326  H1332   1.111   .     S
C1326  H1331   1.103   .     S
C1326  C1327   1.528   .     S
C1327  H1330   1.111   .     S
C1327  H1329   1.110   .     S
C1327  H884    1.110   1_565 S
