data_str_m3_o2_o5_pcu_sym.88
_audit_creation_date              2020-01-03
_audit_creation_method            'Materials Studio'
_symmetry_space_group_name_H-M    'P1'
_symmetry_Int_Tables_number       1
_symmetry_cell_setting            triclinic
loop_
_symmetry_equiv_pos_as_xyz
  x,y,z
_cell_length_a                    30.0458
_cell_length_b                    28.5461
_cell_length_c                    26.7016
_cell_angle_alpha                 90.1316
_cell_angle_beta                  91.1876
_cell_angle_gamma                 89.9590
loop_
_atom_site_label
_atom_site_type_symbol
_atom_site_fract_x
_atom_site_fract_y
_atom_site_fract_z
_atom_site_U_iso_or_equiv
_atom_site_adp_type
_atom_site_occupancy
C1     C     0.16354   0.25003   0.16762   0.00000  Uiso   1.00
C2     C     0.23019   0.44739   0.12693   0.00000  Uiso   1.00
C3     C     0.24993   0.24996   0.07293   0.00000  Uiso   1.00
C4     C     0.25012   0.25003   0.26041   0.00000  Uiso   1.00
C5     C     0.25014   0.02690   0.16612   0.00000  Uiso   1.00
C6     C     0.25007   0.47360   0.16613   0.00000  Uiso   1.00
C7     C     0.25002   0.24995   0.02181   0.00000  Uiso   1.00
C8     C     0.25010   0.25004   0.31153   0.00000  Uiso   1.00
C9     C     0.04421   0.29058   0.15587   0.00000  Uiso   1.00
C10    C     0.45000   0.23379   0.11908   0.00000  Uiso   1.00
C11    C     0.45447   0.26206   0.20512   0.00000  Uiso   1.00
C12    C     0.33572   0.24988   0.16675   0.00000  Uiso   1.00
C13    C     0.04497   0.20678   0.16925   0.00000  Uiso   1.00
C14    C     0.09013   0.29219   0.16022   0.00000  Uiso   1.00
C15    C     0.40394   0.23412   0.12076   0.00000  Uiso   1.00
C16    C     0.40858   0.26217   0.20757   0.00000  Uiso   1.00
C17    C     0.09092   0.20718   0.17429   0.00000  Uiso   1.00
C18    C     0.11459   0.24992   0.16776   0.00000  Uiso   1.00
C19    C     0.38330   0.24922   0.16489   0.00000  Uiso   1.00
C20    C     0.02222   0.24816   0.15975   0.00000  Uiso   1.00
C21    C     0.47470   0.24822   0.16101   0.00000  Uiso   1.00
C22    C     0.19091   0.12703   0.10292   0.00000  Uiso   1.00
C23    C     0.22081   0.10220   0.13622   0.00000  Uiso   1.00
C24    C     0.29283   0.37526   0.24563   0.00000  Uiso   1.00
C25    C     0.31034   0.12698   0.22886   0.00000  Uiso   1.00
C26    C     0.20590   0.37396   0.08852   0.00000  Uiso   1.00
C27    C     0.10979   0.33837   0.15938   0.00000  Uiso   1.00
C28    C     0.37854   0.21835   0.07734   0.00000  Uiso   1.00
C29    C     0.38849   0.27261   0.25497   0.00000  Uiso   1.00
C30    C     0.11166   0.16361   0.18957   0.00000  Uiso   1.00
C31    C     0.27037   0.39855   0.20479   0.00000  Uiso   1.00
C32    C     0.27960   0.10216   0.19645   0.00000  Uiso   1.00
C33    C     0.22956   0.39803   0.12825   0.00000  Uiso   1.00
C34    C     0.21972   0.05289   0.13636   0.00000  Uiso   1.00
C35    C     0.26977   0.44785   0.20559   0.00000  Uiso   1.00
C36    C     0.28071   0.05285   0.19590   0.00000  Uiso   1.00
H37    H     0.02518   0.32263   0.15070   0.00000  Uiso   1.00
H38    H     0.46666   0.22251   0.08547   0.00000  Uiso   1.00
H39    H     0.47462   0.27192   0.23766   0.00000  Uiso   1.00
H40    H     0.02655   0.17453   0.17464   0.00000  Uiso   1.00
H41    H     0.19476   0.03549   0.11330   0.00000  Uiso   1.00
H42    H     0.28449   0.46553   0.23772   0.00000  Uiso   1.00
H43    H     0.30594   0.03543   0.21851   0.00000  Uiso   1.00
H44    H     0.21515   0.46472   0.09484   0.00000  Uiso   1.00
N45    N     0.25000   0.12623   0.16667   0.00000  Uiso   1.00
N46    N     0.12796   0.12868   0.20208   0.00000  Uiso   1.00
N47    N     0.25000   0.37376   0.16667   0.00000  Uiso   1.00
N48    N     0.16681   0.14678   0.07596   0.00000  Uiso   1.00
N49    N     0.31098   0.35746   0.27913   0.00000  Uiso   1.00
N50    N     0.33513   0.14673   0.25509   0.00000  Uiso   1.00
N51    N     0.18652   0.35518   0.05638   0.00000  Uiso   1.00
N52    N     0.12493   0.37564   0.15914   0.00000  Uiso   1.00
N53    N     0.35817   0.20550   0.04271   0.00000  Uiso   1.00
N54    N     0.37276   0.28054   0.29323   0.00000  Uiso   1.00
O55    O     0.18453   0.28974   0.16667   0.00000  Uiso   1.00
O56    O     0.31547   0.21026   0.16666   0.00000  Uiso   1.00
O57    O     0.31547   0.28974   0.16666   0.00000  Uiso   1.00
O58    O     0.18453   0.21026   0.16667   0.00000  Uiso   1.00
O59    O     0.25000   0.28973   0.09511   0.00000  Uiso   1.00
O60    O     0.25000   0.21027   0.23822   0.00000  Uiso   1.00
O61    O     0.25000   0.28973   0.23822   0.00000  Uiso   1.00
O62    O     0.25000   0.21027   0.09511   0.00000  Uiso   1.00
Zn63   Zn    0.25000   0.30307   0.16667   0.00000  Uiso   1.00
Zn64   Zn    0.25000   0.19693   0.16667   0.00000  Uiso   1.00
C65    C     0.66354   0.25003   0.16762   0.00000  Uiso   1.00
C66    C     0.73019   0.44739   0.12693   0.00000  Uiso   1.00
C67    C     0.74993   0.24996   0.07293   0.00000  Uiso   1.00
C68    C     0.75012   0.25003   0.26041   0.00000  Uiso   1.00
C69    C     0.75014   0.02690   0.16612   0.00000  Uiso   1.00
C70    C     0.75007   0.47360   0.16613   0.00000  Uiso   1.00
C71    C     0.75002   0.24995   0.02181   0.00000  Uiso   1.00
C72    C     0.75010   0.25004   0.31153   0.00000  Uiso   1.00
C73    C     0.54421   0.29058   0.15587   0.00000  Uiso   1.00
C74    C     0.95000   0.23379   0.11908   0.00000  Uiso   1.00
C75    C     0.95447   0.26206   0.20512   0.00000  Uiso   1.00
C76    C     0.83572   0.24988   0.16675   0.00000  Uiso   1.00
C77    C     0.54497   0.20678   0.16925   0.00000  Uiso   1.00
C78    C     0.59013   0.29219   0.16022   0.00000  Uiso   1.00
C79    C     0.90394   0.23412   0.12076   0.00000  Uiso   1.00
C80    C     0.90858   0.26217   0.20757   0.00000  Uiso   1.00
C81    C     0.59092   0.20718   0.17429   0.00000  Uiso   1.00
C82    C     0.61459   0.24992   0.16776   0.00000  Uiso   1.00
C83    C     0.88330   0.24922   0.16489   0.00000  Uiso   1.00
C84    C     0.52222   0.24816   0.15975   0.00000  Uiso   1.00
C85    C     0.97470   0.24822   0.16101   0.00000  Uiso   1.00
C86    C     0.69091   0.12703   0.10292   0.00000  Uiso   1.00
C87    C     0.72081   0.10220   0.13622   0.00000  Uiso   1.00
C88    C     0.79283   0.37526   0.24563   0.00000  Uiso   1.00
C89    C     0.81034   0.12698   0.22886   0.00000  Uiso   1.00
C90    C     0.70590   0.37396   0.08852   0.00000  Uiso   1.00
C91    C     0.60979   0.33837   0.15938   0.00000  Uiso   1.00
C92    C     0.87854   0.21835   0.07734   0.00000  Uiso   1.00
C93    C     0.88849   0.27261   0.25497   0.00000  Uiso   1.00
C94    C     0.61166   0.16361   0.18957   0.00000  Uiso   1.00
C95    C     0.77037   0.39855   0.20479   0.00000  Uiso   1.00
C96    C     0.77960   0.10216   0.19645   0.00000  Uiso   1.00
C97    C     0.72956   0.39803   0.12825   0.00000  Uiso   1.00
C98    C     0.71972   0.05289   0.13636   0.00000  Uiso   1.00
C99    C     0.76977   0.44785   0.20559   0.00000  Uiso   1.00
C100   C     0.78071   0.05285   0.19590   0.00000  Uiso   1.00
H101   H     0.52518   0.32263   0.15070   0.00000  Uiso   1.00
H102   H     0.96666   0.22251   0.08547   0.00000  Uiso   1.00
H103   H     0.97462   0.27192   0.23766   0.00000  Uiso   1.00
H104   H     0.52655   0.17453   0.17464   0.00000  Uiso   1.00
H105   H     0.69476   0.03549   0.11330   0.00000  Uiso   1.00
H106   H     0.78449   0.46553   0.23772   0.00000  Uiso   1.00
H107   H     0.80594   0.03543   0.21851   0.00000  Uiso   1.00
H108   H     0.71515   0.46472   0.09484   0.00000  Uiso   1.00
N109   N     0.75000   0.12623   0.16667   0.00000  Uiso   1.00
N110   N     0.62796   0.12868   0.20208   0.00000  Uiso   1.00
N111   N     0.75000   0.37376   0.16667   0.00000  Uiso   1.00
N112   N     0.66681   0.14678   0.07596   0.00000  Uiso   1.00
N113   N     0.81098   0.35746   0.27913   0.00000  Uiso   1.00
N114   N     0.83513   0.14673   0.25509   0.00000  Uiso   1.00
N115   N     0.68652   0.35518   0.05638   0.00000  Uiso   1.00
N116   N     0.62493   0.37564   0.15914   0.00000  Uiso   1.00
N117   N     0.85817   0.20550   0.04271   0.00000  Uiso   1.00
N118   N     0.87276   0.28054   0.29323   0.00000  Uiso   1.00
O119   O     0.68453   0.28974   0.16667   0.00000  Uiso   1.00
O120   O     0.81547   0.21026   0.16666   0.00000  Uiso   1.00
O121   O     0.81547   0.28974   0.16666   0.00000  Uiso   1.00
O122   O     0.68453   0.21026   0.16667   0.00000  Uiso   1.00
O123   O     0.75000   0.28973   0.09511   0.00000  Uiso   1.00
O124   O     0.75000   0.21027   0.23822   0.00000  Uiso   1.00
O125   O     0.75000   0.28973   0.23822   0.00000  Uiso   1.00
O126   O     0.75000   0.21027   0.09511   0.00000  Uiso   1.00
Zn127  Zn    0.75000   0.30307   0.16667   0.00000  Uiso   1.00
Zn128  Zn    0.75000   0.19693   0.16667   0.00000  Uiso   1.00
C129   C     0.16354   0.75003   0.16762   0.00000  Uiso   1.00
C130   C     0.23019   0.94739   0.12693   0.00000  Uiso   1.00
C131   C     0.24993   0.74996   0.07293   0.00000  Uiso   1.00
C132   C     0.25012   0.75003   0.26041   0.00000  Uiso   1.00
C133   C     0.25014   0.52690   0.16612   0.00000  Uiso   1.00
C134   C     0.25007   0.97360   0.16613   0.00000  Uiso   1.00
C135   C     0.25002   0.74995   0.02181   0.00000  Uiso   1.00
C136   C     0.25010   0.75004   0.31153   0.00000  Uiso   1.00
C137   C     0.04421   0.79058   0.15587   0.00000  Uiso   1.00
C138   C     0.45000   0.73379   0.11908   0.00000  Uiso   1.00
C139   C     0.45447   0.76206   0.20512   0.00000  Uiso   1.00
C140   C     0.33572   0.74988   0.16675   0.00000  Uiso   1.00
C141   C     0.04497   0.70678   0.16925   0.00000  Uiso   1.00
C142   C     0.09013   0.79219   0.16022   0.00000  Uiso   1.00
C143   C     0.40394   0.73412   0.12076   0.00000  Uiso   1.00
C144   C     0.40858   0.76217   0.20757   0.00000  Uiso   1.00
C145   C     0.09092   0.70718   0.17429   0.00000  Uiso   1.00
C146   C     0.11459   0.74992   0.16776   0.00000  Uiso   1.00
C147   C     0.38330   0.74922   0.16489   0.00000  Uiso   1.00
C148   C     0.02222   0.74816   0.15975   0.00000  Uiso   1.00
C149   C     0.47470   0.74822   0.16101   0.00000  Uiso   1.00
C150   C     0.19091   0.62703   0.10292   0.00000  Uiso   1.00
C151   C     0.22081   0.60220   0.13622   0.00000  Uiso   1.00
C152   C     0.29283   0.87526   0.24563   0.00000  Uiso   1.00
C153   C     0.31034   0.62698   0.22886   0.00000  Uiso   1.00
C154   C     0.20590   0.87396   0.08852   0.00000  Uiso   1.00
C155   C     0.10979   0.83837   0.15938   0.00000  Uiso   1.00
C156   C     0.37854   0.71835   0.07734   0.00000  Uiso   1.00
C157   C     0.38849   0.77261   0.25497   0.00000  Uiso   1.00
C158   C     0.11166   0.66361   0.18957   0.00000  Uiso   1.00
C159   C     0.27037   0.89855   0.20479   0.00000  Uiso   1.00
C160   C     0.27960   0.60216   0.19645   0.00000  Uiso   1.00
C161   C     0.22956   0.89803   0.12825   0.00000  Uiso   1.00
C162   C     0.21972   0.55289   0.13636   0.00000  Uiso   1.00
C163   C     0.26977   0.94785   0.20559   0.00000  Uiso   1.00
C164   C     0.28071   0.55285   0.19590   0.00000  Uiso   1.00
H165   H     0.02518   0.82263   0.15070   0.00000  Uiso   1.00
H166   H     0.46666   0.72251   0.08547   0.00000  Uiso   1.00
H167   H     0.47462   0.77192   0.23766   0.00000  Uiso   1.00
H168   H     0.02655   0.67453   0.17464   0.00000  Uiso   1.00
H169   H     0.19476   0.53549   0.11330   0.00000  Uiso   1.00
H170   H     0.28449   0.96553   0.23772   0.00000  Uiso   1.00
H171   H     0.30594   0.53543   0.21851   0.00000  Uiso   1.00
H172   H     0.21515   0.96472   0.09484   0.00000  Uiso   1.00
N173   N     0.25000   0.62623   0.16667   0.00000  Uiso   1.00
N174   N     0.12796   0.62868   0.20208   0.00000  Uiso   1.00
N175   N     0.25000   0.87376   0.16667   0.00000  Uiso   1.00
N176   N     0.16681   0.64678   0.07596   0.00000  Uiso   1.00
N177   N     0.31098   0.85746   0.27913   0.00000  Uiso   1.00
N178   N     0.33513   0.64673   0.25509   0.00000  Uiso   1.00
N179   N     0.18652   0.85518   0.05638   0.00000  Uiso   1.00
N180   N     0.12493   0.87564   0.15914   0.00000  Uiso   1.00
N181   N     0.35817   0.70550   0.04271   0.00000  Uiso   1.00
N182   N     0.37276   0.78054   0.29323   0.00000  Uiso   1.00
O183   O     0.18453   0.78974   0.16667   0.00000  Uiso   1.00
O184   O     0.31547   0.71026   0.16666   0.00000  Uiso   1.00
O185   O     0.31547   0.78974   0.16666   0.00000  Uiso   1.00
O186   O     0.18453   0.71026   0.16667   0.00000  Uiso   1.00
O187   O     0.25000   0.78973   0.09511   0.00000  Uiso   1.00
O188   O     0.25000   0.71027   0.23822   0.00000  Uiso   1.00
O189   O     0.25000   0.78973   0.23822   0.00000  Uiso   1.00
O190   O     0.25000   0.71027   0.09511   0.00000  Uiso   1.00
Zn191  Zn    0.25000   0.80307   0.16667   0.00000  Uiso   1.00
Zn192  Zn    0.25000   0.69693   0.16667   0.00000  Uiso   1.00
C193   C     0.66354   0.75003   0.16762   0.00000  Uiso   1.00
C194   C     0.73019   0.94739   0.12693   0.00000  Uiso   1.00
C195   C     0.74993   0.74996   0.07293   0.00000  Uiso   1.00
C196   C     0.75012   0.75003   0.26041   0.00000  Uiso   1.00
C197   C     0.75014   0.52690   0.16612   0.00000  Uiso   1.00
C198   C     0.75007   0.97360   0.16613   0.00000  Uiso   1.00
C199   C     0.75002   0.74995   0.02181   0.00000  Uiso   1.00
C200   C     0.75010   0.75004   0.31153   0.00000  Uiso   1.00
C201   C     0.54421   0.79058   0.15587   0.00000  Uiso   1.00
C202   C     0.95000   0.73379   0.11908   0.00000  Uiso   1.00
C203   C     0.95447   0.76206   0.20512   0.00000  Uiso   1.00
C204   C     0.83572   0.74988   0.16675   0.00000  Uiso   1.00
C205   C     0.54497   0.70678   0.16925   0.00000  Uiso   1.00
C206   C     0.59013   0.79219   0.16022   0.00000  Uiso   1.00
C207   C     0.90394   0.73412   0.12076   0.00000  Uiso   1.00
C208   C     0.90858   0.76217   0.20757   0.00000  Uiso   1.00
C209   C     0.59092   0.70718   0.17429   0.00000  Uiso   1.00
C210   C     0.61459   0.74992   0.16776   0.00000  Uiso   1.00
C211   C     0.88330   0.74922   0.16489   0.00000  Uiso   1.00
C212   C     0.52222   0.74816   0.15975   0.00000  Uiso   1.00
C213   C     0.97470   0.74822   0.16101   0.00000  Uiso   1.00
C214   C     0.69091   0.62703   0.10292   0.00000  Uiso   1.00
C215   C     0.72081   0.60220   0.13622   0.00000  Uiso   1.00
C216   C     0.79283   0.87526   0.24563   0.00000  Uiso   1.00
C217   C     0.81034   0.62698   0.22886   0.00000  Uiso   1.00
C218   C     0.70590   0.87396   0.08852   0.00000  Uiso   1.00
C219   C     0.60979   0.83837   0.15938   0.00000  Uiso   1.00
C220   C     0.87854   0.71835   0.07734   0.00000  Uiso   1.00
C221   C     0.88849   0.77261   0.25497   0.00000  Uiso   1.00
C222   C     0.61166   0.66361   0.18957   0.00000  Uiso   1.00
C223   C     0.77037   0.89855   0.20479   0.00000  Uiso   1.00
C224   C     0.77960   0.60216   0.19645   0.00000  Uiso   1.00
C225   C     0.72956   0.89803   0.12825   0.00000  Uiso   1.00
C226   C     0.71972   0.55289   0.13636   0.00000  Uiso   1.00
C227   C     0.76977   0.94785   0.20559   0.00000  Uiso   1.00
C228   C     0.78071   0.55285   0.19590   0.00000  Uiso   1.00
H229   H     0.52518   0.82263   0.15070   0.00000  Uiso   1.00
H230   H     0.96666   0.72251   0.08547   0.00000  Uiso   1.00
H231   H     0.97462   0.77192   0.23766   0.00000  Uiso   1.00
H232   H     0.52655   0.67453   0.17464   0.00000  Uiso   1.00
H233   H     0.69476   0.53549   0.11330   0.00000  Uiso   1.00
H234   H     0.78449   0.96553   0.23772   0.00000  Uiso   1.00
H235   H     0.80594   0.53543   0.21851   0.00000  Uiso   1.00
H236   H     0.71515   0.96472   0.09484   0.00000  Uiso   1.00
N237   N     0.75000   0.62623   0.16667   0.00000  Uiso   1.00
N238   N     0.62796   0.62868   0.20208   0.00000  Uiso   1.00
N239   N     0.75000   0.87376   0.16667   0.00000  Uiso   1.00
N240   N     0.66681   0.64678   0.07596   0.00000  Uiso   1.00
N241   N     0.81098   0.85746   0.27913   0.00000  Uiso   1.00
N242   N     0.83513   0.64673   0.25509   0.00000  Uiso   1.00
N243   N     0.68652   0.85518   0.05638   0.00000  Uiso   1.00
N244   N     0.62493   0.87564   0.15914   0.00000  Uiso   1.00
N245   N     0.85817   0.70550   0.04271   0.00000  Uiso   1.00
N246   N     0.87276   0.78054   0.29323   0.00000  Uiso   1.00
O247   O     0.68453   0.78974   0.16667   0.00000  Uiso   1.00
O248   O     0.81547   0.71026   0.16666   0.00000  Uiso   1.00
O249   O     0.81547   0.78974   0.16666   0.00000  Uiso   1.00
O250   O     0.68453   0.71026   0.16667   0.00000  Uiso   1.00
O251   O     0.75000   0.78973   0.09511   0.00000  Uiso   1.00
O252   O     0.75000   0.71027   0.23822   0.00000  Uiso   1.00
O253   O     0.75000   0.78973   0.23822   0.00000  Uiso   1.00
O254   O     0.75000   0.71027   0.09511   0.00000  Uiso   1.00
Zn255  Zn    0.75000   0.80307   0.16667   0.00000  Uiso   1.00
Zn256  Zn    0.75000   0.69693   0.16667   0.00000  Uiso   1.00
C257   C     0.16354   0.25003   0.50096   0.00000  Uiso   1.00
C258   C     0.23019   0.44739   0.46026   0.00000  Uiso   1.00
C259   C     0.24993   0.24996   0.40626   0.00000  Uiso   1.00
C260   C     0.25012   0.25003   0.59374   0.00000  Uiso   1.00
C261   C     0.25014   0.02690   0.49946   0.00000  Uiso   1.00
C262   C     0.25007   0.47360   0.49946   0.00000  Uiso   1.00
C263   C     0.25002   0.24995   0.35514   0.00000  Uiso   1.00
C264   C     0.25010   0.25004   0.64486   0.00000  Uiso   1.00
C265   C     0.04421   0.29058   0.48921   0.00000  Uiso   1.00
C266   C     0.45000   0.23379   0.45242   0.00000  Uiso   1.00
C267   C     0.45447   0.26206   0.53846   0.00000  Uiso   1.00
C268   C     0.33572   0.24988   0.50008   0.00000  Uiso   1.00
C269   C     0.04497   0.20678   0.50259   0.00000  Uiso   1.00
C270   C     0.09013   0.29219   0.49356   0.00000  Uiso   1.00
C271   C     0.40394   0.23412   0.45410   0.00000  Uiso   1.00
C272   C     0.40858   0.26217   0.54090   0.00000  Uiso   1.00
C273   C     0.09092   0.20718   0.50762   0.00000  Uiso   1.00
C274   C     0.11459   0.24992   0.50110   0.00000  Uiso   1.00
C275   C     0.38330   0.24922   0.49822   0.00000  Uiso   1.00
C276   C     0.02222   0.24816   0.49309   0.00000  Uiso   1.00
C277   C     0.47470   0.24822   0.49435   0.00000  Uiso   1.00
C278   C     0.19091   0.12703   0.43625   0.00000  Uiso   1.00
C279   C     0.22081   0.10220   0.46955   0.00000  Uiso   1.00
C280   C     0.29283   0.37526   0.57897   0.00000  Uiso   1.00
C281   C     0.31034   0.12698   0.56220   0.00000  Uiso   1.00
C282   C     0.20590   0.37396   0.42185   0.00000  Uiso   1.00
C283   C     0.10979   0.33837   0.49272   0.00000  Uiso   1.00
C284   C     0.37854   0.21835   0.41067   0.00000  Uiso   1.00
C285   C     0.38849   0.27261   0.58830   0.00000  Uiso   1.00
C286   C     0.11166   0.16361   0.52290   0.00000  Uiso   1.00
C287   C     0.27037   0.39855   0.53813   0.00000  Uiso   1.00
C288   C     0.27960   0.10216   0.52978   0.00000  Uiso   1.00
C289   C     0.22956   0.39803   0.46159   0.00000  Uiso   1.00
C290   C     0.21972   0.05289   0.46969   0.00000  Uiso   1.00
C291   C     0.26977   0.44785   0.53893   0.00000  Uiso   1.00
C292   C     0.28071   0.05285   0.52924   0.00000  Uiso   1.00
H293   H     0.02518   0.32263   0.48404   0.00000  Uiso   1.00
H294   H     0.46666   0.22251   0.41880   0.00000  Uiso   1.00
H295   H     0.47462   0.27192   0.57100   0.00000  Uiso   1.00
H296   H     0.02655   0.17453   0.50797   0.00000  Uiso   1.00
H297   H     0.19476   0.03549   0.44663   0.00000  Uiso   1.00
H298   H     0.28449   0.46553   0.57106   0.00000  Uiso   1.00
H299   H     0.30594   0.03543   0.55184   0.00000  Uiso   1.00
H300   H     0.21515   0.46472   0.42817   0.00000  Uiso   1.00
N301   N     0.25000   0.12623   0.50000   0.00000  Uiso   1.00
N302   N     0.12796   0.12868   0.53541   0.00000  Uiso   1.00
N303   N     0.25000   0.37376   0.50000   0.00000  Uiso   1.00
N304   N     0.16681   0.14678   0.40929   0.00000  Uiso   1.00
N305   N     0.31098   0.35746   0.61247   0.00000  Uiso   1.00
N306   N     0.33513   0.14673   0.58842   0.00000  Uiso   1.00
N307   N     0.18652   0.35518   0.38972   0.00000  Uiso   1.00
N308   N     0.12493   0.37564   0.49247   0.00000  Uiso   1.00
N309   N     0.35817   0.20550   0.37604   0.00000  Uiso   1.00
N310   N     0.37276   0.28054   0.62656   0.00000  Uiso   1.00
O311   O     0.18453   0.28974   0.50000   0.00000  Uiso   1.00
O312   O     0.31547   0.21026   0.50000   0.00000  Uiso   1.00
O313   O     0.31547   0.28974   0.50000   0.00000  Uiso   1.00
O314   O     0.18453   0.21026   0.50000   0.00000  Uiso   1.00
O315   O     0.25000   0.28973   0.42845   0.00000  Uiso   1.00
O316   O     0.25000   0.21027   0.57155   0.00000  Uiso   1.00
O317   O     0.25000   0.28973   0.57155   0.00000  Uiso   1.00
O318   O     0.25000   0.21027   0.42845   0.00000  Uiso   1.00
Zn319  Zn    0.25000   0.30307   0.50000   0.00000  Uiso   1.00
Zn320  Zn    0.25000   0.19693   0.50000   0.00000  Uiso   1.00
C321   C     0.66354   0.25003   0.50096   0.00000  Uiso   1.00
C322   C     0.73019   0.44739   0.46026   0.00000  Uiso   1.00
C323   C     0.74993   0.24996   0.40626   0.00000  Uiso   1.00
C324   C     0.75012   0.25003   0.59374   0.00000  Uiso   1.00
C325   C     0.75014   0.02690   0.49946   0.00000  Uiso   1.00
C326   C     0.75007   0.47360   0.49946   0.00000  Uiso   1.00
C327   C     0.75002   0.24995   0.35514   0.00000  Uiso   1.00
C328   C     0.75010   0.25004   0.64486   0.00000  Uiso   1.00
C329   C     0.54421   0.29058   0.48921   0.00000  Uiso   1.00
C330   C     0.95000   0.23379   0.45242   0.00000  Uiso   1.00
C331   C     0.95447   0.26206   0.53846   0.00000  Uiso   1.00
C332   C     0.83572   0.24988   0.50008   0.00000  Uiso   1.00
C333   C     0.54497   0.20678   0.50259   0.00000  Uiso   1.00
C334   C     0.59013   0.29219   0.49356   0.00000  Uiso   1.00
C335   C     0.90394   0.23412   0.45410   0.00000  Uiso   1.00
C336   C     0.90858   0.26217   0.54090   0.00000  Uiso   1.00
C337   C     0.59092   0.20718   0.50762   0.00000  Uiso   1.00
C338   C     0.61459   0.24992   0.50110   0.00000  Uiso   1.00
C339   C     0.88330   0.24922   0.49822   0.00000  Uiso   1.00
C340   C     0.52222   0.24816   0.49309   0.00000  Uiso   1.00
C341   C     0.97470   0.24822   0.49435   0.00000  Uiso   1.00
C342   C     0.69091   0.12703   0.43625   0.00000  Uiso   1.00
C343   C     0.72081   0.10220   0.46955   0.00000  Uiso   1.00
C344   C     0.79283   0.37526   0.57897   0.00000  Uiso   1.00
C345   C     0.81034   0.12698   0.56220   0.00000  Uiso   1.00
C346   C     0.70590   0.37396   0.42185   0.00000  Uiso   1.00
C347   C     0.60979   0.33837   0.49272   0.00000  Uiso   1.00
C348   C     0.87854   0.21835   0.41067   0.00000  Uiso   1.00
C349   C     0.88849   0.27261   0.58830   0.00000  Uiso   1.00
C350   C     0.61166   0.16361   0.52290   0.00000  Uiso   1.00
C351   C     0.77037   0.39855   0.53813   0.00000  Uiso   1.00
C352   C     0.77960   0.10216   0.52978   0.00000  Uiso   1.00
C353   C     0.72956   0.39803   0.46159   0.00000  Uiso   1.00
C354   C     0.71972   0.05289   0.46969   0.00000  Uiso   1.00
C355   C     0.76977   0.44785   0.53893   0.00000  Uiso   1.00
C356   C     0.78071   0.05285   0.52924   0.00000  Uiso   1.00
H357   H     0.52518   0.32263   0.48404   0.00000  Uiso   1.00
H358   H     0.96666   0.22251   0.41880   0.00000  Uiso   1.00
H359   H     0.97462   0.27192   0.57100   0.00000  Uiso   1.00
H360   H     0.52655   0.17453   0.50797   0.00000  Uiso   1.00
H361   H     0.69476   0.03549   0.44663   0.00000  Uiso   1.00
H362   H     0.78449   0.46553   0.57106   0.00000  Uiso   1.00
H363   H     0.80594   0.03543   0.55184   0.00000  Uiso   1.00
H364   H     0.71515   0.46472   0.42817   0.00000  Uiso   1.00
N365   N     0.75000   0.12623   0.50000   0.00000  Uiso   1.00
N366   N     0.62796   0.12868   0.53541   0.00000  Uiso   1.00
N367   N     0.75000   0.37376   0.50000   0.00000  Uiso   1.00
N368   N     0.66681   0.14678   0.40929   0.00000  Uiso   1.00
N369   N     0.81098   0.35746   0.61247   0.00000  Uiso   1.00
N370   N     0.83513   0.14673   0.58842   0.00000  Uiso   1.00
N371   N     0.68652   0.35518   0.38972   0.00000  Uiso   1.00
N372   N     0.62493   0.37564   0.49247   0.00000  Uiso   1.00
N373   N     0.85817   0.20550   0.37604   0.00000  Uiso   1.00
N374   N     0.87276   0.28054   0.62656   0.00000  Uiso   1.00
O375   O     0.68453   0.28974   0.50000   0.00000  Uiso   1.00
O376   O     0.81547   0.21026   0.50000   0.00000  Uiso   1.00
O377   O     0.81547   0.28974   0.50000   0.00000  Uiso   1.00
O378   O     0.68453   0.21026   0.50000   0.00000  Uiso   1.00
O379   O     0.75000   0.28973   0.42845   0.00000  Uiso   1.00
O380   O     0.75000   0.21027   0.57155   0.00000  Uiso   1.00
O381   O     0.75000   0.28973   0.57155   0.00000  Uiso   1.00
O382   O     0.75000   0.21027   0.42845   0.00000  Uiso   1.00
Zn383  Zn    0.75000   0.30307   0.50000   0.00000  Uiso   1.00
Zn384  Zn    0.75000   0.19693   0.50000   0.00000  Uiso   1.00
C385   C     0.16354   0.75003   0.50096   0.00000  Uiso   1.00
C386   C     0.23019   0.94739   0.46026   0.00000  Uiso   1.00
C387   C     0.24993   0.74996   0.40626   0.00000  Uiso   1.00
C388   C     0.25012   0.75003   0.59374   0.00000  Uiso   1.00
C389   C     0.25014   0.52690   0.49946   0.00000  Uiso   1.00
C390   C     0.25007   0.97360   0.49946   0.00000  Uiso   1.00
C391   C     0.25002   0.74995   0.35514   0.00000  Uiso   1.00
C392   C     0.25010   0.75004   0.64486   0.00000  Uiso   1.00
C393   C     0.04421   0.79058   0.48921   0.00000  Uiso   1.00
C394   C     0.45000   0.73379   0.45242   0.00000  Uiso   1.00
C395   C     0.45447   0.76206   0.53846   0.00000  Uiso   1.00
C396   C     0.33572   0.74988   0.50008   0.00000  Uiso   1.00
C397   C     0.04497   0.70678   0.50259   0.00000  Uiso   1.00
C398   C     0.09013   0.79219   0.49356   0.00000  Uiso   1.00
C399   C     0.40394   0.73412   0.45410   0.00000  Uiso   1.00
C400   C     0.40858   0.76217   0.54090   0.00000  Uiso   1.00
C401   C     0.09092   0.70718   0.50762   0.00000  Uiso   1.00
C402   C     0.11459   0.74992   0.50110   0.00000  Uiso   1.00
C403   C     0.38330   0.74922   0.49822   0.00000  Uiso   1.00
C404   C     0.02222   0.74816   0.49309   0.00000  Uiso   1.00
C405   C     0.47470   0.74822   0.49435   0.00000  Uiso   1.00
C406   C     0.19091   0.62703   0.43625   0.00000  Uiso   1.00
C407   C     0.22081   0.60220   0.46955   0.00000  Uiso   1.00
C408   C     0.29283   0.87526   0.57897   0.00000  Uiso   1.00
C409   C     0.31034   0.62698   0.56220   0.00000  Uiso   1.00
C410   C     0.20590   0.87396   0.42185   0.00000  Uiso   1.00
C411   C     0.10979   0.83837   0.49272   0.00000  Uiso   1.00
C412   C     0.37854   0.71835   0.41067   0.00000  Uiso   1.00
C413   C     0.38849   0.77261   0.58830   0.00000  Uiso   1.00
C414   C     0.11166   0.66361   0.52290   0.00000  Uiso   1.00
C415   C     0.27037   0.89855   0.53813   0.00000  Uiso   1.00
C416   C     0.27960   0.60216   0.52978   0.00000  Uiso   1.00
C417   C     0.22956   0.89803   0.46159   0.00000  Uiso   1.00
C418   C     0.21972   0.55289   0.46969   0.00000  Uiso   1.00
C419   C     0.26977   0.94785   0.53893   0.00000  Uiso   1.00
C420   C     0.28071   0.55285   0.52924   0.00000  Uiso   1.00
H421   H     0.02518   0.82263   0.48404   0.00000  Uiso   1.00
H422   H     0.46666   0.72251   0.41880   0.00000  Uiso   1.00
H423   H     0.47462   0.77192   0.57100   0.00000  Uiso   1.00
H424   H     0.02655   0.67453   0.50797   0.00000  Uiso   1.00
H425   H     0.19476   0.53549   0.44663   0.00000  Uiso   1.00
H426   H     0.28449   0.96553   0.57106   0.00000  Uiso   1.00
H427   H     0.30594   0.53543   0.55184   0.00000  Uiso   1.00
H428   H     0.21515   0.96472   0.42817   0.00000  Uiso   1.00
N429   N     0.25000   0.62623   0.50000   0.00000  Uiso   1.00
N430   N     0.12796   0.62868   0.53541   0.00000  Uiso   1.00
N431   N     0.25000   0.87376   0.50000   0.00000  Uiso   1.00
N432   N     0.16681   0.64678   0.40929   0.00000  Uiso   1.00
N433   N     0.31098   0.85746   0.61247   0.00000  Uiso   1.00
N434   N     0.33513   0.64673   0.58842   0.00000  Uiso   1.00
N435   N     0.18652   0.85518   0.38972   0.00000  Uiso   1.00
N436   N     0.12493   0.87564   0.49247   0.00000  Uiso   1.00
N437   N     0.35817   0.70550   0.37604   0.00000  Uiso   1.00
N438   N     0.37276   0.78054   0.62656   0.00000  Uiso   1.00
O439   O     0.18453   0.78974   0.50000   0.00000  Uiso   1.00
O440   O     0.31547   0.71026   0.50000   0.00000  Uiso   1.00
O441   O     0.31547   0.78974   0.50000   0.00000  Uiso   1.00
O442   O     0.18453   0.71026   0.50000   0.00000  Uiso   1.00
O443   O     0.25000   0.78973   0.42845   0.00000  Uiso   1.00
O444   O     0.25000   0.71027   0.57155   0.00000  Uiso   1.00
O445   O     0.25000   0.78973   0.57155   0.00000  Uiso   1.00
O446   O     0.25000   0.71027   0.42845   0.00000  Uiso   1.00
Zn447  Zn    0.25000   0.80307   0.50000   0.00000  Uiso   1.00
Zn448  Zn    0.25000   0.69693   0.50000   0.00000  Uiso   1.00
C449   C     0.66354   0.75003   0.50096   0.00000  Uiso   1.00
C450   C     0.73019   0.94739   0.46026   0.00000  Uiso   1.00
C451   C     0.74993   0.74996   0.40626   0.00000  Uiso   1.00
C452   C     0.75012   0.75003   0.59374   0.00000  Uiso   1.00
C453   C     0.75014   0.52690   0.49946   0.00000  Uiso   1.00
C454   C     0.75007   0.97360   0.49946   0.00000  Uiso   1.00
C455   C     0.75002   0.74995   0.35514   0.00000  Uiso   1.00
C456   C     0.75010   0.75004   0.64486   0.00000  Uiso   1.00
C457   C     0.54421   0.79058   0.48921   0.00000  Uiso   1.00
C458   C     0.95000   0.73379   0.45242   0.00000  Uiso   1.00
C459   C     0.95447   0.76206   0.53846   0.00000  Uiso   1.00
C460   C     0.83572   0.74988   0.50008   0.00000  Uiso   1.00
C461   C     0.54497   0.70678   0.50259   0.00000  Uiso   1.00
C462   C     0.59013   0.79219   0.49356   0.00000  Uiso   1.00
C463   C     0.90394   0.73412   0.45410   0.00000  Uiso   1.00
C464   C     0.90858   0.76217   0.54090   0.00000  Uiso   1.00
C465   C     0.59092   0.70718   0.50762   0.00000  Uiso   1.00
C466   C     0.61459   0.74992   0.50110   0.00000  Uiso   1.00
C467   C     0.88330   0.74922   0.49822   0.00000  Uiso   1.00
C468   C     0.52222   0.74816   0.49309   0.00000  Uiso   1.00
C469   C     0.97470   0.74822   0.49435   0.00000  Uiso   1.00
C470   C     0.69091   0.62703   0.43625   0.00000  Uiso   1.00
C471   C     0.72081   0.60220   0.46955   0.00000  Uiso   1.00
C472   C     0.79283   0.87526   0.57897   0.00000  Uiso   1.00
C473   C     0.81034   0.62698   0.56220   0.00000  Uiso   1.00
C474   C     0.70590   0.87396   0.42185   0.00000  Uiso   1.00
C475   C     0.60979   0.83837   0.49272   0.00000  Uiso   1.00
C476   C     0.87854   0.71835   0.41067   0.00000  Uiso   1.00
C477   C     0.88849   0.77261   0.58830   0.00000  Uiso   1.00
C478   C     0.61166   0.66361   0.52290   0.00000  Uiso   1.00
C479   C     0.77037   0.89855   0.53813   0.00000  Uiso   1.00
C480   C     0.77960   0.60216   0.52978   0.00000  Uiso   1.00
C481   C     0.72956   0.89803   0.46159   0.00000  Uiso   1.00
C482   C     0.71972   0.55289   0.46969   0.00000  Uiso   1.00
C483   C     0.76977   0.94785   0.53893   0.00000  Uiso   1.00
C484   C     0.78071   0.55285   0.52924   0.00000  Uiso   1.00
H485   H     0.52518   0.82263   0.48404   0.00000  Uiso   1.00
H486   H     0.96666   0.72251   0.41880   0.00000  Uiso   1.00
H487   H     0.97462   0.77192   0.57100   0.00000  Uiso   1.00
H488   H     0.52655   0.67453   0.50797   0.00000  Uiso   1.00
H489   H     0.69476   0.53549   0.44663   0.00000  Uiso   1.00
H490   H     0.78449   0.96553   0.57106   0.00000  Uiso   1.00
H491   H     0.80594   0.53543   0.55184   0.00000  Uiso   1.00
H492   H     0.71515   0.96472   0.42817   0.00000  Uiso   1.00
N493   N     0.75000   0.62623   0.50000   0.00000  Uiso   1.00
N494   N     0.62796   0.62868   0.53541   0.00000  Uiso   1.00
N495   N     0.75000   0.87376   0.50000   0.00000  Uiso   1.00
N496   N     0.66681   0.64678   0.40929   0.00000  Uiso   1.00
N497   N     0.81098   0.85746   0.61247   0.00000  Uiso   1.00
N498   N     0.83513   0.64673   0.58842   0.00000  Uiso   1.00
N499   N     0.68652   0.85518   0.38972   0.00000  Uiso   1.00
N500   N     0.62493   0.87564   0.49247   0.00000  Uiso   1.00
N501   N     0.85817   0.70550   0.37604   0.00000  Uiso   1.00
N502   N     0.87276   0.78054   0.62656   0.00000  Uiso   1.00
O503   O     0.68453   0.78974   0.50000   0.00000  Uiso   1.00
O504   O     0.81547   0.71026   0.50000   0.00000  Uiso   1.00
O505   O     0.81547   0.78974   0.50000   0.00000  Uiso   1.00
O506   O     0.68453   0.71026   0.50000   0.00000  Uiso   1.00
O507   O     0.75000   0.78973   0.42845   0.00000  Uiso   1.00
O508   O     0.75000   0.71027   0.57155   0.00000  Uiso   1.00
O509   O     0.75000   0.78973   0.57155   0.00000  Uiso   1.00
O510   O     0.75000   0.71027   0.42845   0.00000  Uiso   1.00
Zn511  Zn    0.75000   0.80307   0.50000   0.00000  Uiso   1.00
Zn512  Zn    0.75000   0.69693   0.50000   0.00000  Uiso   1.00
C513   C     0.16354   0.25003   0.83429   0.00000  Uiso   1.00
C514   C     0.23019   0.44739   0.79359   0.00000  Uiso   1.00
C515   C     0.24993   0.24996   0.73960   0.00000  Uiso   1.00
C516   C     0.25012   0.25003   0.92707   0.00000  Uiso   1.00
C517   C     0.25014   0.02690   0.83279   0.00000  Uiso   1.00
C518   C     0.25007   0.47360   0.83279   0.00000  Uiso   1.00
C519   C     0.25002   0.24995   0.68848   0.00000  Uiso   1.00
C520   C     0.25010   0.25004   0.97819   0.00000  Uiso   1.00
C521   C     0.04421   0.29058   0.82254   0.00000  Uiso   1.00
C522   C     0.45000   0.23379   0.78575   0.00000  Uiso   1.00
C523   C     0.45447   0.26206   0.87179   0.00000  Uiso   1.00
C524   C     0.33572   0.24988   0.83342   0.00000  Uiso   1.00
C525   C     0.04497   0.20678   0.83592   0.00000  Uiso   1.00
C526   C     0.09013   0.29219   0.82689   0.00000  Uiso   1.00
C527   C     0.40394   0.23412   0.78743   0.00000  Uiso   1.00
C528   C     0.40858   0.26217   0.87424   0.00000  Uiso   1.00
C529   C     0.09092   0.20718   0.84096   0.00000  Uiso   1.00
C530   C     0.11459   0.24992   0.83443   0.00000  Uiso   1.00
C531   C     0.38330   0.24922   0.83156   0.00000  Uiso   1.00
C532   C     0.02222   0.24816   0.82642   0.00000  Uiso   1.00
C533   C     0.47470   0.24822   0.82768   0.00000  Uiso   1.00
C534   C     0.19091   0.12703   0.76959   0.00000  Uiso   1.00
C535   C     0.22081   0.10220   0.80289   0.00000  Uiso   1.00
C536   C     0.29283   0.37526   0.91230   0.00000  Uiso   1.00
C537   C     0.31034   0.12698   0.89553   0.00000  Uiso   1.00
C538   C     0.20590   0.37396   0.75518   0.00000  Uiso   1.00
C539   C     0.10979   0.33837   0.82605   0.00000  Uiso   1.00
C540   C     0.37854   0.21835   0.74400   0.00000  Uiso   1.00
C541   C     0.38849   0.27261   0.92163   0.00000  Uiso   1.00
C542   C     0.11166   0.16361   0.85623   0.00000  Uiso   1.00
C543   C     0.27037   0.39855   0.87146   0.00000  Uiso   1.00
C544   C     0.27960   0.10216   0.86311   0.00000  Uiso   1.00
C545   C     0.22956   0.39803   0.79492   0.00000  Uiso   1.00
C546   C     0.21972   0.05289   0.80302   0.00000  Uiso   1.00
C547   C     0.26977   0.44785   0.87226   0.00000  Uiso   1.00
C548   C     0.28071   0.05285   0.86257   0.00000  Uiso   1.00
H549   H     0.02518   0.32263   0.81737   0.00000  Uiso   1.00
H550   H     0.46666   0.22251   0.75213   0.00000  Uiso   1.00
H551   H     0.47462   0.27192   0.90433   0.00000  Uiso   1.00
H552   H     0.02655   0.17453   0.84131   0.00000  Uiso   1.00
H553   H     0.19476   0.03549   0.77996   0.00000  Uiso   1.00
H554   H     0.28449   0.46553   0.90439   0.00000  Uiso   1.00
H555   H     0.30594   0.03543   0.88517   0.00000  Uiso   1.00
H556   H     0.21515   0.46472   0.76150   0.00000  Uiso   1.00
N557   N     0.25000   0.12623   0.83333   0.00000  Uiso   1.00
N558   N     0.12796   0.12868   0.86875   0.00000  Uiso   1.00
N559   N     0.25000   0.37376   0.83333   0.00000  Uiso   1.00
N560   N     0.16681   0.14678   0.74262   0.00000  Uiso   1.00
N561   N     0.31098   0.35746   0.94580   0.00000  Uiso   1.00
N562   N     0.33513   0.14673   0.92175   0.00000  Uiso   1.00
N563   N     0.18652   0.35518   0.72305   0.00000  Uiso   1.00
N564   N     0.12493   0.37564   0.82581   0.00000  Uiso   1.00
N565   N     0.35817   0.20550   0.70937   0.00000  Uiso   1.00
N566   N     0.37276   0.28054   0.95990   0.00000  Uiso   1.00
O567   O     0.18453   0.28974   0.83334   0.00000  Uiso   1.00
O568   O     0.31547   0.21026   0.83333   0.00000  Uiso   1.00
O569   O     0.31547   0.28974   0.83333   0.00000  Uiso   1.00
O570   O     0.18453   0.21026   0.83334   0.00000  Uiso   1.00
O571   O     0.25000   0.28973   0.76178   0.00000  Uiso   1.00
O572   O     0.25000   0.21027   0.90489   0.00000  Uiso   1.00
O573   O     0.25000   0.28973   0.90489   0.00000  Uiso   1.00
O574   O     0.25000   0.21027   0.76178   0.00000  Uiso   1.00
Zn575  Zn    0.25000   0.30307   0.83333   0.00000  Uiso   1.00
Zn576  Zn    0.25000   0.19693   0.83333   0.00000  Uiso   1.00
C577   C     0.66354   0.25003   0.83429   0.00000  Uiso   1.00
C578   C     0.73019   0.44739   0.79359   0.00000  Uiso   1.00
C579   C     0.74993   0.24996   0.73960   0.00000  Uiso   1.00
C580   C     0.75012   0.25003   0.92707   0.00000  Uiso   1.00
C581   C     0.75014   0.02690   0.83279   0.00000  Uiso   1.00
C582   C     0.75007   0.47360   0.83279   0.00000  Uiso   1.00
C583   C     0.75002   0.24995   0.68848   0.00000  Uiso   1.00
C584   C     0.75010   0.25004   0.97819   0.00000  Uiso   1.00
C585   C     0.54421   0.29058   0.82254   0.00000  Uiso   1.00
C586   C     0.95000   0.23379   0.78575   0.00000  Uiso   1.00
C587   C     0.95447   0.26206   0.87179   0.00000  Uiso   1.00
C588   C     0.83572   0.24988   0.83342   0.00000  Uiso   1.00
C589   C     0.54497   0.20678   0.83592   0.00000  Uiso   1.00
C590   C     0.59013   0.29219   0.82689   0.00000  Uiso   1.00
C591   C     0.90394   0.23412   0.78743   0.00000  Uiso   1.00
C592   C     0.90858   0.26217   0.87424   0.00000  Uiso   1.00
C593   C     0.59092   0.20718   0.84096   0.00000  Uiso   1.00
C594   C     0.61459   0.24992   0.83443   0.00000  Uiso   1.00
C595   C     0.88330   0.24922   0.83156   0.00000  Uiso   1.00
C596   C     0.52222   0.24816   0.82642   0.00000  Uiso   1.00
C597   C     0.97470   0.24822   0.82768   0.00000  Uiso   1.00
C598   C     0.69091   0.12703   0.76959   0.00000  Uiso   1.00
C599   C     0.72081   0.10220   0.80289   0.00000  Uiso   1.00
C600   C     0.79283   0.37526   0.91230   0.00000  Uiso   1.00
C601   C     0.81034   0.12698   0.89553   0.00000  Uiso   1.00
C602   C     0.70590   0.37396   0.75518   0.00000  Uiso   1.00
C603   C     0.60979   0.33837   0.82605   0.00000  Uiso   1.00
C604   C     0.87854   0.21835   0.74400   0.00000  Uiso   1.00
C605   C     0.88849   0.27261   0.92163   0.00000  Uiso   1.00
C606   C     0.61166   0.16361   0.85623   0.00000  Uiso   1.00
C607   C     0.77037   0.39855   0.87146   0.00000  Uiso   1.00
C608   C     0.77960   0.10216   0.86311   0.00000  Uiso   1.00
C609   C     0.72956   0.39803   0.79492   0.00000  Uiso   1.00
C610   C     0.71972   0.05289   0.80302   0.00000  Uiso   1.00
C611   C     0.76977   0.44785   0.87226   0.00000  Uiso   1.00
C612   C     0.78071   0.05285   0.86257   0.00000  Uiso   1.00
H613   H     0.52518   0.32263   0.81737   0.00000  Uiso   1.00
H614   H     0.96666   0.22251   0.75213   0.00000  Uiso   1.00
H615   H     0.97462   0.27192   0.90433   0.00000  Uiso   1.00
H616   H     0.52655   0.17453   0.84131   0.00000  Uiso   1.00
H617   H     0.69476   0.03549   0.77996   0.00000  Uiso   1.00
H618   H     0.78449   0.46553   0.90439   0.00000  Uiso   1.00
H619   H     0.80594   0.03543   0.88517   0.00000  Uiso   1.00
H620   H     0.71515   0.46472   0.76150   0.00000  Uiso   1.00
N621   N     0.75000   0.12623   0.83333   0.00000  Uiso   1.00
N622   N     0.62796   0.12868   0.86875   0.00000  Uiso   1.00
N623   N     0.75000   0.37376   0.83333   0.00000  Uiso   1.00
N624   N     0.66681   0.14678   0.74262   0.00000  Uiso   1.00
N625   N     0.81098   0.35746   0.94580   0.00000  Uiso   1.00
N626   N     0.83513   0.14673   0.92175   0.00000  Uiso   1.00
N627   N     0.68652   0.35518   0.72305   0.00000  Uiso   1.00
N628   N     0.62493   0.37564   0.82581   0.00000  Uiso   1.00
N629   N     0.85817   0.20550   0.70937   0.00000  Uiso   1.00
N630   N     0.87276   0.28054   0.95990   0.00000  Uiso   1.00
O631   O     0.68453   0.28974   0.83334   0.00000  Uiso   1.00
O632   O     0.81547   0.21026   0.83333   0.00000  Uiso   1.00
O633   O     0.81547   0.28974   0.83333   0.00000  Uiso   1.00
O634   O     0.68453   0.21026   0.83334   0.00000  Uiso   1.00
O635   O     0.75000   0.28973   0.76178   0.00000  Uiso   1.00
O636   O     0.75000   0.21027   0.90489   0.00000  Uiso   1.00
O637   O     0.75000   0.28973   0.90489   0.00000  Uiso   1.00
O638   O     0.75000   0.21027   0.76178   0.00000  Uiso   1.00
Zn639  Zn    0.75000   0.30307   0.83333   0.00000  Uiso   1.00
Zn640  Zn    0.75000   0.19693   0.83333   0.00000  Uiso   1.00
C641   C     0.16354   0.75003   0.83429   0.00000  Uiso   1.00
C642   C     0.23019   0.94739   0.79359   0.00000  Uiso   1.00
C643   C     0.24993   0.74996   0.73960   0.00000  Uiso   1.00
C644   C     0.25012   0.75003   0.92707   0.00000  Uiso   1.00
C645   C     0.25014   0.52690   0.83279   0.00000  Uiso   1.00
C646   C     0.25007   0.97360   0.83279   0.00000  Uiso   1.00
C647   C     0.25002   0.74995   0.68848   0.00000  Uiso   1.00
C648   C     0.25010   0.75004   0.97819   0.00000  Uiso   1.00
C649   C     0.04421   0.79058   0.82254   0.00000  Uiso   1.00
C650   C     0.45000   0.73379   0.78575   0.00000  Uiso   1.00
C651   C     0.45447   0.76206   0.87179   0.00000  Uiso   1.00
C652   C     0.33572   0.74988   0.83342   0.00000  Uiso   1.00
C653   C     0.04497   0.70678   0.83592   0.00000  Uiso   1.00
C654   C     0.09013   0.79219   0.82689   0.00000  Uiso   1.00
C655   C     0.40394   0.73412   0.78743   0.00000  Uiso   1.00
C656   C     0.40858   0.76217   0.87424   0.00000  Uiso   1.00
C657   C     0.09092   0.70718   0.84096   0.00000  Uiso   1.00
C658   C     0.11459   0.74992   0.83443   0.00000  Uiso   1.00
C659   C     0.38330   0.74922   0.83156   0.00000  Uiso   1.00
C660   C     0.02222   0.74816   0.82642   0.00000  Uiso   1.00
C661   C     0.47470   0.74822   0.82768   0.00000  Uiso   1.00
C662   C     0.19091   0.62703   0.76959   0.00000  Uiso   1.00
C663   C     0.22081   0.60220   0.80289   0.00000  Uiso   1.00
C664   C     0.29283   0.87526   0.91230   0.00000  Uiso   1.00
C665   C     0.31034   0.62698   0.89553   0.00000  Uiso   1.00
C666   C     0.20590   0.87396   0.75518   0.00000  Uiso   1.00
C667   C     0.10979   0.83837   0.82605   0.00000  Uiso   1.00
C668   C     0.37854   0.71835   0.74400   0.00000  Uiso   1.00
C669   C     0.38849   0.77261   0.92163   0.00000  Uiso   1.00
C670   C     0.11166   0.66361   0.85623   0.00000  Uiso   1.00
C671   C     0.27037   0.89855   0.87146   0.00000  Uiso   1.00
C672   C     0.27960   0.60216   0.86311   0.00000  Uiso   1.00
C673   C     0.22956   0.89803   0.79492   0.00000  Uiso   1.00
C674   C     0.21972   0.55289   0.80302   0.00000  Uiso   1.00
C675   C     0.26977   0.94785   0.87226   0.00000  Uiso   1.00
C676   C     0.28071   0.55285   0.86257   0.00000  Uiso   1.00
H677   H     0.02518   0.82263   0.81737   0.00000  Uiso   1.00
H678   H     0.46666   0.72251   0.75213   0.00000  Uiso   1.00
H679   H     0.47462   0.77192   0.90433   0.00000  Uiso   1.00
H680   H     0.02655   0.67453   0.84131   0.00000  Uiso   1.00
H681   H     0.19476   0.53549   0.77996   0.00000  Uiso   1.00
H682   H     0.28449   0.96553   0.90439   0.00000  Uiso   1.00
H683   H     0.30594   0.53543   0.88517   0.00000  Uiso   1.00
H684   H     0.21515   0.96472   0.76150   0.00000  Uiso   1.00
N685   N     0.25000   0.62623   0.83333   0.00000  Uiso   1.00
N686   N     0.12796   0.62868   0.86875   0.00000  Uiso   1.00
N687   N     0.25000   0.87376   0.83333   0.00000  Uiso   1.00
N688   N     0.16681   0.64678   0.74262   0.00000  Uiso   1.00
N689   N     0.31098   0.85746   0.94580   0.00000  Uiso   1.00
N690   N     0.33513   0.64673   0.92175   0.00000  Uiso   1.00
N691   N     0.18652   0.85518   0.72305   0.00000  Uiso   1.00
N692   N     0.12493   0.87564   0.82581   0.00000  Uiso   1.00
N693   N     0.35817   0.70550   0.70937   0.00000  Uiso   1.00
N694   N     0.37276   0.78054   0.95990   0.00000  Uiso   1.00
O695   O     0.18453   0.78974   0.83334   0.00000  Uiso   1.00
O696   O     0.31547   0.71026   0.83333   0.00000  Uiso   1.00
O697   O     0.31547   0.78974   0.83333   0.00000  Uiso   1.00
O698   O     0.18453   0.71026   0.83334   0.00000  Uiso   1.00
O699   O     0.25000   0.78973   0.76178   0.00000  Uiso   1.00
O700   O     0.25000   0.71027   0.90489   0.00000  Uiso   1.00
O701   O     0.25000   0.78973   0.90489   0.00000  Uiso   1.00
O702   O     0.25000   0.71027   0.76178   0.00000  Uiso   1.00
Zn703  Zn    0.25000   0.80307   0.83333   0.00000  Uiso   1.00
Zn704  Zn    0.25000   0.69693   0.83333   0.00000  Uiso   1.00
C705   C     0.66354   0.75003   0.83429   0.00000  Uiso   1.00
C706   C     0.73019   0.94739   0.79359   0.00000  Uiso   1.00
C707   C     0.74993   0.74996   0.73960   0.00000  Uiso   1.00
C708   C     0.75012   0.75003   0.92707   0.00000  Uiso   1.00
C709   C     0.75014   0.52690   0.83279   0.00000  Uiso   1.00
C710   C     0.75007   0.97360   0.83279   0.00000  Uiso   1.00
C711   C     0.75002   0.74995   0.68848   0.00000  Uiso   1.00
C712   C     0.75010   0.75004   0.97819   0.00000  Uiso   1.00
C713   C     0.54421   0.79058   0.82254   0.00000  Uiso   1.00
C714   C     0.95000   0.73379   0.78575   0.00000  Uiso   1.00
C715   C     0.95447   0.76206   0.87179   0.00000  Uiso   1.00
C716   C     0.83572   0.74988   0.83342   0.00000  Uiso   1.00
C717   C     0.54497   0.70678   0.83592   0.00000  Uiso   1.00
C718   C     0.59013   0.79219   0.82689   0.00000  Uiso   1.00
C719   C     0.90394   0.73412   0.78743   0.00000  Uiso   1.00
C720   C     0.90858   0.76217   0.87424   0.00000  Uiso   1.00
C721   C     0.59092   0.70718   0.84096   0.00000  Uiso   1.00
C722   C     0.61459   0.74992   0.83443   0.00000  Uiso   1.00
C723   C     0.88330   0.74922   0.83156   0.00000  Uiso   1.00
C724   C     0.52222   0.74816   0.82642   0.00000  Uiso   1.00
C725   C     0.97470   0.74822   0.82768   0.00000  Uiso   1.00
C726   C     0.69091   0.62703   0.76959   0.00000  Uiso   1.00
C727   C     0.72081   0.60220   0.80289   0.00000  Uiso   1.00
C728   C     0.79283   0.87526   0.91230   0.00000  Uiso   1.00
C729   C     0.81034   0.62698   0.89553   0.00000  Uiso   1.00
C730   C     0.70590   0.87396   0.75518   0.00000  Uiso   1.00
C731   C     0.60979   0.83837   0.82605   0.00000  Uiso   1.00
C732   C     0.87854   0.71835   0.74400   0.00000  Uiso   1.00
C733   C     0.88849   0.77261   0.92163   0.00000  Uiso   1.00
C734   C     0.61166   0.66361   0.85623   0.00000  Uiso   1.00
C735   C     0.77037   0.89855   0.87146   0.00000  Uiso   1.00
C736   C     0.77960   0.60216   0.86311   0.00000  Uiso   1.00
C737   C     0.72956   0.89803   0.79492   0.00000  Uiso   1.00
C738   C     0.71972   0.55289   0.80302   0.00000  Uiso   1.00
C739   C     0.76977   0.94785   0.87226   0.00000  Uiso   1.00
C740   C     0.78071   0.55285   0.86257   0.00000  Uiso   1.00
H741   H     0.52518   0.82263   0.81737   0.00000  Uiso   1.00
H742   H     0.96666   0.72251   0.75213   0.00000  Uiso   1.00
H743   H     0.97462   0.77192   0.90433   0.00000  Uiso   1.00
H744   H     0.52655   0.67453   0.84131   0.00000  Uiso   1.00
H745   H     0.69476   0.53549   0.77996   0.00000  Uiso   1.00
H746   H     0.78449   0.96553   0.90439   0.00000  Uiso   1.00
H747   H     0.80594   0.53543   0.88517   0.00000  Uiso   1.00
H748   H     0.71515   0.96472   0.76150   0.00000  Uiso   1.00
N749   N     0.75000   0.62623   0.83333   0.00000  Uiso   1.00
N750   N     0.62796   0.62868   0.86875   0.00000  Uiso   1.00
N751   N     0.75000   0.87376   0.83333   0.00000  Uiso   1.00
N752   N     0.66681   0.64678   0.74262   0.00000  Uiso   1.00
N753   N     0.81098   0.85746   0.94580   0.00000  Uiso   1.00
N754   N     0.83513   0.64673   0.92175   0.00000  Uiso   1.00
N755   N     0.68652   0.85518   0.72305   0.00000  Uiso   1.00
N756   N     0.62493   0.87564   0.82581   0.00000  Uiso   1.00
N757   N     0.85817   0.70550   0.70937   0.00000  Uiso   1.00
N758   N     0.87276   0.78054   0.95990   0.00000  Uiso   1.00
O759   O     0.68453   0.78974   0.83334   0.00000  Uiso   1.00
O760   O     0.81547   0.71026   0.83333   0.00000  Uiso   1.00
O761   O     0.81547   0.78974   0.83333   0.00000  Uiso   1.00
O762   O     0.68453   0.71026   0.83334   0.00000  Uiso   1.00
O763   O     0.75000   0.78973   0.76178   0.00000  Uiso   1.00
O764   O     0.75000   0.71027   0.90489   0.00000  Uiso   1.00
O765   O     0.75000   0.78973   0.90489   0.00000  Uiso   1.00
O766   O     0.75000   0.71027   0.76178   0.00000  Uiso   1.00
Zn767  Zn    0.75000   0.80307   0.83333   0.00000  Uiso   1.00
Zn768  Zn    0.75000   0.69693   0.83333   0.00000  Uiso   1.00
loop_
_geom_bond_atom_site_label_1
_geom_bond_atom_site_label_2
_geom_bond_distance
_geom_bond_site_symmetry_2
_ccdc_geom_bond_type
C1     C18     1.471   .     S
C1     O58     1.299   .     A
C1     O55     1.298   .     A
C2     C6      1.408   .     A
C2     C33     1.410   .     A
C2     H44     1.081   .     S
C3     C7      1.365   .     S
C3     O62     1.280   .     A
C3     O59     1.279   .     A
C4     C8      1.365   .     S
C4     O60     1.279   .     A
C4     O61     1.280   .     A
C5     C34     1.410   .     A
C5     C36     1.412   .     A
C5     C134    1.522   1_545 S
C6     C35     1.406   .     A
C6     C133    1.522   .     S
C7     C520    1.165   1_554 S
C8     C263    1.165   .     S
C9     C14     1.383   .     A
C9     H37     1.086   .     S
C9     C20     1.385   .     A
C10    H38     1.085   .     S
C10    C15     1.386   .     A
C10    C21     1.392   .     A
C11    C21     1.393   .     A
C11    H39     1.085   .     S
C11    C16     1.382   .     A
C12    O56     1.285   .     A
C12    O57     1.290   .     A
C12    C19     1.432   .     S
C13    C17     1.384   .     A
C13    H40     1.086   .     S
C13    C20     1.386   .     A
C14    C27     1.445   .     S
C14    C18     1.425   .     A
C15    C19     1.409   .     A
C15    C28     1.446   .     S
C16    C19     1.405   .     A
C16    C29     1.444   .     S
C17    C18     1.425   .     A
C17    C30     1.447   .     S
C20    C85     1.429   1_455 S
C21    C84     1.429   .     S
C22    N48     1.158   .     T
C22    C23     1.438   .     S
C23    N45     1.367   .     A
C23    C34     1.408   .     A
C24    C31     1.435   .     S
C24    N49     1.156   .     T
C25    C32     1.439   .     S
C25    N50     1.158   .     T
C26    C33     1.438   .     S
C26    N51     1.158   .     T
C27    N52     1.157   .     T
C28    N53     1.157   .     T
C29    N54     1.156   .     T
C30    N46     1.157   .     T
C31    C35     1.408   .     A
C31    N47     1.372   .     A
C32    N45     1.367   .     A
C32    C36     1.408   .     A
C33    N47     1.373   .     A
C34    H41     1.081   .     S
C35    H42     1.081   .     S
C36    H43     1.081   .     S
N45    Zn64    2.018   .     S
N47    Zn63    2.018   .     S
O55    Zn63    2.004   .     S
O56    Zn64    2.004   .     S
O57    Zn63    2.003   .     S
O58    Zn64    2.003   .     S
O59    Zn63    1.947   .     S
O60    Zn64    1.947   .     S
O61    Zn63    1.949   .     S
O62    Zn64    1.949   .     S
C65    C82     1.471   .     S
C65    O122    1.299   .     A
C65    O119    1.298   .     A
C66    C70     1.408   .     A
C66    C97     1.410   .     A
C66    H108    1.081   .     S
C67    C71     1.365   .     S
C67    O126    1.280   .     A
C67    O123    1.279   .     A
C68    C72     1.365   .     S
C68    O124    1.279   .     A
C68    O125    1.280   .     A
C69    C98     1.410   .     A
C69    C100    1.412   .     A
C69    C198    1.522   1_545 S
C70    C99     1.406   .     A
C70    C197    1.522   .     S
C71    C584    1.165   1_554 S
C72    C327    1.165   .     S
C73    C78     1.383   .     A
C73    H101    1.086   .     S
C73    C84     1.385   .     A
C74    H102    1.085   .     S
C74    C79     1.386   .     A
C74    C85     1.392   .     A
C75    C85     1.393   .     A
C75    H103    1.085   .     S
C75    C80     1.382   .     A
C76    O120    1.285   .     A
C76    O121    1.290   .     A
C76    C83     1.432   .     S
C77    C81     1.384   .     A
C77    H104    1.086   .     S
C77    C84     1.386   .     A
C78    C91     1.445   .     S
C78    C82     1.425   .     A
C79    C83     1.409   .     A
C79    C92     1.446   .     S
C80    C83     1.405   .     A
C80    C93     1.444   .     S
C81    C82     1.425   .     A
C81    C94     1.447   .     S
C85    C20     1.429   1_655 S
C86    N112    1.158   .     T
C86    C87     1.438   .     S
C87    N109    1.367   .     A
C87    C98     1.408   .     A
C88    C95     1.435   .     S
C88    N113    1.156   .     T
C89    C96     1.439   .     S
C89    N114    1.158   .     T
C90    C97     1.438   .     S
C90    N115    1.158   .     T
C91    N116    1.157   .     T
C92    N117    1.157   .     T
C93    N118    1.156   .     T
C94    N110    1.157   .     T
C95    C99     1.408   .     A
C95    N111    1.372   .     A
C96    N109    1.367   .     A
C96    C100    1.408   .     A
C97    N111    1.373   .     A
C98    H105    1.081   .     S
C99    H106    1.081   .     S
C100   H107    1.081   .     S
N109   Zn128   2.018   .     S
N111   Zn127   2.018   .     S
O119   Zn127   2.004   .     S
O120   Zn128   2.004   .     S
O121   Zn127   2.003   .     S
O122   Zn128   2.003   .     S
O123   Zn127   1.947   .     S
O124   Zn128   1.947   .     S
O125   Zn127   1.949   .     S
O126   Zn128   1.949   .     S
C129   C146    1.471   .     S
C129   O186    1.299   .     A
C129   O183    1.298   .     A
C130   C134    1.408   .     A
C130   C161    1.410   .     A
C130   H172    1.081   .     S
C131   C135    1.365   .     S
C131   O190    1.280   .     A
C131   O187    1.279   .     A
C132   C136    1.365   .     S
C132   O188    1.279   .     A
C132   O189    1.280   .     A
C133   C162    1.410   .     A
C133   C164    1.412   .     A
C134   C163    1.406   .     A
C134   C5      1.522   1_565 S
C135   C648    1.165   1_554 S
C136   C391    1.165   .     S
C137   C142    1.383   .     A
C137   H165    1.086   .     S
C137   C148    1.385   .     A
C138   H166    1.085   .     S
C138   C143    1.386   .     A
C138   C149    1.392   .     A
C139   C149    1.393   .     A
C139   H167    1.085   .     S
C139   C144    1.382   .     A
C140   O184    1.285   .     A
C140   O185    1.290   .     A
C140   C147    1.432   .     S
C141   C145    1.384   .     A
C141   H168    1.086   .     S
C141   C148    1.386   .     A
C142   C155    1.445   .     S
C142   C146    1.425   .     A
C143   C147    1.409   .     A
C143   C156    1.446   .     S
C144   C147    1.405   .     A
C144   C157    1.444   .     S
C145   C146    1.425   .     A
C145   C158    1.447   .     S
C148   C213    1.429   1_455 S
C149   C212    1.429   .     S
C150   N176    1.158   .     T
C150   C151    1.438   .     S
C151   N173    1.367   .     A
C151   C162    1.408   .     A
C152   C159    1.435   .     S
C152   N177    1.156   .     T
C153   C160    1.439   .     S
C153   N178    1.158   .     T
C154   C161    1.438   .     S
C154   N179    1.158   .     T
C155   N180    1.157   .     T
C156   N181    1.157   .     T
C157   N182    1.156   .     T
C158   N174    1.157   .     T
C159   C163    1.408   .     A
C159   N175    1.372   .     A
C160   N173    1.367   .     A
C160   C164    1.408   .     A
C161   N175    1.373   .     A
C162   H169    1.081   .     S
C163   H170    1.081   .     S
C164   H171    1.081   .     S
N173   Zn192   2.018   .     S
N175   Zn191   2.018   .     S
O183   Zn191   2.004   .     S
O184   Zn192   2.004   .     S
O185   Zn191   2.003   .     S
O186   Zn192   2.003   .     S
O187   Zn191   1.947   .     S
O188   Zn192   1.947   .     S
O189   Zn191   1.949   .     S
O190   Zn192   1.949   .     S
C193   C210    1.471   .     S
C193   O250    1.299   .     A
C193   O247    1.298   .     A
C194   C198    1.408   .     A
C194   C225    1.410   .     A
C194   H236    1.081   .     S
C195   C199    1.365   .     S
C195   O254    1.280   .     A
C195   O251    1.279   .     A
C196   C200    1.365   .     S
C196   O252    1.279   .     A
C196   O253    1.280   .     A
C197   C226    1.410   .     A
C197   C228    1.412   .     A
C198   C227    1.406   .     A
C198   C69     1.522   1_565 S
C199   C712    1.165   1_554 S
C200   C455    1.165   .     S
C201   C206    1.383   .     A
C201   H229    1.086   .     S
C201   C212    1.385   .     A
C202   H230    1.085   .     S
C202   C207    1.386   .     A
C202   C213    1.392   .     A
C203   C213    1.393   .     A
C203   H231    1.085   .     S
C203   C208    1.382   .     A
C204   O248    1.285   .     A
C204   O249    1.290   .     A
C204   C211    1.432   .     S
C205   C209    1.384   .     A
C205   H232    1.086   .     S
C205   C212    1.386   .     A
C206   C219    1.445   .     S
C206   C210    1.425   .     A
C207   C211    1.409   .     A
C207   C220    1.446   .     S
C208   C211    1.405   .     A
C208   C221    1.444   .     S
C209   C210    1.425   .     A
C209   C222    1.447   .     S
C213   C148    1.429   1_655 S
C214   N240    1.158   .     T
C214   C215    1.438   .     S
C215   N237    1.367   .     A
C215   C226    1.408   .     A
C216   C223    1.435   .     S
C216   N241    1.156   .     T
C217   C224    1.439   .     S
C217   N242    1.158   .     T
C218   C225    1.438   .     S
C218   N243    1.158   .     T
C219   N244    1.157   .     T
C220   N245    1.157   .     T
C221   N246    1.156   .     T
C222   N238    1.157   .     T
C223   C227    1.408   .     A
C223   N239    1.372   .     A
C224   N237    1.367   .     A
C224   C228    1.408   .     A
C225   N239    1.373   .     A
C226   H233    1.081   .     S
C227   H234    1.081   .     S
C228   H235    1.081   .     S
N237   Zn256   2.018   .     S
N239   Zn255   2.018   .     S
O247   Zn255   2.004   .     S
O248   Zn256   2.004   .     S
O249   Zn255   2.003   .     S
O250   Zn256   2.003   .     S
O251   Zn255   1.947   .     S
O252   Zn256   1.947   .     S
O253   Zn255   1.949   .     S
O254   Zn256   1.949   .     S
C257   C274    1.471   .     S
C257   O314    1.299   .     A
C257   O311    1.298   .     A
C258   C262    1.408   .     A
C258   C289    1.410   .     A
C258   H300    1.081   .     S
C259   C263    1.365   .     S
C259   O318    1.280   .     A
C259   O315    1.279   .     A
C260   C264    1.365   .     S
C260   O316    1.279   .     A
C260   O317    1.280   .     A
C261   C290    1.410   .     A
C261   C292    1.412   .     A
C261   C390    1.522   1_545 S
C262   C291    1.406   .     A
C262   C389    1.522   .     S
C264   C519    1.165   .     S
C265   C270    1.383   .     A
C265   H293    1.086   .     S
C265   C276    1.385   .     A
C266   H294    1.085   .     S
C266   C271    1.386   .     A
C266   C277    1.392   .     A
C267   C277    1.393   .     A
C267   H295    1.085   .     S
C267   C272    1.382   .     A
C268   O312    1.285   .     A
C268   O313    1.290   .     A
C268   C275    1.432   .     S
C269   C273    1.384   .     A
C269   H296    1.086   .     S
C269   C276    1.386   .     A
C270   C283    1.445   .     S
C270   C274    1.425   .     A
C271   C275    1.409   .     A
C271   C284    1.446   .     S
C272   C275    1.405   .     A
C272   C285    1.444   .     S
C273   C274    1.425   .     A
C273   C286    1.447   .     S
C276   C341    1.429   1_455 S
C277   C340    1.429   .     S
C278   N304    1.158   .     T
C278   C279    1.438   .     S
C279   N301    1.367   .     A
C279   C290    1.408   .     A
C280   C287    1.435   .     S
C280   N305    1.156   .     T
C281   C288    1.439   .     S
C281   N306    1.158   .     T
C282   C289    1.438   .     S
C282   N307    1.158   .     T
C283   N308    1.157   .     T
C284   N309    1.157   .     T
C285   N310    1.156   .     T
C286   N302    1.157   .     T
C287   C291    1.408   .     A
C287   N303    1.372   .     A
C288   N301    1.367   .     A
C288   C292    1.408   .     A
C289   N303    1.373   .     A
C290   H297    1.081   .     S
C291   H298    1.081   .     S
C292   H299    1.081   .     S
N301   Zn320   2.018   .     S
N303   Zn319   2.018   .     S
O311   Zn319   2.004   .     S
O312   Zn320   2.004   .     S
O313   Zn319   2.003   .     S
O314   Zn320   2.003   .     S
O315   Zn319   1.947   .     S
O316   Zn320   1.947   .     S
O317   Zn319   1.949   .     S
O318   Zn320   1.949   .     S
C321   C338    1.471   .     S
C321   O378    1.299   .     A
C321   O375    1.298   .     A
C322   C326    1.408   .     A
C322   C353    1.410   .     A
C322   H364    1.081   .     S
C323   C327    1.365   .     S
C323   O382    1.280   .     A
C323   O379    1.279   .     A
C324   C328    1.365   .     S
C324   O380    1.279   .     A
C324   O381    1.280   .     A
C325   C354    1.410   .     A
C325   C356    1.412   .     A
C325   C454    1.522   1_545 S
C326   C355    1.406   .     A
C326   C453    1.522   .     S
C328   C583    1.165   .     S
C329   C334    1.383   .     A
C329   H357    1.086   .     S
C329   C340    1.385   .     A
C330   H358    1.085   .     S
C330   C335    1.386   .     A
C330   C341    1.392   .     A
C331   C341    1.393   .     A
C331   H359    1.085   .     S
C331   C336    1.382   .     A
C332   O376    1.285   .     A
C332   O377    1.290   .     A
C332   C339    1.432   .     S
C333   C337    1.384   .     A
C333   H360    1.086   .     S
C333   C340    1.386   .     A
C334   C347    1.445   .     S
C334   C338    1.425   .     A
C335   C339    1.409   .     A
C335   C348    1.446   .     S
C336   C339    1.405   .     A
C336   C349    1.444   .     S
C337   C338    1.425   .     A
C337   C350    1.447   .     S
C341   C276    1.429   1_655 S
C342   N368    1.158   .     T
C342   C343    1.438   .     S
C343   N365    1.367   .     A
C343   C354    1.408   .     A
C344   C351    1.435   .     S
C344   N369    1.156   .     T
C345   C352    1.439   .     S
C345   N370    1.158   .     T
C346   C353    1.438   .     S
C346   N371    1.158   .     T
C347   N372    1.157   .     T
C348   N373    1.157   .     T
C349   N374    1.156   .     T
C350   N366    1.157   .     T
C351   C355    1.408   .     A
C351   N367    1.372   .     A
C352   N365    1.367   .     A
C352   C356    1.408   .     A
C353   N367    1.373   .     A
C354   H361    1.081   .     S
C355   H362    1.081   .     S
C356   H363    1.081   .     S
N365   Zn384   2.018   .     S
N367   Zn383   2.018   .     S
O375   Zn383   2.004   .     S
O376   Zn384   2.004   .     S
O377   Zn383   2.003   .     S
O378   Zn384   2.003   .     S
O379   Zn383   1.947   .     S
O380   Zn384   1.947   .     S
O381   Zn383   1.949   .     S
O382   Zn384   1.949   .     S
C385   C402    1.471   .     S
C385   O442    1.299   .     A
C385   O439    1.298   .     A
C386   C390    1.408   .     A
C386   C417    1.410   .     A
C386   H428    1.081   .     S
C387   C391    1.365   .     S
C387   O446    1.280   .     A
C387   O443    1.279   .     A
C388   C392    1.365   .     S
C388   O444    1.279   .     A
C388   O445    1.280   .     A
C389   C418    1.410   .     A
C389   C420    1.412   .     A
C390   C419    1.406   .     A
C390   C261    1.522   1_565 S
C392   C647    1.165   .     S
C393   C398    1.383   .     A
C393   H421    1.086   .     S
C393   C404    1.385   .     A
C394   H422    1.085   .     S
C394   C399    1.386   .     A
C394   C405    1.392   .     A
C395   C405    1.393   .     A
C395   H423    1.085   .     S
C395   C400    1.382   .     A
C396   O440    1.285   .     A
C396   O441    1.290   .     A
C396   C403    1.432   .     S
C397   C401    1.384   .     A
C397   H424    1.086   .     S
C397   C404    1.386   .     A
C398   C411    1.445   .     S
C398   C402    1.425   .     A
C399   C403    1.409   .     A
C399   C412    1.446   .     S
C400   C403    1.405   .     A
C400   C413    1.444   .     S
C401   C402    1.425   .     A
C401   C414    1.447   .     S
C404   C469    1.429   1_455 S
C405   C468    1.429   .     S
C406   N432    1.158   .     T
C406   C407    1.438   .     S
C407   N429    1.367   .     A
C407   C418    1.408   .     A
C408   C415    1.435   .     S
C408   N433    1.156   .     T
C409   C416    1.439   .     S
C409   N434    1.158   .     T
C410   C417    1.438   .     S
C410   N435    1.158   .     T
C411   N436    1.157   .     T
C412   N437    1.157   .     T
C413   N438    1.156   .     T
C414   N430    1.157   .     T
C415   C419    1.408   .     A
C415   N431    1.372   .     A
C416   N429    1.367   .     A
C416   C420    1.408   .     A
C417   N431    1.373   .     A
C418   H425    1.081   .     S
C419   H426    1.081   .     S
C420   H427    1.081   .     S
N429   Zn448   2.018   .     S
N431   Zn447   2.018   .     S
O439   Zn447   2.004   .     S
O440   Zn448   2.004   .     S
O441   Zn447   2.003   .     S
O442   Zn448   2.003   .     S
O443   Zn447   1.947   .     S
O444   Zn448   1.947   .     S
O445   Zn447   1.949   .     S
O446   Zn448   1.949   .     S
C449   C466    1.471   .     S
C449   O506    1.299   .     A
C449   O503    1.298   .     A
C450   C454    1.408   .     A
C450   C481    1.410   .     A
C450   H492    1.081   .     S
C451   C455    1.365   .     S
C451   O510    1.280   .     A
C451   O507    1.279   .     A
C452   C456    1.365   .     S
C452   O508    1.279   .     A
C452   O509    1.280   .     A
C453   C482    1.410   .     A
C453   C484    1.412   .     A
C454   C483    1.406   .     A
C454   C325    1.522   1_565 S
C456   C711    1.165   .     S
C457   C462    1.383   .     A
C457   H485    1.086   .     S
C457   C468    1.385   .     A
C458   H486    1.085   .     S
C458   C463    1.386   .     A
C458   C469    1.392   .     A
C459   C469    1.393   .     A
C459   H487    1.085   .     S
C459   C464    1.382   .     A
C460   O504    1.285   .     A
C460   O505    1.290   .     A
C460   C467    1.432   .     S
C461   C465    1.384   .     A
C461   H488    1.086   .     S
C461   C468    1.386   .     A
C462   C475    1.445   .     S
C462   C466    1.425   .     A
C463   C467    1.409   .     A
C463   C476    1.446   .     S
C464   C467    1.405   .     A
C464   C477    1.444   .     S
C465   C466    1.425   .     A
C465   C478    1.447   .     S
C469   C404    1.429   1_655 S
C470   N496    1.158   .     T
C470   C471    1.438   .     S
C471   N493    1.367   .     A
C471   C482    1.408   .     A
C472   C479    1.435   .     S
C472   N497    1.156   .     T
C473   C480    1.439   .     S
C473   N498    1.158   .     T
C474   C481    1.438   .     S
C474   N499    1.158   .     T
C475   N500    1.157   .     T
C476   N501    1.157   .     T
C477   N502    1.156   .     T
C478   N494    1.157   .     T
C479   C483    1.408   .     A
C479   N495    1.372   .     A
C480   N493    1.367   .     A
C480   C484    1.408   .     A
C481   N495    1.373   .     A
C482   H489    1.081   .     S
C483   H490    1.081   .     S
C484   H491    1.081   .     S
N493   Zn512   2.018   .     S
N495   Zn511   2.018   .     S
O503   Zn511   2.004   .     S
O504   Zn512   2.004   .     S
O505   Zn511   2.003   .     S
O506   Zn512   2.003   .     S
O507   Zn511   1.947   .     S
O508   Zn512   1.947   .     S
O509   Zn511   1.949   .     S
O510   Zn512   1.949   .     S
C513   C530    1.471   .     S
C513   O570    1.299   .     A
C513   O567    1.298   .     A
C514   C518    1.408   .     A
C514   C545    1.410   .     A
C514   H556    1.081   .     S
C515   C519    1.365   .     S
C515   O574    1.280   .     A
C515   O571    1.279   .     A
C516   C520    1.365   .     S
C516   O572    1.279   .     A
C516   O573    1.280   .     A
C517   C546    1.410   .     A
C517   C548    1.412   .     A
C517   C646    1.522   1_545 S
C518   C547    1.406   .     A
C518   C645    1.522   .     S
C520   C7      1.165   1_556 S
C521   C526    1.383   .     A
C521   H549    1.086   .     S
C521   C532    1.385   .     A
C522   H550    1.085   .     S
C522   C527    1.386   .     A
C522   C533    1.392   .     A
C523   C533    1.393   .     A
C523   H551    1.085   .     S
C523   C528    1.382   .     A
C524   O568    1.285   .     A
C524   O569    1.290   .     A
C524   C531    1.432   .     S
C525   C529    1.384   .     A
C525   H552    1.086   .     S
C525   C532    1.386   .     A
C526   C539    1.445   .     S
C526   C530    1.425   .     A
C527   C531    1.409   .     A
C527   C540    1.446   .     S
C528   C531    1.405   .     A
C528   C541    1.444   .     S
C529   C530    1.425   .     A
C529   C542    1.447   .     S
C532   C597    1.429   1_455 S
C533   C596    1.429   .     S
C534   N560    1.158   .     T
C534   C535    1.438   .     S
C535   N557    1.367   .     A
C535   C546    1.408   .     A
C536   C543    1.435   .     S
C536   N561    1.156   .     T
C537   C544    1.439   .     S
C537   N562    1.158   .     T
C538   C545    1.438   .     S
C538   N563    1.158   .     T
C539   N564    1.157   .     T
C540   N565    1.157   .     T
C541   N566    1.156   .     T
C542   N558    1.157   .     T
C543   C547    1.408   .     A
C543   N559    1.372   .     A
C544   N557    1.367   .     A
C544   C548    1.408   .     A
C545   N559    1.373   .     A
C546   H553    1.081   .     S
C547   H554    1.081   .     S
C548   H555    1.081   .     S
N557   Zn576   2.018   .     S
N559   Zn575   2.018   .     S
O567   Zn575   2.004   .     S
O568   Zn576   2.004   .     S
O569   Zn575   2.003   .     S
O570   Zn576   2.003   .     S
O571   Zn575   1.947   .     S
O572   Zn576   1.947   .     S
O573   Zn575   1.949   .     S
O574   Zn576   1.949   .     S
C577   C594    1.471   .     S
C577   O634    1.299   .     A
C577   O631    1.298   .     A
C578   C582    1.408   .     A
C578   C609    1.410   .     A
C578   H620    1.081   .     S
C579   C583    1.365   .     S
C579   O638    1.280   .     A
C579   O635    1.279   .     A
C580   C584    1.365   .     S
C580   O636    1.279   .     A
C580   O637    1.280   .     A
C581   C610    1.410   .     A
C581   C612    1.412   .     A
C581   C710    1.522   1_545 S
C582   C611    1.406   .     A
C582   C709    1.522   .     S
C584   C71     1.165   1_556 S
C585   C590    1.383   .     A
C585   H613    1.086   .     S
C585   C596    1.385   .     A
C586   H614    1.085   .     S
C586   C591    1.386   .     A
C586   C597    1.392   .     A
C587   C597    1.393   .     A
C587   H615    1.085   .     S
C587   C592    1.382   .     A
C588   O632    1.285   .     A
C588   O633    1.290   .     A
C588   C595    1.432   .     S
C589   C593    1.384   .     A
C589   H616    1.086   .     S
C589   C596    1.386   .     A
C590   C603    1.445   .     S
C590   C594    1.425   .     A
C591   C595    1.409   .     A
C591   C604    1.446   .     S
C592   C595    1.405   .     A
C592   C605    1.444   .     S
C593   C594    1.425   .     A
C593   C606    1.447   .     S
C597   C532    1.429   1_655 S
C598   N624    1.158   .     T
C598   C599    1.438   .     S
C599   N621    1.367   .     A
C599   C610    1.408   .     A
C600   C607    1.435   .     S
C600   N625    1.156   .     T
C601   C608    1.439   .     S
C601   N626    1.158   .     T
C602   C609    1.438   .     S
C602   N627    1.158   .     T
C603   N628    1.157   .     T
C604   N629    1.157   .     T
C605   N630    1.156   .     T
C606   N622    1.157   .     T
C607   C611    1.408   .     A
C607   N623    1.372   .     A
C608   N621    1.367   .     A
C608   C612    1.408   .     A
C609   N623    1.373   .     A
C610   H617    1.081   .     S
C611   H618    1.081   .     S
C612   H619    1.081   .     S
N621   Zn640   2.018   .     S
N623   Zn639   2.018   .     S
O631   Zn639   2.004   .     S
O632   Zn640   2.004   .     S
O633   Zn639   2.003   .     S
O634   Zn640   2.003   .     S
O635   Zn639   1.947   .     S
O636   Zn640   1.947   .     S
O637   Zn639   1.949   .     S
O638   Zn640   1.949   .     S
C641   C658    1.471   .     S
C641   O698    1.299   .     A
C641   O695    1.298   .     A
C642   C646    1.408   .     A
C642   C673    1.410   .     A
C642   H684    1.081   .     S
C643   C647    1.365   .     S
C643   O702    1.280   .     A
C643   O699    1.279   .     A
C644   C648    1.365   .     S
C644   O700    1.279   .     A
C644   O701    1.280   .     A
C645   C674    1.410   .     A
C645   C676    1.412   .     A
C646   C675    1.406   .     A
C646   C517    1.522   1_565 S
C648   C135    1.165   1_556 S
C649   C654    1.383   .     A
C649   H677    1.086   .     S
C649   C660    1.385   .     A
C650   H678    1.085   .     S
C650   C655    1.386   .     A
C650   C661    1.392   .     A
C651   C661    1.393   .     A
C651   H679    1.085   .     S
C651   C656    1.382   .     A
C652   O696    1.285   .     A
C652   O697    1.290   .     A
C652   C659    1.432   .     S
C653   C657    1.384   .     A
C653   H680    1.086   .     S
C653   C660    1.386   .     A
C654   C667    1.445   .     S
C654   C658    1.425   .     A
C655   C659    1.409   .     A
C655   C668    1.446   .     S
C656   C659    1.405   .     A
C656   C669    1.444   .     S
C657   C658    1.425   .     A
C657   C670    1.447   .     S
C660   C725    1.429   1_455 S
C661   C724    1.429   .     S
C662   N688    1.158   .     T
C662   C663    1.438   .     S
C663   N685    1.367   .     A
C663   C674    1.408   .     A
C664   C671    1.435   .     S
C664   N689    1.156   .     T
C665   C672    1.439   .     S
C665   N690    1.158   .     T
C666   C673    1.438   .     S
C666   N691    1.158   .     T
C667   N692    1.157   .     T
C668   N693    1.157   .     T
C669   N694    1.156   .     T
C670   N686    1.157   .     T
C671   C675    1.408   .     A
C671   N687    1.372   .     A
C672   N685    1.367   .     A
C672   C676    1.408   .     A
C673   N687    1.373   .     A
C674   H681    1.081   .     S
C675   H682    1.081   .     S
C676   H683    1.081   .     S
N685   Zn704   2.018   .     S
N687   Zn703   2.018   .     S
O695   Zn703   2.004   .     S
O696   Zn704   2.004   .     S
O697   Zn703   2.003   .     S
O698   Zn704   2.003   .     S
O699   Zn703   1.947   .     S
O700   Zn704   1.947   .     S
O701   Zn703   1.949   .     S
O702   Zn704   1.949   .     S
C705   C722    1.471   .     S
C705   O762    1.299   .     A
C705   O759    1.298   .     A
C706   C710    1.408   .     A
C706   C737    1.410   .     A
C706   H748    1.081   .     S
C707   C711    1.365   .     S
C707   O766    1.280   .     A
C707   O763    1.279   .     A
C708   C712    1.365   .     S
C708   O764    1.279   .     A
C708   O765    1.280   .     A
C709   C738    1.410   .     A
C709   C740    1.412   .     A
C710   C739    1.406   .     A
C710   C581    1.522   1_565 S
C712   C199    1.165   1_556 S
C713   C718    1.383   .     A
C713   H741    1.086   .     S
C713   C724    1.385   .     A
C714   H742    1.085   .     S
C714   C719    1.386   .     A
C714   C725    1.392   .     A
C715   C725    1.393   .     A
C715   H743    1.085   .     S
C715   C720    1.382   .     A
C716   O760    1.285   .     A
C716   O761    1.290   .     A
C716   C723    1.432   .     S
C717   C721    1.384   .     A
C717   H744    1.086   .     S
C717   C724    1.386   .     A
C718   C731    1.445   .     S
C718   C722    1.425   .     A
C719   C723    1.409   .     A
C719   C732    1.446   .     S
C720   C723    1.405   .     A
C720   C733    1.444   .     S
C721   C722    1.425   .     A
C721   C734    1.447   .     S
C725   C660    1.429   1_655 S
C726   N752    1.158   .     T
C726   C727    1.438   .     S
C727   N749    1.367   .     A
C727   C738    1.408   .     A
C728   C735    1.435   .     S
C728   N753    1.156   .     T
C729   C736    1.439   .     S
C729   N754    1.158   .     T
C730   C737    1.438   .     S
C730   N755    1.158   .     T
C731   N756    1.157   .     T
C732   N757    1.157   .     T
C733   N758    1.156   .     T
C734   N750    1.157   .     T
C735   C739    1.408   .     A
C735   N751    1.372   .     A
C736   N749    1.367   .     A
C736   C740    1.408   .     A
C737   N751    1.373   .     A
C738   H745    1.081   .     S
C739   H746    1.081   .     S
C740   H747    1.081   .     S
N749   Zn768   2.018   .     S
N751   Zn767   2.018   .     S
O759   Zn767   2.004   .     S
O760   Zn768   2.004   .     S
O761   Zn767   2.003   .     S
O762   Zn768   2.003   .     S
O763   Zn767   1.947   .     S
O764   Zn768   1.947   .     S
O765   Zn767   1.949   .     S
O766   Zn768   1.949   .     S
