data_str_m3_o1_o17_pcu_sym.106
_audit_creation_date              2020-01-03
_audit_creation_method            'Materials Studio'
_symmetry_space_group_name_H-M    'P1'
_symmetry_Int_Tables_number       1
_symmetry_cell_setting            triclinic
loop_
_symmetry_equiv_pos_as_xyz
  x,y,z
_cell_length_a                    32.0419
_cell_length_b                    29.5368
_cell_length_c                    29.9151
_cell_angle_alpha                 90.3524
_cell_angle_beta                  90.8631
_cell_angle_gamma                 89.8721
loop_
_atom_site_label
_atom_site_type_symbol
_atom_site_fract_x
_atom_site_fract_y
_atom_site_fract_z
_atom_site_U_iso_or_equiv
_atom_site_adp_type
_atom_site_occupancy
C1     C     0.08665   0.16672   0.25025   0.00000  Uiso   1.00
C2     C     0.24668   0.16662   0.24985   0.00000  Uiso   1.00
C3     C     0.09603   0.13448   0.02002   0.00000  Uiso   1.00
C4     C     0.23900   0.19404   0.47992   0.00000  Uiso   1.00
C5     C     0.02161   0.12744   0.26272   0.00000  Uiso   1.00
C6     C     0.31173   0.20598   0.23771   0.00000  Uiso   1.00
C7     C     0.31222   0.12724   0.26208   0.00000  Uiso   1.00
C8     C     0.02112   0.20617   0.23831   0.00000  Uiso   1.00
C9     C     0.29082   0.16654   0.24967   0.00000  Uiso   1.00
C10    C     0.04252   0.16685   0.25067   0.00000  Uiso   1.00
C11    C     0.19820   0.02403   0.27056   0.00000  Uiso   1.00
C12    C     0.13513   0.30931   0.22945   0.00000  Uiso   1.00
C13    C     0.13511   0.02391   0.22954   0.00000  Uiso   1.00
C14    C     0.19821   0.30942   0.27051   0.00000  Uiso   1.00
C15    C     0.16535   0.16651   0.16357   0.00000  Uiso   1.00
C16    C     0.16793   0.16680   0.33640   0.00000  Uiso   1.00
C17    C     0.20481   0.18033   0.40780   0.00000  Uiso   1.00
C18    C     0.12982   0.14946   0.09211   0.00000  Uiso   1.00
C19    C     0.16893   0.16698   0.38404   0.00000  Uiso   1.00
C20    C     0.16456   0.16596   0.11589   0.00000  Uiso   1.00
C21    C     0.13336   0.15220   0.40520   0.00000  Uiso   1.00
C22    C     0.19986   0.18142   0.09470   0.00000  Uiso   1.00
C23    C     0.13221   0.14983   0.45155   0.00000  Uiso   1.00
C24    C     0.20247   0.17967   0.04837   0.00000  Uiso   1.00
C25    C     0.16782   0.16453   0.47655   0.00000  Uiso   1.00
C26    C     0.16706   0.16443   0.02337   0.00000  Uiso   1.00
C27    C     0.20410   0.17976   0.45468   0.00000  Uiso   1.00
C28    C     0.13070   0.14941   0.04525   0.00000  Uiso   1.00
C29    C     0.09622   0.13425   0.47351   0.00000  Uiso   1.00
C30    C     0.23907   0.19357   0.02643   0.00000  Uiso   1.00
H31    H     0.10661   0.14337   0.38452   0.00000  Uiso   1.00
H32    H     0.22499   0.19469   0.11535   0.00000  Uiso   1.00
H33    H     0.06843   0.12223   0.03645   0.00000  Uiso   1.00
H34    H     0.26693   0.20533   0.46348   0.00000  Uiso   1.00
H35    H     0.03815   0.09700   0.27264   0.00000  Uiso   1.00
H36    H     0.29520   0.23643   0.22779   0.00000  Uiso   1.00
H37    H     0.29607   0.09674   0.27182   0.00000  Uiso   1.00
H38    H     0.03726   0.23667   0.22855   0.00000  Uiso   1.00
H39    H     0.22341   0.04219   0.28705   0.00000  Uiso   1.00
H40    H     0.10991   0.29116   0.21297   0.00000  Uiso   1.00
H41    H     0.10982   0.04200   0.21337   0.00000  Uiso   1.00
H42    H     0.22348   0.29135   0.28678   0.00000  Uiso   1.00
N43    N     0.16667   0.28573   0.25000   0.00000  Uiso   1.00
N44    N     0.16667   0.04760   0.25000   0.00000  Uiso   1.00
O45    O     0.10559   0.20487   0.24999   0.00000  Uiso   1.00
O46    O     0.22774   0.12846   0.25000   0.00000  Uiso   1.00
O47    O     0.22774   0.20487   0.25000   0.00000  Uiso   1.00
O48    O     0.10559   0.12846   0.24999   0.00000  Uiso   1.00
O49    O     0.16666   0.20489   0.18392   0.00000  Uiso   1.00
O50    O     0.16667   0.12844   0.31607   0.00000  Uiso   1.00
O51    O     0.16667   0.20489   0.31607   0.00000  Uiso   1.00
O52    O     0.16666   0.12844   0.18392   0.00000  Uiso   1.00
Zn53   Zn    0.16667   0.21771   0.25000   0.00000  Uiso   1.00
Zn54   Zn    0.16667   0.11563   0.25000   0.00000  Uiso   1.00
C55    C     0.24318   0.19347   0.38385   0.00000  Uiso   1.00
C56    C     0.27662   0.16285   0.38084   0.00000  Uiso   1.00
C57    C     0.31472   0.17689   0.36355   0.00000  Uiso   1.00
C58    C     0.31946   0.22132   0.34868   0.00000  Uiso   1.00
C59    C     0.28600   0.25167   0.35072   0.00000  Uiso   1.00
C60    C     0.24798   0.23792   0.36849   0.00000  Uiso   1.00
H61    H     0.27352   0.12862   0.39312   0.00000  Uiso   1.00
H62    H     0.00732   0.15343   0.36189   0.00000  Uiso   1.00
H63    H     0.01569   0.23217   0.33544   0.00000  Uiso   1.00
H64    H     0.28974   0.28604   0.33916   0.00000  Uiso   1.00
H65    H     0.22265   0.26206   0.37124   0.00000  Uiso   1.00
C66    C     0.09233   0.13380   0.11608   0.00000  Uiso   1.00
C67    C     0.08844   0.08809   0.12775   0.00000  Uiso   1.00
C68    C     0.05135   0.07236   0.14614   0.00000  Uiso   1.00
C69    C     0.01798   0.10209   0.15267   0.00000  Uiso   1.00
C70    C     0.02179   0.14768   0.14127   0.00000  Uiso   1.00
C71    C     0.05891   0.16364   0.12321   0.00000  Uiso   1.00
H72    H     0.11381   0.06460   0.12189   0.00000  Uiso   1.00
H73    H     0.04833   0.03704   0.15492   0.00000  Uiso   1.00
H74    H     0.32253   0.08982   0.16663   0.00000  Uiso   1.00
H75    H     0.32928   0.17063   0.14642   0.00000  Uiso   1.00
H76    H     0.06132   0.19889   0.11383   0.00000  Uiso   1.00
C77    C     0.05860   0.11657   0.44924   0.00000  Uiso   1.00
H78    H     0.06062   0.10263   0.41579   0.00000  Uiso   1.00
O79    O     0.02448   0.11669   0.46693   0.00000  Uiso   1.00
C80    C     0.27834   0.20642   0.05069   0.00000  Uiso   1.00
H81    H     0.28439   0.19585   0.08470   0.00000  Uiso   1.00
O82    O     0.30526   0.22851   0.03234   0.00000  Uiso   1.00
C83    C     0.41998   0.16672   0.25025   0.00000  Uiso   1.00
C84    C     0.58002   0.16662   0.24985   0.00000  Uiso   1.00
C85    C     0.42936   0.13448   0.02002   0.00000  Uiso   1.00
C86    C     0.57233   0.19404   0.47992   0.00000  Uiso   1.00
C87    C     0.35494   0.12744   0.26272   0.00000  Uiso   1.00
C88    C     0.64507   0.20598   0.23771   0.00000  Uiso   1.00
C89    C     0.64556   0.12724   0.26208   0.00000  Uiso   1.00
C90    C     0.35445   0.20617   0.23831   0.00000  Uiso   1.00
C91    C     0.62415   0.16654   0.24967   0.00000  Uiso   1.00
C92    C     0.37586   0.16685   0.25067   0.00000  Uiso   1.00
C93    C     0.53153   0.02403   0.27056   0.00000  Uiso   1.00
C94    C     0.46847   0.30931   0.22945   0.00000  Uiso   1.00
C95    C     0.46844   0.02391   0.22954   0.00000  Uiso   1.00
C96    C     0.53154   0.30942   0.27051   0.00000  Uiso   1.00
C97    C     0.49868   0.16651   0.16357   0.00000  Uiso   1.00
C98    C     0.50127   0.16680   0.33640   0.00000  Uiso   1.00
C99    C     0.53814   0.18033   0.40780   0.00000  Uiso   1.00
C100   C     0.46315   0.14946   0.09211   0.00000  Uiso   1.00
C101   C     0.50226   0.16698   0.38404   0.00000  Uiso   1.00
C102   C     0.49789   0.16596   0.11589   0.00000  Uiso   1.00
C103   C     0.46669   0.15220   0.40520   0.00000  Uiso   1.00
C104   C     0.53319   0.18142   0.09470   0.00000  Uiso   1.00
C105   C     0.46555   0.14983   0.45155   0.00000  Uiso   1.00
C106   C     0.53581   0.17967   0.04837   0.00000  Uiso   1.00
C107   C     0.50115   0.16453   0.47655   0.00000  Uiso   1.00
C108   C     0.50039   0.16443   0.02337   0.00000  Uiso   1.00
C109   C     0.53744   0.17976   0.45468   0.00000  Uiso   1.00
C110   C     0.46404   0.14941   0.04525   0.00000  Uiso   1.00
C111   C     0.42955   0.13425   0.47351   0.00000  Uiso   1.00
C112   C     0.57240   0.19357   0.02643   0.00000  Uiso   1.00
H113   H     0.43994   0.14337   0.38452   0.00000  Uiso   1.00
H114   H     0.55833   0.19469   0.11535   0.00000  Uiso   1.00
H115   H     0.40176   0.12223   0.03645   0.00000  Uiso   1.00
H116   H     0.60026   0.20533   0.46348   0.00000  Uiso   1.00
H117   H     0.37149   0.09700   0.27264   0.00000  Uiso   1.00
H118   H     0.62853   0.23643   0.22779   0.00000  Uiso   1.00
H119   H     0.62941   0.09674   0.27182   0.00000  Uiso   1.00
H120   H     0.37059   0.23667   0.22855   0.00000  Uiso   1.00
H121   H     0.55674   0.04219   0.28705   0.00000  Uiso   1.00
H122   H     0.44325   0.29116   0.21297   0.00000  Uiso   1.00
H123   H     0.44315   0.04200   0.21337   0.00000  Uiso   1.00
H124   H     0.55681   0.29135   0.28678   0.00000  Uiso   1.00
N125   N     0.50000   0.28573   0.25000   0.00000  Uiso   1.00
N126   N     0.50000   0.04760   0.25000   0.00000  Uiso   1.00
O127   O     0.43892   0.20487   0.24999   0.00000  Uiso   1.00
O128   O     0.56108   0.12846   0.25000   0.00000  Uiso   1.00
O129   O     0.56108   0.20487   0.25000   0.00000  Uiso   1.00
O130   O     0.43892   0.12846   0.24999   0.00000  Uiso   1.00
O131   O     0.49999   0.20489   0.18392   0.00000  Uiso   1.00
O132   O     0.50001   0.12844   0.31607   0.00000  Uiso   1.00
O133   O     0.50001   0.20489   0.31607   0.00000  Uiso   1.00
O134   O     0.49999   0.12844   0.18392   0.00000  Uiso   1.00
Zn135  Zn    0.50000   0.21771   0.25000   0.00000  Uiso   1.00
Zn136  Zn    0.50000   0.11563   0.25000   0.00000  Uiso   1.00
C137   C     0.57651   0.19347   0.38385   0.00000  Uiso   1.00
C138   C     0.60996   0.16285   0.38084   0.00000  Uiso   1.00
C139   C     0.64805   0.17689   0.36355   0.00000  Uiso   1.00
C140   C     0.65279   0.22132   0.34868   0.00000  Uiso   1.00
C141   C     0.61934   0.25167   0.35072   0.00000  Uiso   1.00
C142   C     0.58132   0.23792   0.36849   0.00000  Uiso   1.00
H143   H     0.60685   0.12862   0.39312   0.00000  Uiso   1.00
H144   H     0.34065   0.15343   0.36189   0.00000  Uiso   1.00
H145   H     0.34903   0.23217   0.33544   0.00000  Uiso   1.00
H146   H     0.62308   0.28604   0.33916   0.00000  Uiso   1.00
H147   H     0.55599   0.26206   0.37124   0.00000  Uiso   1.00
C148   C     0.42566   0.13380   0.11608   0.00000  Uiso   1.00
C149   C     0.42177   0.08809   0.12775   0.00000  Uiso   1.00
C150   C     0.38469   0.07236   0.14614   0.00000  Uiso   1.00
C151   C     0.35131   0.10209   0.15267   0.00000  Uiso   1.00
C152   C     0.35512   0.14768   0.14127   0.00000  Uiso   1.00
C153   C     0.39224   0.16364   0.12321   0.00000  Uiso   1.00
H154   H     0.44714   0.06460   0.12189   0.00000  Uiso   1.00
H155   H     0.38167   0.03704   0.15492   0.00000  Uiso   1.00
H156   H     0.65586   0.08982   0.16663   0.00000  Uiso   1.00
H157   H     0.66261   0.17063   0.14642   0.00000  Uiso   1.00
H158   H     0.39465   0.19889   0.11383   0.00000  Uiso   1.00
C159   C     0.39193   0.11657   0.44924   0.00000  Uiso   1.00
H160   H     0.39396   0.10263   0.41579   0.00000  Uiso   1.00
O161   O     0.35781   0.11669   0.46693   0.00000  Uiso   1.00
C162   C     0.61168   0.20642   0.05069   0.00000  Uiso   1.00
H163   H     0.61772   0.19585   0.08470   0.00000  Uiso   1.00
O164   O     0.63860   0.22851   0.03234   0.00000  Uiso   1.00
C165   C     0.75332   0.16672   0.25025   0.00000  Uiso   1.00
C166   C     0.91335   0.16662   0.24985   0.00000  Uiso   1.00
C167   C     0.76269   0.13448   0.02002   0.00000  Uiso   1.00
C168   C     0.90566   0.19404   0.47992   0.00000  Uiso   1.00
C169   C     0.68828   0.12744   0.26272   0.00000  Uiso   1.00
C170   C     0.97840   0.20598   0.23771   0.00000  Uiso   1.00
C171   C     0.97889   0.12724   0.26208   0.00000  Uiso   1.00
C172   C     0.68779   0.20617   0.23831   0.00000  Uiso   1.00
C173   C     0.95749   0.16654   0.24967   0.00000  Uiso   1.00
C174   C     0.70919   0.16685   0.25067   0.00000  Uiso   1.00
C175   C     0.86486   0.02403   0.27056   0.00000  Uiso   1.00
C176   C     0.80180   0.30931   0.22945   0.00000  Uiso   1.00
C177   C     0.80178   0.02391   0.22954   0.00000  Uiso   1.00
C178   C     0.86488   0.30942   0.27051   0.00000  Uiso   1.00
C179   C     0.83201   0.16651   0.16357   0.00000  Uiso   1.00
C180   C     0.83460   0.16680   0.33640   0.00000  Uiso   1.00
C181   C     0.87148   0.18033   0.40780   0.00000  Uiso   1.00
C182   C     0.79648   0.14946   0.09211   0.00000  Uiso   1.00
C183   C     0.83559   0.16698   0.38404   0.00000  Uiso   1.00
C184   C     0.83122   0.16596   0.11589   0.00000  Uiso   1.00
C185   C     0.80002   0.15220   0.40520   0.00000  Uiso   1.00
C186   C     0.86652   0.18142   0.09470   0.00000  Uiso   1.00
C187   C     0.79888   0.14983   0.45155   0.00000  Uiso   1.00
C188   C     0.86914   0.17967   0.04837   0.00000  Uiso   1.00
C189   C     0.83448   0.16453   0.47655   0.00000  Uiso   1.00
C190   C     0.83373   0.16443   0.02337   0.00000  Uiso   1.00
C191   C     0.87077   0.17976   0.45468   0.00000  Uiso   1.00
C192   C     0.79737   0.14941   0.04525   0.00000  Uiso   1.00
C193   C     0.76288   0.13425   0.47351   0.00000  Uiso   1.00
C194   C     0.90573   0.19357   0.02643   0.00000  Uiso   1.00
H195   H     0.77328   0.14337   0.38452   0.00000  Uiso   1.00
H196   H     0.89166   0.19469   0.11535   0.00000  Uiso   1.00
H197   H     0.73509   0.12223   0.03645   0.00000  Uiso   1.00
H198   H     0.93359   0.20533   0.46348   0.00000  Uiso   1.00
H199   H     0.70482   0.09700   0.27264   0.00000  Uiso   1.00
H200   H     0.96186   0.23643   0.22779   0.00000  Uiso   1.00
H201   H     0.96274   0.09674   0.27182   0.00000  Uiso   1.00
H202   H     0.70393   0.23667   0.22855   0.00000  Uiso   1.00
H203   H     0.89007   0.04219   0.28705   0.00000  Uiso   1.00
H204   H     0.77658   0.29116   0.21297   0.00000  Uiso   1.00
H205   H     0.77648   0.04200   0.21337   0.00000  Uiso   1.00
H206   H     0.89015   0.29135   0.28678   0.00000  Uiso   1.00
N207   N     0.83333   0.28573   0.25000   0.00000  Uiso   1.00
N208   N     0.83333   0.04760   0.25000   0.00000  Uiso   1.00
O209   O     0.77226   0.20487   0.24999   0.00000  Uiso   1.00
O210   O     0.89441   0.12846   0.25000   0.00000  Uiso   1.00
O211   O     0.89441   0.20487   0.25000   0.00000  Uiso   1.00
O212   O     0.77226   0.12846   0.24999   0.00000  Uiso   1.00
O213   O     0.83333   0.20489   0.18392   0.00000  Uiso   1.00
O214   O     0.83334   0.12844   0.31607   0.00000  Uiso   1.00
O215   O     0.83334   0.20489   0.31607   0.00000  Uiso   1.00
O216   O     0.83333   0.12844   0.18392   0.00000  Uiso   1.00
Zn217  Zn    0.83333   0.21771   0.25000   0.00000  Uiso   1.00
Zn218  Zn    0.83333   0.11563   0.25000   0.00000  Uiso   1.00
C219   C     0.90984   0.19347   0.38385   0.00000  Uiso   1.00
C220   C     0.94329   0.16285   0.38084   0.00000  Uiso   1.00
C221   C     0.98139   0.17689   0.36355   0.00000  Uiso   1.00
C222   C     0.98613   0.22132   0.34868   0.00000  Uiso   1.00
C223   C     0.95267   0.25167   0.35072   0.00000  Uiso   1.00
C224   C     0.91465   0.23792   0.36849   0.00000  Uiso   1.00
H225   H     0.94019   0.12862   0.39312   0.00000  Uiso   1.00
H226   H     0.67398   0.15343   0.36189   0.00000  Uiso   1.00
H227   H     0.68236   0.23217   0.33544   0.00000  Uiso   1.00
H228   H     0.95641   0.28604   0.33916   0.00000  Uiso   1.00
H229   H     0.88932   0.26206   0.37124   0.00000  Uiso   1.00
C230   C     0.75899   0.13380   0.11608   0.00000  Uiso   1.00
C231   C     0.75510   0.08809   0.12775   0.00000  Uiso   1.00
C232   C     0.71802   0.07236   0.14614   0.00000  Uiso   1.00
C233   C     0.68465   0.10209   0.15267   0.00000  Uiso   1.00
C234   C     0.68846   0.14768   0.14127   0.00000  Uiso   1.00
C235   C     0.72558   0.16364   0.12321   0.00000  Uiso   1.00
H236   H     0.78047   0.06460   0.12189   0.00000  Uiso   1.00
H237   H     0.71500   0.03704   0.15492   0.00000  Uiso   1.00
H238   H     0.98920   0.08982   0.16663   0.00000  Uiso   1.00
H239   H     0.99594   0.17063   0.14642   0.00000  Uiso   1.00
H240   H     0.72798   0.19889   0.11383   0.00000  Uiso   1.00
C241   C     0.72527   0.11657   0.44924   0.00000  Uiso   1.00
H242   H     0.72729   0.10263   0.41579   0.00000  Uiso   1.00
O243   O     0.69115   0.11669   0.46693   0.00000  Uiso   1.00
C244   C     0.94501   0.20642   0.05069   0.00000  Uiso   1.00
H245   H     0.95105   0.19585   0.08470   0.00000  Uiso   1.00
O246   O     0.97193   0.22851   0.03234   0.00000  Uiso   1.00
C247   C     0.08665   0.50005   0.25025   0.00000  Uiso   1.00
C248   C     0.24668   0.49996   0.24985   0.00000  Uiso   1.00
C249   C     0.09603   0.46782   0.02002   0.00000  Uiso   1.00
C250   C     0.23900   0.52737   0.47992   0.00000  Uiso   1.00
C251   C     0.02161   0.46078   0.26272   0.00000  Uiso   1.00
C252   C     0.31173   0.53932   0.23771   0.00000  Uiso   1.00
C253   C     0.31222   0.46058   0.26208   0.00000  Uiso   1.00
C254   C     0.02112   0.53951   0.23831   0.00000  Uiso   1.00
C255   C     0.29082   0.49987   0.24967   0.00000  Uiso   1.00
C256   C     0.04252   0.50019   0.25067   0.00000  Uiso   1.00
C257   C     0.19820   0.35736   0.27056   0.00000  Uiso   1.00
C258   C     0.13513   0.64264   0.22945   0.00000  Uiso   1.00
C259   C     0.13511   0.35724   0.22954   0.00000  Uiso   1.00
C260   C     0.19821   0.64276   0.27051   0.00000  Uiso   1.00
C261   C     0.16535   0.49984   0.16357   0.00000  Uiso   1.00
C262   C     0.16793   0.50014   0.33640   0.00000  Uiso   1.00
C263   C     0.20481   0.51367   0.40780   0.00000  Uiso   1.00
C264   C     0.12982   0.48279   0.09211   0.00000  Uiso   1.00
C265   C     0.16893   0.50031   0.38404   0.00000  Uiso   1.00
C266   C     0.16456   0.49929   0.11589   0.00000  Uiso   1.00
C267   C     0.13336   0.48553   0.40520   0.00000  Uiso   1.00
C268   C     0.19986   0.51475   0.09470   0.00000  Uiso   1.00
C269   C     0.13221   0.48317   0.45155   0.00000  Uiso   1.00
C270   C     0.20247   0.51300   0.04837   0.00000  Uiso   1.00
C271   C     0.16782   0.49787   0.47655   0.00000  Uiso   1.00
C272   C     0.16706   0.49777   0.02337   0.00000  Uiso   1.00
C273   C     0.20410   0.51310   0.45468   0.00000  Uiso   1.00
C274   C     0.13070   0.48274   0.04525   0.00000  Uiso   1.00
C275   C     0.09622   0.46758   0.47351   0.00000  Uiso   1.00
C276   C     0.23907   0.52690   0.02643   0.00000  Uiso   1.00
H277   H     0.10661   0.47670   0.38452   0.00000  Uiso   1.00
H278   H     0.22499   0.52802   0.11535   0.00000  Uiso   1.00
H279   H     0.06843   0.45557   0.03645   0.00000  Uiso   1.00
H280   H     0.26693   0.53866   0.46348   0.00000  Uiso   1.00
H281   H     0.03815   0.43033   0.27264   0.00000  Uiso   1.00
H282   H     0.29520   0.56977   0.22779   0.00000  Uiso   1.00
H283   H     0.29607   0.43007   0.27182   0.00000  Uiso   1.00
H284   H     0.03726   0.57001   0.22855   0.00000  Uiso   1.00
H285   H     0.22341   0.37552   0.28705   0.00000  Uiso   1.00
H286   H     0.10991   0.62449   0.21297   0.00000  Uiso   1.00
H287   H     0.10982   0.37533   0.21337   0.00000  Uiso   1.00
H288   H     0.22348   0.62468   0.28678   0.00000  Uiso   1.00
N289   N     0.16667   0.61907   0.25000   0.00000  Uiso   1.00
N290   N     0.16667   0.38093   0.25000   0.00000  Uiso   1.00
O291   O     0.10559   0.53821   0.24999   0.00000  Uiso   1.00
O292   O     0.22774   0.46179   0.25000   0.00000  Uiso   1.00
O293   O     0.22774   0.53821   0.25000   0.00000  Uiso   1.00
O294   O     0.10559   0.46179   0.24999   0.00000  Uiso   1.00
O295   O     0.16666   0.53823   0.18392   0.00000  Uiso   1.00
O296   O     0.16667   0.46177   0.31607   0.00000  Uiso   1.00
O297   O     0.16667   0.53823   0.31607   0.00000  Uiso   1.00
O298   O     0.16666   0.46177   0.18392   0.00000  Uiso   1.00
Zn299  Zn    0.16667   0.55104   0.25000   0.00000  Uiso   1.00
Zn300  Zn    0.16667   0.44896   0.25000   0.00000  Uiso   1.00
C301   C     0.24318   0.52681   0.38385   0.00000  Uiso   1.00
C302   C     0.27662   0.49618   0.38084   0.00000  Uiso   1.00
C303   C     0.31472   0.51023   0.36355   0.00000  Uiso   1.00
C304   C     0.31946   0.55465   0.34868   0.00000  Uiso   1.00
C305   C     0.28600   0.58500   0.35072   0.00000  Uiso   1.00
C306   C     0.24798   0.57125   0.36849   0.00000  Uiso   1.00
H307   H     0.27352   0.46196   0.39312   0.00000  Uiso   1.00
H308   H     0.00732   0.48676   0.36189   0.00000  Uiso   1.00
H309   H     0.01569   0.56550   0.33544   0.00000  Uiso   1.00
H310   H     0.28974   0.61938   0.33916   0.00000  Uiso   1.00
H311   H     0.22265   0.59540   0.37124   0.00000  Uiso   1.00
C312   C     0.09233   0.46713   0.11608   0.00000  Uiso   1.00
C313   C     0.08844   0.42142   0.12775   0.00000  Uiso   1.00
C314   C     0.05135   0.40569   0.14614   0.00000  Uiso   1.00
C315   C     0.01798   0.43542   0.15267   0.00000  Uiso   1.00
C316   C     0.02179   0.48102   0.14127   0.00000  Uiso   1.00
C317   C     0.05891   0.49698   0.12321   0.00000  Uiso   1.00
H318   H     0.11381   0.39793   0.12189   0.00000  Uiso   1.00
H319   H     0.04833   0.37037   0.15492   0.00000  Uiso   1.00
H320   H     0.32253   0.42316   0.16663   0.00000  Uiso   1.00
H321   H     0.32928   0.50397   0.14642   0.00000  Uiso   1.00
H322   H     0.06132   0.53222   0.11383   0.00000  Uiso   1.00
C323   C     0.05860   0.44990   0.44924   0.00000  Uiso   1.00
H324   H     0.06062   0.43596   0.41579   0.00000  Uiso   1.00
O325   O     0.02448   0.45002   0.46693   0.00000  Uiso   1.00
C326   C     0.27834   0.53976   0.05069   0.00000  Uiso   1.00
H327   H     0.28439   0.52918   0.08470   0.00000  Uiso   1.00
O328   O     0.30526   0.56184   0.03234   0.00000  Uiso   1.00
C329   C     0.41998   0.50005   0.25025   0.00000  Uiso   1.00
C330   C     0.58002   0.49996   0.24985   0.00000  Uiso   1.00
C331   C     0.42936   0.46782   0.02002   0.00000  Uiso   1.00
C332   C     0.57233   0.52737   0.47992   0.00000  Uiso   1.00
C333   C     0.35494   0.46078   0.26272   0.00000  Uiso   1.00
C334   C     0.64507   0.53932   0.23771   0.00000  Uiso   1.00
C335   C     0.64556   0.46058   0.26208   0.00000  Uiso   1.00
C336   C     0.35445   0.53951   0.23831   0.00000  Uiso   1.00
C337   C     0.62415   0.49987   0.24967   0.00000  Uiso   1.00
C338   C     0.37586   0.50019   0.25067   0.00000  Uiso   1.00
C339   C     0.53153   0.35736   0.27056   0.00000  Uiso   1.00
C340   C     0.46847   0.64264   0.22945   0.00000  Uiso   1.00
C341   C     0.46844   0.35724   0.22954   0.00000  Uiso   1.00
C342   C     0.53154   0.64276   0.27051   0.00000  Uiso   1.00
C343   C     0.49868   0.49984   0.16357   0.00000  Uiso   1.00
C344   C     0.50127   0.50014   0.33640   0.00000  Uiso   1.00
C345   C     0.53814   0.51367   0.40780   0.00000  Uiso   1.00
C346   C     0.46315   0.48279   0.09211   0.00000  Uiso   1.00
C347   C     0.50226   0.50031   0.38404   0.00000  Uiso   1.00
C348   C     0.49789   0.49929   0.11589   0.00000  Uiso   1.00
C349   C     0.46669   0.48553   0.40520   0.00000  Uiso   1.00
C350   C     0.53319   0.51475   0.09470   0.00000  Uiso   1.00
C351   C     0.46555   0.48317   0.45155   0.00000  Uiso   1.00
C352   C     0.53581   0.51300   0.04837   0.00000  Uiso   1.00
C353   C     0.50115   0.49787   0.47655   0.00000  Uiso   1.00
C354   C     0.50039   0.49777   0.02337   0.00000  Uiso   1.00
C355   C     0.53744   0.51310   0.45468   0.00000  Uiso   1.00
C356   C     0.46404   0.48274   0.04525   0.00000  Uiso   1.00
C357   C     0.42955   0.46758   0.47351   0.00000  Uiso   1.00
C358   C     0.57240   0.52690   0.02643   0.00000  Uiso   1.00
H359   H     0.43994   0.47670   0.38452   0.00000  Uiso   1.00
H360   H     0.55833   0.52802   0.11535   0.00000  Uiso   1.00
H361   H     0.40176   0.45557   0.03645   0.00000  Uiso   1.00
H362   H     0.60026   0.53866   0.46348   0.00000  Uiso   1.00
H363   H     0.37149   0.43033   0.27264   0.00000  Uiso   1.00
H364   H     0.62853   0.56977   0.22779   0.00000  Uiso   1.00
H365   H     0.62941   0.43007   0.27182   0.00000  Uiso   1.00
H366   H     0.37059   0.57001   0.22855   0.00000  Uiso   1.00
H367   H     0.55674   0.37552   0.28705   0.00000  Uiso   1.00
H368   H     0.44325   0.62449   0.21297   0.00000  Uiso   1.00
H369   H     0.44315   0.37533   0.21337   0.00000  Uiso   1.00
H370   H     0.55681   0.62468   0.28678   0.00000  Uiso   1.00
N371   N     0.50000   0.61907   0.25000   0.00000  Uiso   1.00
N372   N     0.50000   0.38093   0.25000   0.00000  Uiso   1.00
O373   O     0.43892   0.53821   0.24999   0.00000  Uiso   1.00
O374   O     0.56108   0.46179   0.25000   0.00000  Uiso   1.00
O375   O     0.56108   0.53821   0.25000   0.00000  Uiso   1.00
O376   O     0.43892   0.46179   0.24999   0.00000  Uiso   1.00
O377   O     0.49999   0.53823   0.18392   0.00000  Uiso   1.00
O378   O     0.50001   0.46177   0.31607   0.00000  Uiso   1.00
O379   O     0.50001   0.53823   0.31607   0.00000  Uiso   1.00
O380   O     0.49999   0.46177   0.18392   0.00000  Uiso   1.00
Zn381  Zn    0.50000   0.55104   0.25000   0.00000  Uiso   1.00
Zn382  Zn    0.50000   0.44896   0.25000   0.00000  Uiso   1.00
C383   C     0.57651   0.52681   0.38385   0.00000  Uiso   1.00
C384   C     0.60996   0.49618   0.38084   0.00000  Uiso   1.00
C385   C     0.64805   0.51023   0.36355   0.00000  Uiso   1.00
C386   C     0.65279   0.55465   0.34868   0.00000  Uiso   1.00
C387   C     0.61934   0.58500   0.35072   0.00000  Uiso   1.00
C388   C     0.58132   0.57125   0.36849   0.00000  Uiso   1.00
H389   H     0.60685   0.46196   0.39312   0.00000  Uiso   1.00
H390   H     0.34065   0.48676   0.36189   0.00000  Uiso   1.00
H391   H     0.34903   0.56550   0.33544   0.00000  Uiso   1.00
H392   H     0.62308   0.61938   0.33916   0.00000  Uiso   1.00
H393   H     0.55599   0.59540   0.37124   0.00000  Uiso   1.00
C394   C     0.42566   0.46713   0.11608   0.00000  Uiso   1.00
C395   C     0.42177   0.42142   0.12775   0.00000  Uiso   1.00
C396   C     0.38469   0.40569   0.14614   0.00000  Uiso   1.00
C397   C     0.35131   0.43542   0.15267   0.00000  Uiso   1.00
C398   C     0.35512   0.48102   0.14127   0.00000  Uiso   1.00
C399   C     0.39224   0.49698   0.12321   0.00000  Uiso   1.00
H400   H     0.44714   0.39793   0.12189   0.00000  Uiso   1.00
H401   H     0.38167   0.37037   0.15492   0.00000  Uiso   1.00
H402   H     0.65586   0.42316   0.16663   0.00000  Uiso   1.00
H403   H     0.66261   0.50397   0.14642   0.00000  Uiso   1.00
H404   H     0.39465   0.53222   0.11383   0.00000  Uiso   1.00
C405   C     0.39193   0.44990   0.44924   0.00000  Uiso   1.00
H406   H     0.39396   0.43596   0.41579   0.00000  Uiso   1.00
O407   O     0.35781   0.45002   0.46693   0.00000  Uiso   1.00
C408   C     0.61168   0.53976   0.05069   0.00000  Uiso   1.00
H409   H     0.61772   0.52918   0.08470   0.00000  Uiso   1.00
O410   O     0.63860   0.56184   0.03234   0.00000  Uiso   1.00
C411   C     0.75332   0.50005   0.25025   0.00000  Uiso   1.00
C412   C     0.91335   0.49996   0.24985   0.00000  Uiso   1.00
C413   C     0.76269   0.46782   0.02002   0.00000  Uiso   1.00
C414   C     0.90566   0.52737   0.47992   0.00000  Uiso   1.00
C415   C     0.68828   0.46078   0.26272   0.00000  Uiso   1.00
C416   C     0.97840   0.53932   0.23771   0.00000  Uiso   1.00
C417   C     0.97889   0.46058   0.26208   0.00000  Uiso   1.00
C418   C     0.68779   0.53951   0.23831   0.00000  Uiso   1.00
C419   C     0.95749   0.49987   0.24967   0.00000  Uiso   1.00
C420   C     0.70919   0.50019   0.25067   0.00000  Uiso   1.00
C421   C     0.86486   0.35736   0.27056   0.00000  Uiso   1.00
C422   C     0.80180   0.64264   0.22945   0.00000  Uiso   1.00
C423   C     0.80178   0.35724   0.22954   0.00000  Uiso   1.00
C424   C     0.86488   0.64276   0.27051   0.00000  Uiso   1.00
C425   C     0.83201   0.49984   0.16357   0.00000  Uiso   1.00
C426   C     0.83460   0.50014   0.33640   0.00000  Uiso   1.00
C427   C     0.87148   0.51367   0.40780   0.00000  Uiso   1.00
C428   C     0.79648   0.48279   0.09211   0.00000  Uiso   1.00
C429   C     0.83559   0.50031   0.38404   0.00000  Uiso   1.00
C430   C     0.83122   0.49929   0.11589   0.00000  Uiso   1.00
C431   C     0.80002   0.48553   0.40520   0.00000  Uiso   1.00
C432   C     0.86652   0.51475   0.09470   0.00000  Uiso   1.00
C433   C     0.79888   0.48317   0.45155   0.00000  Uiso   1.00
C434   C     0.86914   0.51300   0.04837   0.00000  Uiso   1.00
C435   C     0.83448   0.49787   0.47655   0.00000  Uiso   1.00
C436   C     0.83373   0.49777   0.02337   0.00000  Uiso   1.00
C437   C     0.87077   0.51310   0.45468   0.00000  Uiso   1.00
C438   C     0.79737   0.48274   0.04525   0.00000  Uiso   1.00
C439   C     0.76288   0.46758   0.47351   0.00000  Uiso   1.00
C440   C     0.90573   0.52690   0.02643   0.00000  Uiso   1.00
H441   H     0.77328   0.47670   0.38452   0.00000  Uiso   1.00
H442   H     0.89166   0.52802   0.11535   0.00000  Uiso   1.00
H443   H     0.73509   0.45557   0.03645   0.00000  Uiso   1.00
H444   H     0.93359   0.53866   0.46348   0.00000  Uiso   1.00
H445   H     0.70482   0.43033   0.27264   0.00000  Uiso   1.00
H446   H     0.96186   0.56977   0.22779   0.00000  Uiso   1.00
H447   H     0.96274   0.43007   0.27182   0.00000  Uiso   1.00
H448   H     0.70393   0.57001   0.22855   0.00000  Uiso   1.00
H449   H     0.89007   0.37552   0.28705   0.00000  Uiso   1.00
H450   H     0.77658   0.62449   0.21297   0.00000  Uiso   1.00
H451   H     0.77648   0.37533   0.21337   0.00000  Uiso   1.00
H452   H     0.89015   0.62468   0.28678   0.00000  Uiso   1.00
N453   N     0.83333   0.61907   0.25000   0.00000  Uiso   1.00
N454   N     0.83333   0.38093   0.25000   0.00000  Uiso   1.00
O455   O     0.77226   0.53821   0.24999   0.00000  Uiso   1.00
O456   O     0.89441   0.46179   0.25000   0.00000  Uiso   1.00
O457   O     0.89441   0.53821   0.25000   0.00000  Uiso   1.00
O458   O     0.77226   0.46179   0.24999   0.00000  Uiso   1.00
O459   O     0.83333   0.53823   0.18392   0.00000  Uiso   1.00
O460   O     0.83334   0.46177   0.31607   0.00000  Uiso   1.00
O461   O     0.83334   0.53823   0.31607   0.00000  Uiso   1.00
O462   O     0.83333   0.46177   0.18392   0.00000  Uiso   1.00
Zn463  Zn    0.83333   0.55104   0.25000   0.00000  Uiso   1.00
Zn464  Zn    0.83333   0.44896   0.25000   0.00000  Uiso   1.00
C465   C     0.90984   0.52681   0.38385   0.00000  Uiso   1.00
C466   C     0.94329   0.49618   0.38084   0.00000  Uiso   1.00
C467   C     0.98139   0.51023   0.36355   0.00000  Uiso   1.00
C468   C     0.98613   0.55465   0.34868   0.00000  Uiso   1.00
C469   C     0.95267   0.58500   0.35072   0.00000  Uiso   1.00
C470   C     0.91465   0.57125   0.36849   0.00000  Uiso   1.00
H471   H     0.94019   0.46196   0.39312   0.00000  Uiso   1.00
H472   H     0.67398   0.48676   0.36189   0.00000  Uiso   1.00
H473   H     0.68236   0.56550   0.33544   0.00000  Uiso   1.00
H474   H     0.95641   0.61938   0.33916   0.00000  Uiso   1.00
H475   H     0.88932   0.59540   0.37124   0.00000  Uiso   1.00
C476   C     0.75899   0.46713   0.11608   0.00000  Uiso   1.00
C477   C     0.75510   0.42142   0.12775   0.00000  Uiso   1.00
C478   C     0.71802   0.40569   0.14614   0.00000  Uiso   1.00
C479   C     0.68465   0.43542   0.15267   0.00000  Uiso   1.00
C480   C     0.68846   0.48102   0.14127   0.00000  Uiso   1.00
C481   C     0.72558   0.49698   0.12321   0.00000  Uiso   1.00
H482   H     0.78047   0.39793   0.12189   0.00000  Uiso   1.00
H483   H     0.71500   0.37037   0.15492   0.00000  Uiso   1.00
H484   H     0.98920   0.42316   0.16663   0.00000  Uiso   1.00
H485   H     0.99594   0.50397   0.14642   0.00000  Uiso   1.00
H486   H     0.72798   0.53222   0.11383   0.00000  Uiso   1.00
C487   C     0.72527   0.44990   0.44924   0.00000  Uiso   1.00
H488   H     0.72729   0.43596   0.41579   0.00000  Uiso   1.00
O489   O     0.69115   0.45002   0.46693   0.00000  Uiso   1.00
C490   C     0.94501   0.53976   0.05069   0.00000  Uiso   1.00
H491   H     0.95105   0.52918   0.08470   0.00000  Uiso   1.00
O492   O     0.97193   0.56184   0.03234   0.00000  Uiso   1.00
C493   C     0.08665   0.83339   0.25025   0.00000  Uiso   1.00
C494   C     0.24668   0.83329   0.24985   0.00000  Uiso   1.00
C495   C     0.09603   0.80115   0.02002   0.00000  Uiso   1.00
C496   C     0.23900   0.86070   0.47992   0.00000  Uiso   1.00
C497   C     0.02161   0.79411   0.26272   0.00000  Uiso   1.00
C498   C     0.31173   0.87265   0.23771   0.00000  Uiso   1.00
C499   C     0.31222   0.79391   0.26208   0.00000  Uiso   1.00
C500   C     0.02112   0.87284   0.23831   0.00000  Uiso   1.00
C501   C     0.29082   0.83321   0.24967   0.00000  Uiso   1.00
C502   C     0.04252   0.83352   0.25067   0.00000  Uiso   1.00
C503   C     0.19820   0.69069   0.27056   0.00000  Uiso   1.00
C504   C     0.13513   0.97598   0.22945   0.00000  Uiso   1.00
C505   C     0.13511   0.69058   0.22954   0.00000  Uiso   1.00
C506   C     0.19821   0.97609   0.27051   0.00000  Uiso   1.00
C507   C     0.16535   0.83317   0.16357   0.00000  Uiso   1.00
C508   C     0.16793   0.83347   0.33640   0.00000  Uiso   1.00
C509   C     0.20481   0.84700   0.40780   0.00000  Uiso   1.00
C510   C     0.12982   0.81613   0.09211   0.00000  Uiso   1.00
C511   C     0.16893   0.83365   0.38404   0.00000  Uiso   1.00
C512   C     0.16456   0.83262   0.11589   0.00000  Uiso   1.00
C513   C     0.13336   0.81887   0.40520   0.00000  Uiso   1.00
C514   C     0.19986   0.84809   0.09470   0.00000  Uiso   1.00
C515   C     0.13221   0.81650   0.45155   0.00000  Uiso   1.00
C516   C     0.20247   0.84634   0.04837   0.00000  Uiso   1.00
C517   C     0.16782   0.83120   0.47655   0.00000  Uiso   1.00
C518   C     0.16706   0.83110   0.02337   0.00000  Uiso   1.00
C519   C     0.20410   0.84643   0.45468   0.00000  Uiso   1.00
C520   C     0.13070   0.81607   0.04525   0.00000  Uiso   1.00
C521   C     0.09622   0.80091   0.47351   0.00000  Uiso   1.00
C522   C     0.23907   0.86024   0.02643   0.00000  Uiso   1.00
H523   H     0.10661   0.81003   0.38452   0.00000  Uiso   1.00
H524   H     0.22499   0.86135   0.11535   0.00000  Uiso   1.00
H525   H     0.06843   0.78890   0.03645   0.00000  Uiso   1.00
H526   H     0.26693   0.87199   0.46348   0.00000  Uiso   1.00
H527   H     0.03815   0.76366   0.27264   0.00000  Uiso   1.00
H528   H     0.29520   0.90310   0.22779   0.00000  Uiso   1.00
H529   H     0.29607   0.76341   0.27182   0.00000  Uiso   1.00
H530   H     0.03726   0.90334   0.22855   0.00000  Uiso   1.00
H531   H     0.22341   0.70885   0.28705   0.00000  Uiso   1.00
H532   H     0.10991   0.95782   0.21297   0.00000  Uiso   1.00
H533   H     0.10982   0.70866   0.21337   0.00000  Uiso   1.00
H534   H     0.22348   0.95802   0.28678   0.00000  Uiso   1.00
N535   N     0.16667   0.95240   0.25000   0.00000  Uiso   1.00
N536   N     0.16667   0.71427   0.25000   0.00000  Uiso   1.00
O537   O     0.10559   0.87154   0.24999   0.00000  Uiso   1.00
O538   O     0.22774   0.79513   0.25000   0.00000  Uiso   1.00
O539   O     0.22774   0.87154   0.25000   0.00000  Uiso   1.00
O540   O     0.10559   0.79513   0.24999   0.00000  Uiso   1.00
O541   O     0.16666   0.87156   0.18392   0.00000  Uiso   1.00
O542   O     0.16667   0.79511   0.31607   0.00000  Uiso   1.00
O543   O     0.16667   0.87156   0.31607   0.00000  Uiso   1.00
O544   O     0.16666   0.79511   0.18392   0.00000  Uiso   1.00
Zn545  Zn    0.16667   0.88437   0.25000   0.00000  Uiso   1.00
Zn546  Zn    0.16667   0.78229   0.25000   0.00000  Uiso   1.00
C547   C     0.24318   0.86014   0.38385   0.00000  Uiso   1.00
C548   C     0.27662   0.82952   0.38084   0.00000  Uiso   1.00
C549   C     0.31472   0.84356   0.36355   0.00000  Uiso   1.00
C550   C     0.31946   0.88798   0.34868   0.00000  Uiso   1.00
C551   C     0.28600   0.91833   0.35072   0.00000  Uiso   1.00
C552   C     0.24798   0.90458   0.36849   0.00000  Uiso   1.00
H553   H     0.27352   0.79529   0.39312   0.00000  Uiso   1.00
H554   H     0.00732   0.82009   0.36189   0.00000  Uiso   1.00
H555   H     0.01569   0.89884   0.33544   0.00000  Uiso   1.00
H556   H     0.28974   0.95271   0.33916   0.00000  Uiso   1.00
H557   H     0.22265   0.92873   0.37124   0.00000  Uiso   1.00
C558   C     0.09233   0.80047   0.11608   0.00000  Uiso   1.00
C559   C     0.08844   0.75475   0.12775   0.00000  Uiso   1.00
C560   C     0.05135   0.73903   0.14614   0.00000  Uiso   1.00
C561   C     0.01798   0.76875   0.15267   0.00000  Uiso   1.00
C562   C     0.02179   0.81435   0.14127   0.00000  Uiso   1.00
C563   C     0.05891   0.83031   0.12321   0.00000  Uiso   1.00
H564   H     0.11381   0.73127   0.12189   0.00000  Uiso   1.00
H565   H     0.04833   0.70371   0.15492   0.00000  Uiso   1.00
H566   H     0.32253   0.75649   0.16663   0.00000  Uiso   1.00
H567   H     0.32928   0.83730   0.14642   0.00000  Uiso   1.00
H568   H     0.06132   0.86555   0.11383   0.00000  Uiso   1.00
C569   C     0.05860   0.78324   0.44924   0.00000  Uiso   1.00
H570   H     0.06062   0.76929   0.41579   0.00000  Uiso   1.00
O571   O     0.02448   0.78336   0.46693   0.00000  Uiso   1.00
C572   C     0.27834   0.87309   0.05069   0.00000  Uiso   1.00
H573   H     0.28439   0.86252   0.08470   0.00000  Uiso   1.00
O574   O     0.30526   0.89518   0.03234   0.00000  Uiso   1.00
C575   C     0.41998   0.83339   0.25025   0.00000  Uiso   1.00
C576   C     0.58002   0.83329   0.24985   0.00000  Uiso   1.00
C577   C     0.42936   0.80115   0.02002   0.00000  Uiso   1.00
C578   C     0.57233   0.86070   0.47992   0.00000  Uiso   1.00
C579   C     0.35494   0.79411   0.26272   0.00000  Uiso   1.00
C580   C     0.64507   0.87265   0.23771   0.00000  Uiso   1.00
C581   C     0.64556   0.79391   0.26208   0.00000  Uiso   1.00
C582   C     0.35445   0.87284   0.23831   0.00000  Uiso   1.00
C583   C     0.62415   0.83321   0.24967   0.00000  Uiso   1.00
C584   C     0.37586   0.83352   0.25067   0.00000  Uiso   1.00
C585   C     0.53153   0.69069   0.27056   0.00000  Uiso   1.00
C586   C     0.46847   0.97598   0.22945   0.00000  Uiso   1.00
C587   C     0.46844   0.69058   0.22954   0.00000  Uiso   1.00
C588   C     0.53154   0.97609   0.27051   0.00000  Uiso   1.00
C589   C     0.49868   0.83317   0.16357   0.00000  Uiso   1.00
C590   C     0.50127   0.83347   0.33640   0.00000  Uiso   1.00
C591   C     0.53814   0.84700   0.40780   0.00000  Uiso   1.00
C592   C     0.46315   0.81613   0.09211   0.00000  Uiso   1.00
C593   C     0.50226   0.83365   0.38404   0.00000  Uiso   1.00
C594   C     0.49789   0.83262   0.11589   0.00000  Uiso   1.00
C595   C     0.46669   0.81887   0.40520   0.00000  Uiso   1.00
C596   C     0.53319   0.84809   0.09470   0.00000  Uiso   1.00
C597   C     0.46555   0.81650   0.45155   0.00000  Uiso   1.00
C598   C     0.53581   0.84634   0.04837   0.00000  Uiso   1.00
C599   C     0.50115   0.83120   0.47655   0.00000  Uiso   1.00
C600   C     0.50039   0.83110   0.02337   0.00000  Uiso   1.00
C601   C     0.53744   0.84643   0.45468   0.00000  Uiso   1.00
C602   C     0.46404   0.81607   0.04525   0.00000  Uiso   1.00
C603   C     0.42955   0.80091   0.47351   0.00000  Uiso   1.00
C604   C     0.57240   0.86024   0.02643   0.00000  Uiso   1.00
H605   H     0.43994   0.81003   0.38452   0.00000  Uiso   1.00
H606   H     0.55833   0.86135   0.11535   0.00000  Uiso   1.00
H607   H     0.40176   0.78890   0.03645   0.00000  Uiso   1.00
H608   H     0.60026   0.87199   0.46348   0.00000  Uiso   1.00
H609   H     0.37149   0.76366   0.27264   0.00000  Uiso   1.00
H610   H     0.62853   0.90310   0.22779   0.00000  Uiso   1.00
H611   H     0.62941   0.76341   0.27182   0.00000  Uiso   1.00
H612   H     0.37059   0.90334   0.22855   0.00000  Uiso   1.00
H613   H     0.55674   0.70885   0.28705   0.00000  Uiso   1.00
H614   H     0.44325   0.95782   0.21297   0.00000  Uiso   1.00
H615   H     0.44315   0.70866   0.21337   0.00000  Uiso   1.00
H616   H     0.55681   0.95802   0.28678   0.00000  Uiso   1.00
N617   N     0.50000   0.95240   0.25000   0.00000  Uiso   1.00
N618   N     0.50000   0.71427   0.25000   0.00000  Uiso   1.00
O619   O     0.43892   0.87154   0.24999   0.00000  Uiso   1.00
O620   O     0.56108   0.79513   0.25000   0.00000  Uiso   1.00
O621   O     0.56108   0.87154   0.25000   0.00000  Uiso   1.00
O622   O     0.43892   0.79513   0.24999   0.00000  Uiso   1.00
O623   O     0.49999   0.87156   0.18392   0.00000  Uiso   1.00
O624   O     0.50001   0.79511   0.31607   0.00000  Uiso   1.00
O625   O     0.50001   0.87156   0.31607   0.00000  Uiso   1.00
O626   O     0.49999   0.79511   0.18392   0.00000  Uiso   1.00
Zn627  Zn    0.50000   0.88437   0.25000   0.00000  Uiso   1.00
Zn628  Zn    0.50000   0.78229   0.25000   0.00000  Uiso   1.00
C629   C     0.57651   0.86014   0.38385   0.00000  Uiso   1.00
C630   C     0.60996   0.82952   0.38084   0.00000  Uiso   1.00
C631   C     0.64805   0.84356   0.36355   0.00000  Uiso   1.00
C632   C     0.65279   0.88798   0.34868   0.00000  Uiso   1.00
C633   C     0.61934   0.91833   0.35072   0.00000  Uiso   1.00
C634   C     0.58132   0.90458   0.36849   0.00000  Uiso   1.00
H635   H     0.60685   0.79529   0.39312   0.00000  Uiso   1.00
H636   H     0.34065   0.82009   0.36189   0.00000  Uiso   1.00
H637   H     0.34903   0.89884   0.33544   0.00000  Uiso   1.00
H638   H     0.62308   0.95271   0.33916   0.00000  Uiso   1.00
H639   H     0.55599   0.92873   0.37124   0.00000  Uiso   1.00
C640   C     0.42566   0.80047   0.11608   0.00000  Uiso   1.00
C641   C     0.42177   0.75475   0.12775   0.00000  Uiso   1.00
C642   C     0.38469   0.73903   0.14614   0.00000  Uiso   1.00
C643   C     0.35131   0.76875   0.15267   0.00000  Uiso   1.00
C644   C     0.35512   0.81435   0.14127   0.00000  Uiso   1.00
C645   C     0.39224   0.83031   0.12321   0.00000  Uiso   1.00
H646   H     0.44714   0.73127   0.12189   0.00000  Uiso   1.00
H647   H     0.38167   0.70371   0.15492   0.00000  Uiso   1.00
H648   H     0.65586   0.75649   0.16663   0.00000  Uiso   1.00
H649   H     0.66261   0.83730   0.14642   0.00000  Uiso   1.00
H650   H     0.39465   0.86555   0.11383   0.00000  Uiso   1.00
C651   C     0.39193   0.78324   0.44924   0.00000  Uiso   1.00
H652   H     0.39396   0.76929   0.41579   0.00000  Uiso   1.00
O653   O     0.35781   0.78336   0.46693   0.00000  Uiso   1.00
C654   C     0.61168   0.87309   0.05069   0.00000  Uiso   1.00
H655   H     0.61772   0.86252   0.08470   0.00000  Uiso   1.00
O656   O     0.63860   0.89518   0.03234   0.00000  Uiso   1.00
C657   C     0.75332   0.83339   0.25025   0.00000  Uiso   1.00
C658   C     0.91335   0.83329   0.24985   0.00000  Uiso   1.00
C659   C     0.76269   0.80115   0.02002   0.00000  Uiso   1.00
C660   C     0.90566   0.86070   0.47992   0.00000  Uiso   1.00
C661   C     0.68828   0.79411   0.26272   0.00000  Uiso   1.00
C662   C     0.97840   0.87265   0.23771   0.00000  Uiso   1.00
C663   C     0.97889   0.79391   0.26208   0.00000  Uiso   1.00
C664   C     0.68779   0.87284   0.23831   0.00000  Uiso   1.00
C665   C     0.95749   0.83321   0.24967   0.00000  Uiso   1.00
C666   C     0.70919   0.83352   0.25067   0.00000  Uiso   1.00
C667   C     0.86486   0.69069   0.27056   0.00000  Uiso   1.00
C668   C     0.80180   0.97598   0.22945   0.00000  Uiso   1.00
C669   C     0.80178   0.69058   0.22954   0.00000  Uiso   1.00
C670   C     0.86488   0.97609   0.27051   0.00000  Uiso   1.00
C671   C     0.83201   0.83317   0.16357   0.00000  Uiso   1.00
C672   C     0.83460   0.83347   0.33640   0.00000  Uiso   1.00
C673   C     0.87148   0.84700   0.40780   0.00000  Uiso   1.00
C674   C     0.79648   0.81613   0.09211   0.00000  Uiso   1.00
C675   C     0.83559   0.83365   0.38404   0.00000  Uiso   1.00
C676   C     0.83122   0.83262   0.11589   0.00000  Uiso   1.00
C677   C     0.80002   0.81887   0.40520   0.00000  Uiso   1.00
C678   C     0.86652   0.84809   0.09470   0.00000  Uiso   1.00
C679   C     0.79888   0.81650   0.45155   0.00000  Uiso   1.00
C680   C     0.86914   0.84634   0.04837   0.00000  Uiso   1.00
C681   C     0.83448   0.83120   0.47655   0.00000  Uiso   1.00
C682   C     0.83373   0.83110   0.02337   0.00000  Uiso   1.00
C683   C     0.87077   0.84643   0.45468   0.00000  Uiso   1.00
C684   C     0.79737   0.81607   0.04525   0.00000  Uiso   1.00
C685   C     0.76288   0.80091   0.47351   0.00000  Uiso   1.00
C686   C     0.90573   0.86024   0.02643   0.00000  Uiso   1.00
H687   H     0.77328   0.81003   0.38452   0.00000  Uiso   1.00
H688   H     0.89166   0.86135   0.11535   0.00000  Uiso   1.00
H689   H     0.73509   0.78890   0.03645   0.00000  Uiso   1.00
H690   H     0.93359   0.87199   0.46348   0.00000  Uiso   1.00
H691   H     0.70482   0.76366   0.27264   0.00000  Uiso   1.00
H692   H     0.96186   0.90310   0.22779   0.00000  Uiso   1.00
H693   H     0.96274   0.76341   0.27182   0.00000  Uiso   1.00
H694   H     0.70393   0.90334   0.22855   0.00000  Uiso   1.00
H695   H     0.89007   0.70885   0.28705   0.00000  Uiso   1.00
H696   H     0.77658   0.95782   0.21297   0.00000  Uiso   1.00
H697   H     0.77648   0.70866   0.21337   0.00000  Uiso   1.00
H698   H     0.89015   0.95802   0.28678   0.00000  Uiso   1.00
N699   N     0.83333   0.95240   0.25000   0.00000  Uiso   1.00
N700   N     0.83333   0.71427   0.25000   0.00000  Uiso   1.00
O701   O     0.77226   0.87154   0.24999   0.00000  Uiso   1.00
O702   O     0.89441   0.79513   0.25000   0.00000  Uiso   1.00
O703   O     0.89441   0.87154   0.25000   0.00000  Uiso   1.00
O704   O     0.77226   0.79513   0.24999   0.00000  Uiso   1.00
O705   O     0.83333   0.87156   0.18392   0.00000  Uiso   1.00
O706   O     0.83334   0.79511   0.31607   0.00000  Uiso   1.00
O707   O     0.83334   0.87156   0.31607   0.00000  Uiso   1.00
O708   O     0.83333   0.79511   0.18392   0.00000  Uiso   1.00
Zn709  Zn    0.83333   0.88437   0.25000   0.00000  Uiso   1.00
Zn710  Zn    0.83333   0.78229   0.25000   0.00000  Uiso   1.00
C711   C     0.90984   0.86014   0.38385   0.00000  Uiso   1.00
C712   C     0.94329   0.82952   0.38084   0.00000  Uiso   1.00
C713   C     0.98139   0.84356   0.36355   0.00000  Uiso   1.00
C714   C     0.98613   0.88798   0.34868   0.00000  Uiso   1.00
C715   C     0.95267   0.91833   0.35072   0.00000  Uiso   1.00
C716   C     0.91465   0.90458   0.36849   0.00000  Uiso   1.00
H717   H     0.94019   0.79529   0.39312   0.00000  Uiso   1.00
H718   H     0.67398   0.82009   0.36189   0.00000  Uiso   1.00
H719   H     0.68236   0.89884   0.33544   0.00000  Uiso   1.00
H720   H     0.95641   0.95271   0.33916   0.00000  Uiso   1.00
H721   H     0.88932   0.92873   0.37124   0.00000  Uiso   1.00
C722   C     0.75899   0.80047   0.11608   0.00000  Uiso   1.00
C723   C     0.75510   0.75475   0.12775   0.00000  Uiso   1.00
C724   C     0.71802   0.73903   0.14614   0.00000  Uiso   1.00
C725   C     0.68465   0.76875   0.15267   0.00000  Uiso   1.00
C726   C     0.68846   0.81435   0.14127   0.00000  Uiso   1.00
C727   C     0.72558   0.83031   0.12321   0.00000  Uiso   1.00
H728   H     0.78047   0.73127   0.12189   0.00000  Uiso   1.00
H729   H     0.71500   0.70371   0.15492   0.00000  Uiso   1.00
H730   H     0.98920   0.75649   0.16663   0.00000  Uiso   1.00
H731   H     0.99594   0.83730   0.14642   0.00000  Uiso   1.00
H732   H     0.72798   0.86555   0.11383   0.00000  Uiso   1.00
C733   C     0.72527   0.78324   0.44924   0.00000  Uiso   1.00
H734   H     0.72729   0.76929   0.41579   0.00000  Uiso   1.00
O735   O     0.69115   0.78336   0.46693   0.00000  Uiso   1.00
C736   C     0.94501   0.87309   0.05069   0.00000  Uiso   1.00
H737   H     0.95105   0.86252   0.08470   0.00000  Uiso   1.00
O738   O     0.97193   0.89518   0.03234   0.00000  Uiso   1.00
C739   C     0.08665   0.16672   0.75025   0.00000  Uiso   1.00
C740   C     0.24668   0.16662   0.74985   0.00000  Uiso   1.00
C741   C     0.09603   0.13448   0.52002   0.00000  Uiso   1.00
C742   C     0.23900   0.19404   0.97992   0.00000  Uiso   1.00
C743   C     0.02161   0.12744   0.76272   0.00000  Uiso   1.00
C744   C     0.31173   0.20598   0.73771   0.00000  Uiso   1.00
C745   C     0.31222   0.12724   0.76208   0.00000  Uiso   1.00
C746   C     0.02112   0.20617   0.73831   0.00000  Uiso   1.00
C747   C     0.29082   0.16654   0.74967   0.00000  Uiso   1.00
C748   C     0.04252   0.16685   0.75067   0.00000  Uiso   1.00
C749   C     0.19820   0.02403   0.77056   0.00000  Uiso   1.00
C750   C     0.13513   0.30931   0.72945   0.00000  Uiso   1.00
C751   C     0.13511   0.02391   0.72954   0.00000  Uiso   1.00
C752   C     0.19821   0.30942   0.77051   0.00000  Uiso   1.00
C753   C     0.16535   0.16651   0.66357   0.00000  Uiso   1.00
C754   C     0.16793   0.16680   0.83640   0.00000  Uiso   1.00
C755   C     0.20481   0.18033   0.90780   0.00000  Uiso   1.00
C756   C     0.12982   0.14946   0.59211   0.00000  Uiso   1.00
C757   C     0.16893   0.16698   0.88404   0.00000  Uiso   1.00
C758   C     0.16456   0.16596   0.61589   0.00000  Uiso   1.00
C759   C     0.13336   0.15220   0.90520   0.00000  Uiso   1.00
C760   C     0.19986   0.18142   0.59470   0.00000  Uiso   1.00
C761   C     0.13221   0.14983   0.95155   0.00000  Uiso   1.00
C762   C     0.20247   0.17967   0.54837   0.00000  Uiso   1.00
C763   C     0.16782   0.16453   0.97655   0.00000  Uiso   1.00
C764   C     0.16706   0.16443   0.52337   0.00000  Uiso   1.00
C765   C     0.20410   0.17976   0.95468   0.00000  Uiso   1.00
C766   C     0.13070   0.14941   0.54525   0.00000  Uiso   1.00
C767   C     0.09622   0.13425   0.97351   0.00000  Uiso   1.00
C768   C     0.23907   0.19357   0.52643   0.00000  Uiso   1.00
H769   H     0.10661   0.14337   0.88452   0.00000  Uiso   1.00
H770   H     0.22499   0.19469   0.61535   0.00000  Uiso   1.00
H771   H     0.06843   0.12223   0.53645   0.00000  Uiso   1.00
H772   H     0.26693   0.20533   0.96348   0.00000  Uiso   1.00
H773   H     0.03815   0.09700   0.77264   0.00000  Uiso   1.00
H774   H     0.29520   0.23643   0.72779   0.00000  Uiso   1.00
H775   H     0.29607   0.09674   0.77182   0.00000  Uiso   1.00
H776   H     0.03726   0.23667   0.72855   0.00000  Uiso   1.00
H777   H     0.22341   0.04219   0.78705   0.00000  Uiso   1.00
H778   H     0.10991   0.29116   0.71297   0.00000  Uiso   1.00
H779   H     0.10982   0.04200   0.71337   0.00000  Uiso   1.00
H780   H     0.22348   0.29135   0.78678   0.00000  Uiso   1.00
N781   N     0.16667   0.28573   0.75000   0.00000  Uiso   1.00
N782   N     0.16667   0.04760   0.75000   0.00000  Uiso   1.00
O783   O     0.10559   0.20487   0.74999   0.00000  Uiso   1.00
O784   O     0.22774   0.12846   0.75000   0.00000  Uiso   1.00
O785   O     0.22774   0.20487   0.75000   0.00000  Uiso   1.00
O786   O     0.10559   0.12846   0.74999   0.00000  Uiso   1.00
O787   O     0.16666   0.20489   0.68392   0.00000  Uiso   1.00
O788   O     0.16667   0.12844   0.81607   0.00000  Uiso   1.00
O789   O     0.16667   0.20489   0.81607   0.00000  Uiso   1.00
O790   O     0.16666   0.12844   0.68392   0.00000  Uiso   1.00
Zn791  Zn    0.16667   0.21771   0.75000   0.00000  Uiso   1.00
Zn792  Zn    0.16667   0.11563   0.75000   0.00000  Uiso   1.00
C793   C     0.24318   0.19347   0.88385   0.00000  Uiso   1.00
C794   C     0.27662   0.16285   0.88084   0.00000  Uiso   1.00
C795   C     0.31472   0.17689   0.86355   0.00000  Uiso   1.00
C796   C     0.31946   0.22132   0.84868   0.00000  Uiso   1.00
C797   C     0.28600   0.25167   0.85072   0.00000  Uiso   1.00
C798   C     0.24798   0.23792   0.86849   0.00000  Uiso   1.00
H799   H     0.27352   0.12862   0.89312   0.00000  Uiso   1.00
H800   H     0.00732   0.15343   0.86189   0.00000  Uiso   1.00
H801   H     0.01569   0.23217   0.83544   0.00000  Uiso   1.00
H802   H     0.28974   0.28604   0.83916   0.00000  Uiso   1.00
H803   H     0.22265   0.26206   0.87124   0.00000  Uiso   1.00
C804   C     0.09233   0.13380   0.61608   0.00000  Uiso   1.00
C805   C     0.08844   0.08809   0.62775   0.00000  Uiso   1.00
C806   C     0.05135   0.07236   0.64614   0.00000  Uiso   1.00
C807   C     0.01798   0.10209   0.65267   0.00000  Uiso   1.00
C808   C     0.02179   0.14768   0.64127   0.00000  Uiso   1.00
C809   C     0.05891   0.16364   0.62321   0.00000  Uiso   1.00
H810   H     0.11381   0.06460   0.62189   0.00000  Uiso   1.00
H811   H     0.04833   0.03704   0.65492   0.00000  Uiso   1.00
H812   H     0.32253   0.08982   0.66663   0.00000  Uiso   1.00
H813   H     0.32928   0.17063   0.64642   0.00000  Uiso   1.00
H814   H     0.06132   0.19889   0.61383   0.00000  Uiso   1.00
C815   C     0.05860   0.11657   0.94924   0.00000  Uiso   1.00
H816   H     0.06062   0.10263   0.91579   0.00000  Uiso   1.00
O817   O     0.02448   0.11669   0.96693   0.00000  Uiso   1.00
C818   C     0.27834   0.20642   0.55069   0.00000  Uiso   1.00
H819   H     0.28439   0.19585   0.58470   0.00000  Uiso   1.00
O820   O     0.30526   0.22851   0.53234   0.00000  Uiso   1.00
C821   C     0.41998   0.16672   0.75025   0.00000  Uiso   1.00
C822   C     0.58002   0.16662   0.74985   0.00000  Uiso   1.00
C823   C     0.42936   0.13448   0.52002   0.00000  Uiso   1.00
C824   C     0.57233   0.19404   0.97992   0.00000  Uiso   1.00
C825   C     0.35494   0.12744   0.76272   0.00000  Uiso   1.00
C826   C     0.64507   0.20598   0.73771   0.00000  Uiso   1.00
C827   C     0.64556   0.12724   0.76208   0.00000  Uiso   1.00
C828   C     0.35445   0.20617   0.73831   0.00000  Uiso   1.00
C829   C     0.62415   0.16654   0.74967   0.00000  Uiso   1.00
C830   C     0.37586   0.16685   0.75067   0.00000  Uiso   1.00
C831   C     0.53153   0.02403   0.77056   0.00000  Uiso   1.00
C832   C     0.46847   0.30931   0.72945   0.00000  Uiso   1.00
C833   C     0.46844   0.02391   0.72954   0.00000  Uiso   1.00
C834   C     0.53154   0.30942   0.77051   0.00000  Uiso   1.00
C835   C     0.49868   0.16651   0.66357   0.00000  Uiso   1.00
C836   C     0.50127   0.16680   0.83640   0.00000  Uiso   1.00
C837   C     0.53814   0.18033   0.90780   0.00000  Uiso   1.00
C838   C     0.46315   0.14946   0.59211   0.00000  Uiso   1.00
C839   C     0.50226   0.16698   0.88404   0.00000  Uiso   1.00
C840   C     0.49789   0.16596   0.61589   0.00000  Uiso   1.00
C841   C     0.46669   0.15220   0.90520   0.00000  Uiso   1.00
C842   C     0.53319   0.18142   0.59470   0.00000  Uiso   1.00
C843   C     0.46555   0.14983   0.95155   0.00000  Uiso   1.00
C844   C     0.53581   0.17967   0.54837   0.00000  Uiso   1.00
C845   C     0.50115   0.16453   0.97655   0.00000  Uiso   1.00
C846   C     0.50039   0.16443   0.52337   0.00000  Uiso   1.00
C847   C     0.53744   0.17976   0.95468   0.00000  Uiso   1.00
C848   C     0.46404   0.14941   0.54525   0.00000  Uiso   1.00
C849   C     0.42955   0.13425   0.97351   0.00000  Uiso   1.00
C850   C     0.57240   0.19357   0.52643   0.00000  Uiso   1.00
H851   H     0.43994   0.14337   0.88452   0.00000  Uiso   1.00
H852   H     0.55833   0.19469   0.61535   0.00000  Uiso   1.00
H853   H     0.40176   0.12223   0.53645   0.00000  Uiso   1.00
H854   H     0.60026   0.20533   0.96348   0.00000  Uiso   1.00
H855   H     0.37149   0.09700   0.77264   0.00000  Uiso   1.00
H856   H     0.62853   0.23643   0.72779   0.00000  Uiso   1.00
H857   H     0.62941   0.09674   0.77182   0.00000  Uiso   1.00
H858   H     0.37059   0.23667   0.72855   0.00000  Uiso   1.00
H859   H     0.55674   0.04219   0.78705   0.00000  Uiso   1.00
H860   H     0.44325   0.29116   0.71297   0.00000  Uiso   1.00
H861   H     0.44315   0.04200   0.71337   0.00000  Uiso   1.00
H862   H     0.55681   0.29135   0.78678   0.00000  Uiso   1.00
N863   N     0.50000   0.28573   0.75000   0.00000  Uiso   1.00
N864   N     0.50000   0.04760   0.75000   0.00000  Uiso   1.00
O865   O     0.43892   0.20487   0.74999   0.00000  Uiso   1.00
O866   O     0.56108   0.12846   0.75000   0.00000  Uiso   1.00
O867   O     0.56108   0.20487   0.75000   0.00000  Uiso   1.00
O868   O     0.43892   0.12846   0.74999   0.00000  Uiso   1.00
O869   O     0.49999   0.20489   0.68392   0.00000  Uiso   1.00
O870   O     0.50001   0.12844   0.81607   0.00000  Uiso   1.00
O871   O     0.50001   0.20489   0.81607   0.00000  Uiso   1.00
O872   O     0.49999   0.12844   0.68392   0.00000  Uiso   1.00
Zn873  Zn    0.50000   0.21771   0.75000   0.00000  Uiso   1.00
Zn874  Zn    0.50000   0.11563   0.75000   0.00000  Uiso   1.00
C875   C     0.57651   0.19347   0.88385   0.00000  Uiso   1.00
C876   C     0.60996   0.16285   0.88084   0.00000  Uiso   1.00
C877   C     0.64805   0.17689   0.86355   0.00000  Uiso   1.00
C878   C     0.65279   0.22132   0.84868   0.00000  Uiso   1.00
C879   C     0.61934   0.25167   0.85072   0.00000  Uiso   1.00
C880   C     0.58132   0.23792   0.86849   0.00000  Uiso   1.00
H881   H     0.60685   0.12862   0.89312   0.00000  Uiso   1.00
H882   H     0.34065   0.15343   0.86189   0.00000  Uiso   1.00
H883   H     0.34903   0.23217   0.83544   0.00000  Uiso   1.00
H884   H     0.62308   0.28604   0.83916   0.00000  Uiso   1.00
H885   H     0.55599   0.26206   0.87124   0.00000  Uiso   1.00
C886   C     0.42566   0.13380   0.61608   0.00000  Uiso   1.00
C887   C     0.42177   0.08809   0.62775   0.00000  Uiso   1.00
C888   C     0.38469   0.07236   0.64614   0.00000  Uiso   1.00
C889   C     0.35131   0.10209   0.65267   0.00000  Uiso   1.00
C890   C     0.35512   0.14768   0.64127   0.00000  Uiso   1.00
C891   C     0.39224   0.16364   0.62321   0.00000  Uiso   1.00
H892   H     0.44714   0.06460   0.62189   0.00000  Uiso   1.00
H893   H     0.38167   0.03704   0.65492   0.00000  Uiso   1.00
H894   H     0.65586   0.08982   0.66663   0.00000  Uiso   1.00
H895   H     0.66261   0.17063   0.64642   0.00000  Uiso   1.00
H896   H     0.39465   0.19889   0.61383   0.00000  Uiso   1.00
C897   C     0.39193   0.11657   0.94924   0.00000  Uiso   1.00
H898   H     0.39396   0.10263   0.91579   0.00000  Uiso   1.00
O899   O     0.35781   0.11669   0.96693   0.00000  Uiso   1.00
C900   C     0.61168   0.20642   0.55069   0.00000  Uiso   1.00
H901   H     0.61772   0.19585   0.58470   0.00000  Uiso   1.00
O902   O     0.63860   0.22851   0.53234   0.00000  Uiso   1.00
C903   C     0.75332   0.16672   0.75025   0.00000  Uiso   1.00
C904   C     0.91335   0.16662   0.74985   0.00000  Uiso   1.00
C905   C     0.76269   0.13448   0.52002   0.00000  Uiso   1.00
C906   C     0.90566   0.19404   0.97992   0.00000  Uiso   1.00
C907   C     0.68828   0.12744   0.76272   0.00000  Uiso   1.00
C908   C     0.97840   0.20598   0.73771   0.00000  Uiso   1.00
C909   C     0.97889   0.12724   0.76208   0.00000  Uiso   1.00
C910   C     0.68779   0.20617   0.73831   0.00000  Uiso   1.00
C911   C     0.95749   0.16654   0.74967   0.00000  Uiso   1.00
C912   C     0.70919   0.16685   0.75067   0.00000  Uiso   1.00
C913   C     0.86486   0.02403   0.77056   0.00000  Uiso   1.00
C914   C     0.80180   0.30931   0.72945   0.00000  Uiso   1.00
C915   C     0.80178   0.02391   0.72954   0.00000  Uiso   1.00
C916   C     0.86488   0.30942   0.77051   0.00000  Uiso   1.00
C917   C     0.83201   0.16651   0.66357   0.00000  Uiso   1.00
C918   C     0.83460   0.16680   0.83640   0.00000  Uiso   1.00
C919   C     0.87148   0.18033   0.90780   0.00000  Uiso   1.00
C920   C     0.79648   0.14946   0.59211   0.00000  Uiso   1.00
C921   C     0.83559   0.16698   0.88404   0.00000  Uiso   1.00
C922   C     0.83122   0.16596   0.61589   0.00000  Uiso   1.00
C923   C     0.80002   0.15220   0.90520   0.00000  Uiso   1.00
C924   C     0.86652   0.18142   0.59470   0.00000  Uiso   1.00
C925   C     0.79888   0.14983   0.95155   0.00000  Uiso   1.00
C926   C     0.86914   0.17967   0.54837   0.00000  Uiso   1.00
C927   C     0.83448   0.16453   0.97655   0.00000  Uiso   1.00
C928   C     0.83373   0.16443   0.52337   0.00000  Uiso   1.00
C929   C     0.87077   0.17976   0.95468   0.00000  Uiso   1.00
C930   C     0.79737   0.14941   0.54525   0.00000  Uiso   1.00
C931   C     0.76288   0.13425   0.97351   0.00000  Uiso   1.00
C932   C     0.90573   0.19357   0.52643   0.00000  Uiso   1.00
H933   H     0.77328   0.14337   0.88452   0.00000  Uiso   1.00
H934   H     0.89166   0.19469   0.61535   0.00000  Uiso   1.00
H935   H     0.73509   0.12223   0.53645   0.00000  Uiso   1.00
H936   H     0.93359   0.20533   0.96348   0.00000  Uiso   1.00
H937   H     0.70482   0.09700   0.77264   0.00000  Uiso   1.00
H938   H     0.96186   0.23643   0.72779   0.00000  Uiso   1.00
H939   H     0.96274   0.09674   0.77182   0.00000  Uiso   1.00
H940   H     0.70393   0.23667   0.72855   0.00000  Uiso   1.00
H941   H     0.89007   0.04219   0.78705   0.00000  Uiso   1.00
H942   H     0.77658   0.29116   0.71297   0.00000  Uiso   1.00
H943   H     0.77648   0.04200   0.71337   0.00000  Uiso   1.00
H944   H     0.89015   0.29135   0.78678   0.00000  Uiso   1.00
N945   N     0.83333   0.28573   0.75000   0.00000  Uiso   1.00
N946   N     0.83333   0.04760   0.75000   0.00000  Uiso   1.00
O947   O     0.77226   0.20487   0.74999   0.00000  Uiso   1.00
O948   O     0.89441   0.12846   0.75000   0.00000  Uiso   1.00
O949   O     0.89441   0.20487   0.75000   0.00000  Uiso   1.00
O950   O     0.77226   0.12846   0.74999   0.00000  Uiso   1.00
O951   O     0.83333   0.20489   0.68392   0.00000  Uiso   1.00
O952   O     0.83334   0.12844   0.81607   0.00000  Uiso   1.00
O953   O     0.83334   0.20489   0.81607   0.00000  Uiso   1.00
O954   O     0.83333   0.12844   0.68392   0.00000  Uiso   1.00
Zn955  Zn    0.83333   0.21771   0.75000   0.00000  Uiso   1.00
Zn956  Zn    0.83333   0.11563   0.75000   0.00000  Uiso   1.00
C957   C     0.90984   0.19347   0.88385   0.00000  Uiso   1.00
C958   C     0.94329   0.16285   0.88084   0.00000  Uiso   1.00
C959   C     0.98139   0.17689   0.86355   0.00000  Uiso   1.00
C960   C     0.98613   0.22132   0.84868   0.00000  Uiso   1.00
C961   C     0.95267   0.25167   0.85072   0.00000  Uiso   1.00
C962   C     0.91465   0.23792   0.86849   0.00000  Uiso   1.00
H963   H     0.94019   0.12862   0.89312   0.00000  Uiso   1.00
H964   H     0.67398   0.15343   0.86189   0.00000  Uiso   1.00
H965   H     0.68236   0.23217   0.83544   0.00000  Uiso   1.00
H966   H     0.95641   0.28604   0.83916   0.00000  Uiso   1.00
H967   H     0.88932   0.26206   0.87124   0.00000  Uiso   1.00
C968   C     0.75899   0.13380   0.61608   0.00000  Uiso   1.00
C969   C     0.75510   0.08809   0.62775   0.00000  Uiso   1.00
C970   C     0.71802   0.07236   0.64614   0.00000  Uiso   1.00
C971   C     0.68465   0.10209   0.65267   0.00000  Uiso   1.00
C972   C     0.68846   0.14768   0.64127   0.00000  Uiso   1.00
C973   C     0.72558   0.16364   0.62321   0.00000  Uiso   1.00
H974   H     0.78047   0.06460   0.62189   0.00000  Uiso   1.00
H975   H     0.71500   0.03704   0.65492   0.00000  Uiso   1.00
H976   H     0.98920   0.08982   0.66663   0.00000  Uiso   1.00
H977   H     0.99594   0.17063   0.64642   0.00000  Uiso   1.00
H978   H     0.72798   0.19889   0.61383   0.00000  Uiso   1.00
C979   C     0.72527   0.11657   0.94924   0.00000  Uiso   1.00
H980   H     0.72729   0.10263   0.91579   0.00000  Uiso   1.00
O981   O     0.69115   0.11669   0.96693   0.00000  Uiso   1.00
C982   C     0.94501   0.20642   0.55069   0.00000  Uiso   1.00
H983   H     0.95105   0.19585   0.58470   0.00000  Uiso   1.00
O984   O     0.97193   0.22851   0.53234   0.00000  Uiso   1.00
C985   C     0.08665   0.50005   0.75025   0.00000  Uiso   1.00
C986   C     0.24668   0.49996   0.74985   0.00000  Uiso   1.00
C987   C     0.09603   0.46782   0.52002   0.00000  Uiso   1.00
C988   C     0.23900   0.52737   0.97992   0.00000  Uiso   1.00
C989   C     0.02161   0.46078   0.76272   0.00000  Uiso   1.00
C990   C     0.31173   0.53932   0.73771   0.00000  Uiso   1.00
C991   C     0.31222   0.46058   0.76208   0.00000  Uiso   1.00
C992   C     0.02112   0.53951   0.73831   0.00000  Uiso   1.00
C993   C     0.29082   0.49987   0.74967   0.00000  Uiso   1.00
C994   C     0.04252   0.50019   0.75067   0.00000  Uiso   1.00
C995   C     0.19820   0.35736   0.77056   0.00000  Uiso   1.00
C996   C     0.13513   0.64264   0.72945   0.00000  Uiso   1.00
C997   C     0.13511   0.35724   0.72954   0.00000  Uiso   1.00
C998   C     0.19821   0.64276   0.77051   0.00000  Uiso   1.00
C999   C     0.16535   0.49984   0.66357   0.00000  Uiso   1.00
C1000  C     0.16793   0.50014   0.83640   0.00000  Uiso   1.00
C1001  C     0.20481   0.51367   0.90780   0.00000  Uiso   1.00
C1002  C     0.12982   0.48279   0.59211   0.00000  Uiso   1.00
C1003  C     0.16893   0.50031   0.88404   0.00000  Uiso   1.00
C1004  C     0.16456   0.49929   0.61589   0.00000  Uiso   1.00
C1005  C     0.13336   0.48553   0.90520   0.00000  Uiso   1.00
C1006  C     0.19986   0.51475   0.59470   0.00000  Uiso   1.00
C1007  C     0.13221   0.48317   0.95155   0.00000  Uiso   1.00
C1008  C     0.20247   0.51300   0.54837   0.00000  Uiso   1.00
C1009  C     0.16782   0.49787   0.97655   0.00000  Uiso   1.00
C1010  C     0.16706   0.49777   0.52337   0.00000  Uiso   1.00
C1011  C     0.20410   0.51310   0.95468   0.00000  Uiso   1.00
C1012  C     0.13070   0.48274   0.54525   0.00000  Uiso   1.00
C1013  C     0.09622   0.46758   0.97351   0.00000  Uiso   1.00
C1014  C     0.23907   0.52690   0.52643   0.00000  Uiso   1.00
H1015  H     0.10661   0.47670   0.88452   0.00000  Uiso   1.00
H1016  H     0.22499   0.52802   0.61535   0.00000  Uiso   1.00
H1017  H     0.06843   0.45557   0.53645   0.00000  Uiso   1.00
H1018  H     0.26693   0.53866   0.96348   0.00000  Uiso   1.00
H1019  H     0.03815   0.43033   0.77264   0.00000  Uiso   1.00
H1020  H     0.29520   0.56977   0.72779   0.00000  Uiso   1.00
H1021  H     0.29607   0.43007   0.77182   0.00000  Uiso   1.00
H1022  H     0.03726   0.57001   0.72855   0.00000  Uiso   1.00
H1023  H     0.22341   0.37552   0.78705   0.00000  Uiso   1.00
H1024  H     0.10991   0.62449   0.71297   0.00000  Uiso   1.00
H1025  H     0.10982   0.37533   0.71337   0.00000  Uiso   1.00
H1026  H     0.22348   0.62468   0.78678   0.00000  Uiso   1.00
N1027  N     0.16667   0.61907   0.75000   0.00000  Uiso   1.00
N1028  N     0.16667   0.38093   0.75000   0.00000  Uiso   1.00
O1029  O     0.10559   0.53821   0.74999   0.00000  Uiso   1.00
O1030  O     0.22774   0.46179   0.75000   0.00000  Uiso   1.00
O1031  O     0.22774   0.53821   0.75000   0.00000  Uiso   1.00
O1032  O     0.10559   0.46179   0.74999   0.00000  Uiso   1.00
O1033  O     0.16666   0.53823   0.68392   0.00000  Uiso   1.00
O1034  O     0.16667   0.46177   0.81607   0.00000  Uiso   1.00
O1035  O     0.16667   0.53823   0.81607   0.00000  Uiso   1.00
O1036  O     0.16666   0.46177   0.68392   0.00000  Uiso   1.00
Zn1037 Zn    0.16667   0.55104   0.75000   0.00000  Uiso   1.00
Zn1038 Zn    0.16667   0.44896   0.75000   0.00000  Uiso   1.00
C1039  C     0.24318   0.52681   0.88385   0.00000  Uiso   1.00
C1040  C     0.27662   0.49618   0.88084   0.00000  Uiso   1.00
C1041  C     0.31472   0.51023   0.86355   0.00000  Uiso   1.00
C1042  C     0.31946   0.55465   0.84868   0.00000  Uiso   1.00
C1043  C     0.28600   0.58500   0.85072   0.00000  Uiso   1.00
C1044  C     0.24798   0.57125   0.86849   0.00000  Uiso   1.00
H1045  H     0.27352   0.46196   0.89312   0.00000  Uiso   1.00
H1046  H     0.00732   0.48676   0.86189   0.00000  Uiso   1.00
H1047  H     0.01569   0.56550   0.83544   0.00000  Uiso   1.00
H1048  H     0.28974   0.61938   0.83916   0.00000  Uiso   1.00
H1049  H     0.22265   0.59540   0.87124   0.00000  Uiso   1.00
C1050  C     0.09233   0.46713   0.61608   0.00000  Uiso   1.00
C1051  C     0.08844   0.42142   0.62775   0.00000  Uiso   1.00
C1052  C     0.05135   0.40569   0.64614   0.00000  Uiso   1.00
C1053  C     0.01798   0.43542   0.65267   0.00000  Uiso   1.00
C1054  C     0.02179   0.48102   0.64127   0.00000  Uiso   1.00
C1055  C     0.05891   0.49698   0.62321   0.00000  Uiso   1.00
H1056  H     0.11381   0.39793   0.62189   0.00000  Uiso   1.00
H1057  H     0.04833   0.37037   0.65492   0.00000  Uiso   1.00
H1058  H     0.32253   0.42316   0.66663   0.00000  Uiso   1.00
H1059  H     0.32928   0.50397   0.64642   0.00000  Uiso   1.00
H1060  H     0.06132   0.53222   0.61383   0.00000  Uiso   1.00
C1061  C     0.05860   0.44990   0.94924   0.00000  Uiso   1.00
H1062  H     0.06062   0.43596   0.91579   0.00000  Uiso   1.00
O1063  O     0.02448   0.45002   0.96693   0.00000  Uiso   1.00
C1064  C     0.27834   0.53976   0.55069   0.00000  Uiso   1.00
H1065  H     0.28439   0.52918   0.58470   0.00000  Uiso   1.00
O1066  O     0.30526   0.56184   0.53234   0.00000  Uiso   1.00
C1067  C     0.41998   0.50005   0.75025   0.00000  Uiso   1.00
C1068  C     0.58002   0.49996   0.74985   0.00000  Uiso   1.00
C1069  C     0.42936   0.46782   0.52002   0.00000  Uiso   1.00
C1070  C     0.57233   0.52737   0.97992   0.00000  Uiso   1.00
C1071  C     0.35494   0.46078   0.76272   0.00000  Uiso   1.00
C1072  C     0.64507   0.53932   0.73771   0.00000  Uiso   1.00
C1073  C     0.64556   0.46058   0.76208   0.00000  Uiso   1.00
C1074  C     0.35445   0.53951   0.73831   0.00000  Uiso   1.00
C1075  C     0.62415   0.49987   0.74967   0.00000  Uiso   1.00
C1076  C     0.37586   0.50019   0.75067   0.00000  Uiso   1.00
C1077  C     0.53153   0.35736   0.77056   0.00000  Uiso   1.00
C1078  C     0.46847   0.64264   0.72945   0.00000  Uiso   1.00
C1079  C     0.46844   0.35724   0.72954   0.00000  Uiso   1.00
C1080  C     0.53154   0.64276   0.77051   0.00000  Uiso   1.00
C1081  C     0.49868   0.49984   0.66357   0.00000  Uiso   1.00
C1082  C     0.50127   0.50014   0.83640   0.00000  Uiso   1.00
C1083  C     0.53814   0.51367   0.90780   0.00000  Uiso   1.00
C1084  C     0.46315   0.48279   0.59211   0.00000  Uiso   1.00
C1085  C     0.50226   0.50031   0.88404   0.00000  Uiso   1.00
C1086  C     0.49789   0.49929   0.61589   0.00000  Uiso   1.00
C1087  C     0.46669   0.48553   0.90520   0.00000  Uiso   1.00
C1088  C     0.53319   0.51475   0.59470   0.00000  Uiso   1.00
C1089  C     0.46555   0.48317   0.95155   0.00000  Uiso   1.00
C1090  C     0.53581   0.51300   0.54837   0.00000  Uiso   1.00
C1091  C     0.50115   0.49787   0.97655   0.00000  Uiso   1.00
C1092  C     0.50039   0.49777   0.52337   0.00000  Uiso   1.00
C1093  C     0.53744   0.51310   0.95468   0.00000  Uiso   1.00
C1094  C     0.46404   0.48274   0.54525   0.00000  Uiso   1.00
C1095  C     0.42955   0.46758   0.97351   0.00000  Uiso   1.00
C1096  C     0.57240   0.52690   0.52643   0.00000  Uiso   1.00
H1097  H     0.43994   0.47670   0.88452   0.00000  Uiso   1.00
H1098  H     0.55833   0.52802   0.61535   0.00000  Uiso   1.00
H1099  H     0.40176   0.45557   0.53645   0.00000  Uiso   1.00
H1100  H     0.60026   0.53866   0.96348   0.00000  Uiso   1.00
H1101  H     0.37149   0.43033   0.77264   0.00000  Uiso   1.00
H1102  H     0.62853   0.56977   0.72779   0.00000  Uiso   1.00
H1103  H     0.62941   0.43007   0.77182   0.00000  Uiso   1.00
H1104  H     0.37059   0.57001   0.72855   0.00000  Uiso   1.00
H1105  H     0.55674   0.37552   0.78705   0.00000  Uiso   1.00
H1106  H     0.44325   0.62449   0.71297   0.00000  Uiso   1.00
H1107  H     0.44315   0.37533   0.71337   0.00000  Uiso   1.00
H1108  H     0.55681   0.62468   0.78678   0.00000  Uiso   1.00
N1109  N     0.50000   0.61907   0.75000   0.00000  Uiso   1.00
N1110  N     0.50000   0.38093   0.75000   0.00000  Uiso   1.00
O1111  O     0.43892   0.53821   0.74999   0.00000  Uiso   1.00
O1112  O     0.56108   0.46179   0.75000   0.00000  Uiso   1.00
O1113  O     0.56108   0.53821   0.75000   0.00000  Uiso   1.00
O1114  O     0.43892   0.46179   0.74999   0.00000  Uiso   1.00
O1115  O     0.49999   0.53823   0.68392   0.00000  Uiso   1.00
O1116  O     0.50001   0.46177   0.81607   0.00000  Uiso   1.00
O1117  O     0.50001   0.53823   0.81607   0.00000  Uiso   1.00
O1118  O     0.49999   0.46177   0.68392   0.00000  Uiso   1.00
Zn1119 Zn    0.50000   0.55104   0.75000   0.00000  Uiso   1.00
Zn1120 Zn    0.50000   0.44896   0.75000   0.00000  Uiso   1.00
C1121  C     0.57651   0.52681   0.88385   0.00000  Uiso   1.00
C1122  C     0.60996   0.49618   0.88084   0.00000  Uiso   1.00
C1123  C     0.64805   0.51023   0.86355   0.00000  Uiso   1.00
C1124  C     0.65279   0.55465   0.84868   0.00000  Uiso   1.00
C1125  C     0.61934   0.58500   0.85072   0.00000  Uiso   1.00
C1126  C     0.58132   0.57125   0.86849   0.00000  Uiso   1.00
H1127  H     0.60685   0.46196   0.89312   0.00000  Uiso   1.00
H1128  H     0.34065   0.48676   0.86189   0.00000  Uiso   1.00
H1129  H     0.34903   0.56550   0.83544   0.00000  Uiso   1.00
H1130  H     0.62308   0.61938   0.83916   0.00000  Uiso   1.00
H1131  H     0.55599   0.59540   0.87124   0.00000  Uiso   1.00
C1132  C     0.42566   0.46713   0.61608   0.00000  Uiso   1.00
C1133  C     0.42177   0.42142   0.62775   0.00000  Uiso   1.00
C1134  C     0.38469   0.40569   0.64614   0.00000  Uiso   1.00
C1135  C     0.35131   0.43542   0.65267   0.00000  Uiso   1.00
C1136  C     0.35512   0.48102   0.64127   0.00000  Uiso   1.00
C1137  C     0.39224   0.49698   0.62321   0.00000  Uiso   1.00
H1138  H     0.44714   0.39793   0.62189   0.00000  Uiso   1.00
H1139  H     0.38167   0.37037   0.65492   0.00000  Uiso   1.00
H1140  H     0.65586   0.42316   0.66663   0.00000  Uiso   1.00
H1141  H     0.66261   0.50397   0.64642   0.00000  Uiso   1.00
H1142  H     0.39465   0.53222   0.61383   0.00000  Uiso   1.00
C1143  C     0.39193   0.44990   0.94924   0.00000  Uiso   1.00
H1144  H     0.39396   0.43596   0.91579   0.00000  Uiso   1.00
O1145  O     0.35781   0.45002   0.96693   0.00000  Uiso   1.00
C1146  C     0.61168   0.53976   0.55069   0.00000  Uiso   1.00
H1147  H     0.61772   0.52918   0.58470   0.00000  Uiso   1.00
O1148  O     0.63860   0.56184   0.53234   0.00000  Uiso   1.00
C1149  C     0.75332   0.50005   0.75025   0.00000  Uiso   1.00
C1150  C     0.91335   0.49996   0.74985   0.00000  Uiso   1.00
C1151  C     0.76269   0.46782   0.52002   0.00000  Uiso   1.00
C1152  C     0.90566   0.52737   0.97992   0.00000  Uiso   1.00
C1153  C     0.68828   0.46078   0.76272   0.00000  Uiso   1.00
C1154  C     0.97840   0.53932   0.73771   0.00000  Uiso   1.00
C1155  C     0.97889   0.46058   0.76208   0.00000  Uiso   1.00
C1156  C     0.68779   0.53951   0.73831   0.00000  Uiso   1.00
C1157  C     0.95749   0.49987   0.74967   0.00000  Uiso   1.00
C1158  C     0.70919   0.50019   0.75067   0.00000  Uiso   1.00
C1159  C     0.86486   0.35736   0.77056   0.00000  Uiso   1.00
C1160  C     0.80180   0.64264   0.72945   0.00000  Uiso   1.00
C1161  C     0.80178   0.35724   0.72954   0.00000  Uiso   1.00
C1162  C     0.86488   0.64276   0.77051   0.00000  Uiso   1.00
C1163  C     0.83201   0.49984   0.66357   0.00000  Uiso   1.00
C1164  C     0.83460   0.50014   0.83640   0.00000  Uiso   1.00
C1165  C     0.87148   0.51367   0.90780   0.00000  Uiso   1.00
C1166  C     0.79648   0.48279   0.59211   0.00000  Uiso   1.00
C1167  C     0.83559   0.50031   0.88404   0.00000  Uiso   1.00
C1168  C     0.83122   0.49929   0.61589   0.00000  Uiso   1.00
C1169  C     0.80002   0.48553   0.90520   0.00000  Uiso   1.00
C1170  C     0.86652   0.51475   0.59470   0.00000  Uiso   1.00
C1171  C     0.79888   0.48317   0.95155   0.00000  Uiso   1.00
C1172  C     0.86914   0.51300   0.54837   0.00000  Uiso   1.00
C1173  C     0.83448   0.49787   0.97655   0.00000  Uiso   1.00
C1174  C     0.83373   0.49777   0.52337   0.00000  Uiso   1.00
C1175  C     0.87077   0.51310   0.95468   0.00000  Uiso   1.00
C1176  C     0.79737   0.48274   0.54525   0.00000  Uiso   1.00
C1177  C     0.76288   0.46758   0.97351   0.00000  Uiso   1.00
C1178  C     0.90573   0.52690   0.52643   0.00000  Uiso   1.00
H1179  H     0.77328   0.47670   0.88452   0.00000  Uiso   1.00
H1180  H     0.89166   0.52802   0.61535   0.00000  Uiso   1.00
H1181  H     0.73509   0.45557   0.53645   0.00000  Uiso   1.00
H1182  H     0.93359   0.53866   0.96348   0.00000  Uiso   1.00
H1183  H     0.70482   0.43033   0.77264   0.00000  Uiso   1.00
H1184  H     0.96186   0.56977   0.72779   0.00000  Uiso   1.00
H1185  H     0.96274   0.43007   0.77182   0.00000  Uiso   1.00
H1186  H     0.70393   0.57001   0.72855   0.00000  Uiso   1.00
H1187  H     0.89007   0.37552   0.78705   0.00000  Uiso   1.00
H1188  H     0.77658   0.62449   0.71297   0.00000  Uiso   1.00
H1189  H     0.77648   0.37533   0.71337   0.00000  Uiso   1.00
H1190  H     0.89015   0.62468   0.78678   0.00000  Uiso   1.00
N1191  N     0.83333   0.61907   0.75000   0.00000  Uiso   1.00
N1192  N     0.83333   0.38093   0.75000   0.00000  Uiso   1.00
O1193  O     0.77226   0.53821   0.74999   0.00000  Uiso   1.00
O1194  O     0.89441   0.46179   0.75000   0.00000  Uiso   1.00
O1195  O     0.89441   0.53821   0.75000   0.00000  Uiso   1.00
O1196  O     0.77226   0.46179   0.74999   0.00000  Uiso   1.00
O1197  O     0.83333   0.53823   0.68392   0.00000  Uiso   1.00
O1198  O     0.83334   0.46177   0.81607   0.00000  Uiso   1.00
O1199  O     0.83334   0.53823   0.81607   0.00000  Uiso   1.00
O1200  O     0.83333   0.46177   0.68392   0.00000  Uiso   1.00
Zn1201 Zn    0.83333   0.55104   0.75000   0.00000  Uiso   1.00
Zn1202 Zn    0.83333   0.44896   0.75000   0.00000  Uiso   1.00
C1203  C     0.90984   0.52681   0.88385   0.00000  Uiso   1.00
C1204  C     0.94329   0.49618   0.88084   0.00000  Uiso   1.00
C1205  C     0.98139   0.51023   0.86355   0.00000  Uiso   1.00
C1206  C     0.98613   0.55465   0.84868   0.00000  Uiso   1.00
C1207  C     0.95267   0.58500   0.85072   0.00000  Uiso   1.00
C1208  C     0.91465   0.57125   0.86849   0.00000  Uiso   1.00
H1209  H     0.94019   0.46196   0.89312   0.00000  Uiso   1.00
H1210  H     0.67398   0.48676   0.86189   0.00000  Uiso   1.00
H1211  H     0.68236   0.56550   0.83544   0.00000  Uiso   1.00
H1212  H     0.95641   0.61938   0.83916   0.00000  Uiso   1.00
H1213  H     0.88932   0.59540   0.87124   0.00000  Uiso   1.00
C1214  C     0.75899   0.46713   0.61608   0.00000  Uiso   1.00
C1215  C     0.75510   0.42142   0.62775   0.00000  Uiso   1.00
C1216  C     0.71802   0.40569   0.64614   0.00000  Uiso   1.00
C1217  C     0.68465   0.43542   0.65267   0.00000  Uiso   1.00
C1218  C     0.68846   0.48102   0.64127   0.00000  Uiso   1.00
C1219  C     0.72558   0.49698   0.62321   0.00000  Uiso   1.00
H1220  H     0.78047   0.39793   0.62189   0.00000  Uiso   1.00
H1221  H     0.71500   0.37037   0.65492   0.00000  Uiso   1.00
H1222  H     0.98920   0.42316   0.66663   0.00000  Uiso   1.00
H1223  H     0.99594   0.50397   0.64642   0.00000  Uiso   1.00
H1224  H     0.72798   0.53222   0.61383   0.00000  Uiso   1.00
C1225  C     0.72527   0.44990   0.94924   0.00000  Uiso   1.00
H1226  H     0.72729   0.43596   0.91579   0.00000  Uiso   1.00
O1227  O     0.69115   0.45002   0.96693   0.00000  Uiso   1.00
C1228  C     0.94501   0.53976   0.55069   0.00000  Uiso   1.00
H1229  H     0.95105   0.52918   0.58470   0.00000  Uiso   1.00
O1230  O     0.97193   0.56184   0.53234   0.00000  Uiso   1.00
C1231  C     0.08665   0.83339   0.75025   0.00000  Uiso   1.00
C1232  C     0.24668   0.83329   0.74985   0.00000  Uiso   1.00
C1233  C     0.09603   0.80115   0.52002   0.00000  Uiso   1.00
C1234  C     0.23900   0.86070   0.97992   0.00000  Uiso   1.00
C1235  C     0.02161   0.79411   0.76272   0.00000  Uiso   1.00
C1236  C     0.31173   0.87265   0.73771   0.00000  Uiso   1.00
C1237  C     0.31222   0.79391   0.76208   0.00000  Uiso   1.00
C1238  C     0.02112   0.87284   0.73831   0.00000  Uiso   1.00
C1239  C     0.29082   0.83321   0.74967   0.00000  Uiso   1.00
C1240  C     0.04252   0.83352   0.75067   0.00000  Uiso   1.00
C1241  C     0.19820   0.69069   0.77056   0.00000  Uiso   1.00
C1242  C     0.13513   0.97598   0.72945   0.00000  Uiso   1.00
C1243  C     0.13511   0.69058   0.72954   0.00000  Uiso   1.00
C1244  C     0.19821   0.97609   0.77051   0.00000  Uiso   1.00
C1245  C     0.16535   0.83317   0.66357   0.00000  Uiso   1.00
C1246  C     0.16793   0.83347   0.83640   0.00000  Uiso   1.00
C1247  C     0.20481   0.84700   0.90780   0.00000  Uiso   1.00
C1248  C     0.12982   0.81613   0.59211   0.00000  Uiso   1.00
C1249  C     0.16893   0.83365   0.88404   0.00000  Uiso   1.00
C1250  C     0.16456   0.83262   0.61589   0.00000  Uiso   1.00
C1251  C     0.13336   0.81887   0.90520   0.00000  Uiso   1.00
C1252  C     0.19986   0.84809   0.59470   0.00000  Uiso   1.00
C1253  C     0.13221   0.81650   0.95155   0.00000  Uiso   1.00
C1254  C     0.20247   0.84634   0.54837   0.00000  Uiso   1.00
C1255  C     0.16782   0.83120   0.97655   0.00000  Uiso   1.00
C1256  C     0.16706   0.83110   0.52337   0.00000  Uiso   1.00
C1257  C     0.20410   0.84643   0.95468   0.00000  Uiso   1.00
C1258  C     0.13070   0.81607   0.54525   0.00000  Uiso   1.00
C1259  C     0.09622   0.80091   0.97351   0.00000  Uiso   1.00
C1260  C     0.23907   0.86024   0.52643   0.00000  Uiso   1.00
H1261  H     0.10661   0.81003   0.88452   0.00000  Uiso   1.00
H1262  H     0.22499   0.86135   0.61535   0.00000  Uiso   1.00
H1263  H     0.06843   0.78890   0.53645   0.00000  Uiso   1.00
H1264  H     0.26693   0.87199   0.96348   0.00000  Uiso   1.00
H1265  H     0.03815   0.76366   0.77264   0.00000  Uiso   1.00
H1266  H     0.29520   0.90310   0.72779   0.00000  Uiso   1.00
H1267  H     0.29607   0.76341   0.77182   0.00000  Uiso   1.00
H1268  H     0.03726   0.90334   0.72855   0.00000  Uiso   1.00
H1269  H     0.22341   0.70885   0.78705   0.00000  Uiso   1.00
H1270  H     0.10991   0.95782   0.71297   0.00000  Uiso   1.00
H1271  H     0.10982   0.70866   0.71337   0.00000  Uiso   1.00
H1272  H     0.22348   0.95802   0.78678   0.00000  Uiso   1.00
N1273  N     0.16667   0.95240   0.75000   0.00000  Uiso   1.00
N1274  N     0.16667   0.71427   0.75000   0.00000  Uiso   1.00
O1275  O     0.10559   0.87154   0.74999   0.00000  Uiso   1.00
O1276  O     0.22774   0.79513   0.75000   0.00000  Uiso   1.00
O1277  O     0.22774   0.87154   0.75000   0.00000  Uiso   1.00
O1278  O     0.10559   0.79513   0.74999   0.00000  Uiso   1.00
O1279  O     0.16666   0.87156   0.68392   0.00000  Uiso   1.00
O1280  O     0.16667   0.79511   0.81607   0.00000  Uiso   1.00
O1281  O     0.16667   0.87156   0.81607   0.00000  Uiso   1.00
O1282  O     0.16666   0.79511   0.68392   0.00000  Uiso   1.00
Zn1283 Zn    0.16667   0.88437   0.75000   0.00000  Uiso   1.00
Zn1284 Zn    0.16667   0.78229   0.75000   0.00000  Uiso   1.00
C1285  C     0.24318   0.86014   0.88385   0.00000  Uiso   1.00
C1286  C     0.27662   0.82952   0.88084   0.00000  Uiso   1.00
C1287  C     0.31472   0.84356   0.86355   0.00000  Uiso   1.00
C1288  C     0.31946   0.88798   0.84868   0.00000  Uiso   1.00
C1289  C     0.28600   0.91833   0.85072   0.00000  Uiso   1.00
C1290  C     0.24798   0.90458   0.86849   0.00000  Uiso   1.00
H1291  H     0.27352   0.79529   0.89312   0.00000  Uiso   1.00
H1292  H     0.00732   0.82009   0.86189   0.00000  Uiso   1.00
H1293  H     0.01569   0.89884   0.83544   0.00000  Uiso   1.00
H1294  H     0.28974   0.95271   0.83916   0.00000  Uiso   1.00
H1295  H     0.22265   0.92873   0.87124   0.00000  Uiso   1.00
C1296  C     0.09233   0.80047   0.61608   0.00000  Uiso   1.00
C1297  C     0.08844   0.75475   0.62775   0.00000  Uiso   1.00
C1298  C     0.05135   0.73903   0.64614   0.00000  Uiso   1.00
C1299  C     0.01798   0.76875   0.65267   0.00000  Uiso   1.00
C1300  C     0.02179   0.81435   0.64127   0.00000  Uiso   1.00
C1301  C     0.05891   0.83031   0.62321   0.00000  Uiso   1.00
H1302  H     0.11381   0.73127   0.62189   0.00000  Uiso   1.00
H1303  H     0.04833   0.70371   0.65492   0.00000  Uiso   1.00
H1304  H     0.32253   0.75649   0.66663   0.00000  Uiso   1.00
H1305  H     0.32928   0.83730   0.64642   0.00000  Uiso   1.00
H1306  H     0.06132   0.86555   0.61383   0.00000  Uiso   1.00
C1307  C     0.05860   0.78324   0.94924   0.00000  Uiso   1.00
H1308  H     0.06062   0.76929   0.91579   0.00000  Uiso   1.00
O1309  O     0.02448   0.78336   0.96693   0.00000  Uiso   1.00
C1310  C     0.27834   0.87309   0.55069   0.00000  Uiso   1.00
H1311  H     0.28439   0.86252   0.58470   0.00000  Uiso   1.00
O1312  O     0.30526   0.89518   0.53234   0.00000  Uiso   1.00
C1313  C     0.41998   0.83339   0.75025   0.00000  Uiso   1.00
C1314  C     0.58002   0.83329   0.74985   0.00000  Uiso   1.00
C1315  C     0.42936   0.80115   0.52002   0.00000  Uiso   1.00
C1316  C     0.57233   0.86070   0.97992   0.00000  Uiso   1.00
C1317  C     0.35494   0.79411   0.76272   0.00000  Uiso   1.00
C1318  C     0.64507   0.87265   0.73771   0.00000  Uiso   1.00
C1319  C     0.64556   0.79391   0.76208   0.00000  Uiso   1.00
C1320  C     0.35445   0.87284   0.73831   0.00000  Uiso   1.00
C1321  C     0.62415   0.83321   0.74967   0.00000  Uiso   1.00
C1322  C     0.37586   0.83352   0.75067   0.00000  Uiso   1.00
C1323  C     0.53153   0.69069   0.77056   0.00000  Uiso   1.00
C1324  C     0.46847   0.97598   0.72945   0.00000  Uiso   1.00
C1325  C     0.46844   0.69058   0.72954   0.00000  Uiso   1.00
C1326  C     0.53154   0.97609   0.77051   0.00000  Uiso   1.00
C1327  C     0.49868   0.83317   0.66357   0.00000  Uiso   1.00
C1328  C     0.50127   0.83347   0.83640   0.00000  Uiso   1.00
C1329  C     0.53814   0.84700   0.90780   0.00000  Uiso   1.00
C1330  C     0.46315   0.81613   0.59211   0.00000  Uiso   1.00
C1331  C     0.50226   0.83365   0.88404   0.00000  Uiso   1.00
C1332  C     0.49789   0.83262   0.61589   0.00000  Uiso   1.00
C1333  C     0.46669   0.81887   0.90520   0.00000  Uiso   1.00
C1334  C     0.53319   0.84809   0.59470   0.00000  Uiso   1.00
C1335  C     0.46555   0.81650   0.95155   0.00000  Uiso   1.00
C1336  C     0.53581   0.84634   0.54837   0.00000  Uiso   1.00
C1337  C     0.50115   0.83120   0.97655   0.00000  Uiso   1.00
C1338  C     0.50039   0.83110   0.52337   0.00000  Uiso   1.00
C1339  C     0.53744   0.84643   0.95468   0.00000  Uiso   1.00
C1340  C     0.46404   0.81607   0.54525   0.00000  Uiso   1.00
C1341  C     0.42955   0.80091   0.97351   0.00000  Uiso   1.00
C1342  C     0.57240   0.86024   0.52643   0.00000  Uiso   1.00
H1343  H     0.43994   0.81003   0.88452   0.00000  Uiso   1.00
H1344  H     0.55833   0.86135   0.61535   0.00000  Uiso   1.00
H1345  H     0.40176   0.78890   0.53645   0.00000  Uiso   1.00
H1346  H     0.60026   0.87199   0.96348   0.00000  Uiso   1.00
H1347  H     0.37149   0.76366   0.77264   0.00000  Uiso   1.00
H1348  H     0.62853   0.90310   0.72779   0.00000  Uiso   1.00
H1349  H     0.62941   0.76341   0.77182   0.00000  Uiso   1.00
H1350  H     0.37059   0.90334   0.72855   0.00000  Uiso   1.00
H1351  H     0.55674   0.70885   0.78705   0.00000  Uiso   1.00
H1352  H     0.44325   0.95782   0.71297   0.00000  Uiso   1.00
H1353  H     0.44315   0.70866   0.71337   0.00000  Uiso   1.00
H1354  H     0.55681   0.95802   0.78678   0.00000  Uiso   1.00
N1355  N     0.50000   0.95240   0.75000   0.00000  Uiso   1.00
N1356  N     0.50000   0.71427   0.75000   0.00000  Uiso   1.00
O1357  O     0.43892   0.87154   0.74999   0.00000  Uiso   1.00
O1358  O     0.56108   0.79513   0.75000   0.00000  Uiso   1.00
O1359  O     0.56108   0.87154   0.75000   0.00000  Uiso   1.00
O1360  O     0.43892   0.79513   0.74999   0.00000  Uiso   1.00
O1361  O     0.49999   0.87156   0.68392   0.00000  Uiso   1.00
O1362  O     0.50001   0.79511   0.81607   0.00000  Uiso   1.00
O1363  O     0.50001   0.87156   0.81607   0.00000  Uiso   1.00
O1364  O     0.49999   0.79511   0.68392   0.00000  Uiso   1.00
Zn1365 Zn    0.50000   0.88437   0.75000   0.00000  Uiso   1.00
Zn1366 Zn    0.50000   0.78229   0.75000   0.00000  Uiso   1.00
C1367  C     0.57651   0.86014   0.88385   0.00000  Uiso   1.00
C1368  C     0.60996   0.82952   0.88084   0.00000  Uiso   1.00
C1369  C     0.64805   0.84356   0.86355   0.00000  Uiso   1.00
C1370  C     0.65279   0.88798   0.84868   0.00000  Uiso   1.00
C1371  C     0.61934   0.91833   0.85072   0.00000  Uiso   1.00
C1372  C     0.58132   0.90458   0.86849   0.00000  Uiso   1.00
H1373  H     0.60685   0.79529   0.89312   0.00000  Uiso   1.00
H1374  H     0.34065   0.82009   0.86189   0.00000  Uiso   1.00
H1375  H     0.34903   0.89884   0.83544   0.00000  Uiso   1.00
H1376  H     0.62308   0.95271   0.83916   0.00000  Uiso   1.00
H1377  H     0.55599   0.92873   0.87124   0.00000  Uiso   1.00
C1378  C     0.42566   0.80047   0.61608   0.00000  Uiso   1.00
C1379  C     0.42177   0.75475   0.62775   0.00000  Uiso   1.00
C1380  C     0.38469   0.73903   0.64614   0.00000  Uiso   1.00
C1381  C     0.35131   0.76875   0.65267   0.00000  Uiso   1.00
C1382  C     0.35512   0.81435   0.64127   0.00000  Uiso   1.00
C1383  C     0.39224   0.83031   0.62321   0.00000  Uiso   1.00
H1384  H     0.44714   0.73127   0.62189   0.00000  Uiso   1.00
H1385  H     0.38167   0.70371   0.65492   0.00000  Uiso   1.00
H1386  H     0.65586   0.75649   0.66663   0.00000  Uiso   1.00
H1387  H     0.66261   0.83730   0.64642   0.00000  Uiso   1.00
H1388  H     0.39465   0.86555   0.61383   0.00000  Uiso   1.00
C1389  C     0.39193   0.78324   0.94924   0.00000  Uiso   1.00
H1390  H     0.39396   0.76929   0.91579   0.00000  Uiso   1.00
O1391  O     0.35781   0.78336   0.96693   0.00000  Uiso   1.00
C1392  C     0.61168   0.87309   0.55069   0.00000  Uiso   1.00
H1393  H     0.61772   0.86252   0.58470   0.00000  Uiso   1.00
O1394  O     0.63860   0.89518   0.53234   0.00000  Uiso   1.00
C1395  C     0.75332   0.83339   0.75025   0.00000  Uiso   1.00
C1396  C     0.91335   0.83329   0.74985   0.00000  Uiso   1.00
C1397  C     0.76269   0.80115   0.52002   0.00000  Uiso   1.00
C1398  C     0.90566   0.86070   0.97992   0.00000  Uiso   1.00
C1399  C     0.68828   0.79411   0.76272   0.00000  Uiso   1.00
C1400  C     0.97840   0.87265   0.73771   0.00000  Uiso   1.00
C1401  C     0.97889   0.79391   0.76208   0.00000  Uiso   1.00
C1402  C     0.68779   0.87284   0.73831   0.00000  Uiso   1.00
C1403  C     0.95749   0.83321   0.74967   0.00000  Uiso   1.00
C1404  C     0.70919   0.83352   0.75067   0.00000  Uiso   1.00
C1405  C     0.86486   0.69069   0.77056   0.00000  Uiso   1.00
C1406  C     0.80180   0.97598   0.72945   0.00000  Uiso   1.00
C1407  C     0.80178   0.69058   0.72954   0.00000  Uiso   1.00
C1408  C     0.86488   0.97609   0.77051   0.00000  Uiso   1.00
C1409  C     0.83201   0.83317   0.66357   0.00000  Uiso   1.00
C1410  C     0.83460   0.83347   0.83640   0.00000  Uiso   1.00
C1411  C     0.87148   0.84700   0.90780   0.00000  Uiso   1.00
C1412  C     0.79648   0.81613   0.59211   0.00000  Uiso   1.00
C1413  C     0.83559   0.83365   0.88404   0.00000  Uiso   1.00
C1414  C     0.83122   0.83262   0.61589   0.00000  Uiso   1.00
C1415  C     0.80002   0.81887   0.90520   0.00000  Uiso   1.00
C1416  C     0.86652   0.84809   0.59470   0.00000  Uiso   1.00
C1417  C     0.79888   0.81650   0.95155   0.00000  Uiso   1.00
C1418  C     0.86914   0.84634   0.54837   0.00000  Uiso   1.00
C1419  C     0.83448   0.83120   0.97655   0.00000  Uiso   1.00
C1420  C     0.83373   0.83110   0.52337   0.00000  Uiso   1.00
C1421  C     0.87077   0.84643   0.95468   0.00000  Uiso   1.00
C1422  C     0.79737   0.81607   0.54525   0.00000  Uiso   1.00
C1423  C     0.76288   0.80091   0.97351   0.00000  Uiso   1.00
C1424  C     0.90573   0.86024   0.52643   0.00000  Uiso   1.00
H1425  H     0.77328   0.81003   0.88452   0.00000  Uiso   1.00
H1426  H     0.89166   0.86135   0.61535   0.00000  Uiso   1.00
H1427  H     0.73509   0.78890   0.53645   0.00000  Uiso   1.00
H1428  H     0.93359   0.87199   0.96348   0.00000  Uiso   1.00
H1429  H     0.70482   0.76366   0.77264   0.00000  Uiso   1.00
H1430  H     0.96186   0.90310   0.72779   0.00000  Uiso   1.00
H1431  H     0.96274   0.76341   0.77182   0.00000  Uiso   1.00
H1432  H     0.70393   0.90334   0.72855   0.00000  Uiso   1.00
H1433  H     0.89007   0.70885   0.78705   0.00000  Uiso   1.00
H1434  H     0.77658   0.95782   0.71297   0.00000  Uiso   1.00
H1435  H     0.77648   0.70866   0.71337   0.00000  Uiso   1.00
H1436  H     0.89015   0.95802   0.78678   0.00000  Uiso   1.00
N1437  N     0.83333   0.95240   0.75000   0.00000  Uiso   1.00
N1438  N     0.83333   0.71427   0.75000   0.00000  Uiso   1.00
O1439  O     0.77226   0.87154   0.74999   0.00000  Uiso   1.00
O1440  O     0.89441   0.79513   0.75000   0.00000  Uiso   1.00
O1441  O     0.89441   0.87154   0.75000   0.00000  Uiso   1.00
O1442  O     0.77226   0.79513   0.74999   0.00000  Uiso   1.00
O1443  O     0.83333   0.87156   0.68392   0.00000  Uiso   1.00
O1444  O     0.83334   0.79511   0.81607   0.00000  Uiso   1.00
O1445  O     0.83334   0.87156   0.81607   0.00000  Uiso   1.00
O1446  O     0.83333   0.79511   0.68392   0.00000  Uiso   1.00
Zn1447 Zn    0.83333   0.88437   0.75000   0.00000  Uiso   1.00
Zn1448 Zn    0.83333   0.78229   0.75000   0.00000  Uiso   1.00
C1449  C     0.90984   0.86014   0.88385   0.00000  Uiso   1.00
C1450  C     0.94329   0.82952   0.88084   0.00000  Uiso   1.00
C1451  C     0.98139   0.84356   0.86355   0.00000  Uiso   1.00
C1452  C     0.98613   0.88798   0.84868   0.00000  Uiso   1.00
C1453  C     0.95267   0.91833   0.85072   0.00000  Uiso   1.00
C1454  C     0.91465   0.90458   0.86849   0.00000  Uiso   1.00
H1455  H     0.94019   0.79529   0.89312   0.00000  Uiso   1.00
H1456  H     0.67398   0.82009   0.86189   0.00000  Uiso   1.00
H1457  H     0.68236   0.89884   0.83544   0.00000  Uiso   1.00
H1458  H     0.95641   0.95271   0.83916   0.00000  Uiso   1.00
H1459  H     0.88932   0.92873   0.87124   0.00000  Uiso   1.00
C1460  C     0.75899   0.80047   0.61608   0.00000  Uiso   1.00
C1461  C     0.75510   0.75475   0.62775   0.00000  Uiso   1.00
C1462  C     0.71802   0.73903   0.64614   0.00000  Uiso   1.00
C1463  C     0.68465   0.76875   0.65267   0.00000  Uiso   1.00
C1464  C     0.68846   0.81435   0.64127   0.00000  Uiso   1.00
C1465  C     0.72558   0.83031   0.62321   0.00000  Uiso   1.00
H1466  H     0.78047   0.73127   0.62189   0.00000  Uiso   1.00
H1467  H     0.71500   0.70371   0.65492   0.00000  Uiso   1.00
H1468  H     0.98920   0.75649   0.66663   0.00000  Uiso   1.00
H1469  H     0.99594   0.83730   0.64642   0.00000  Uiso   1.00
H1470  H     0.72798   0.86555   0.61383   0.00000  Uiso   1.00
C1471  C     0.72527   0.78324   0.94924   0.00000  Uiso   1.00
H1472  H     0.72729   0.76929   0.91579   0.00000  Uiso   1.00
O1473  O     0.69115   0.78336   0.96693   0.00000  Uiso   1.00
C1474  C     0.94501   0.87309   0.55069   0.00000  Uiso   1.00
H1475  H     0.95105   0.86252   0.58470   0.00000  Uiso   1.00
O1476  O     0.97193   0.89518   0.53234   0.00000  Uiso   1.00
loop_
_geom_bond_atom_site_label_1
_geom_bond_atom_site_label_2
_geom_bond_distance
_geom_bond_site_symmetry_2
_ccdc_geom_bond_type
C1     C10     1.414   .     S
C1     O48     1.282   .     A
C1     O45     1.281   .     A
C2     O46     1.281   .     A
C2     O47     1.281   .     A
C2     C9      1.414   .     S
C3     C28     1.404   .     A
C3     H33     1.082   .     S
C3     C767    1.391   1_554 S
C4     H34     1.082   .     S
C4     C27     1.404   .     A
C4     C768    1.391   .     S
C5     C10     1.396   .     A
C5     H35     1.084   .     S
C5     C171    1.369   1_455 S
C6     C9      1.396   .     A
C6     H36     1.084   .     S
C6     C90     1.369   .     S
C7     H37     1.084   .     S
C7     C9      1.396   .     A
C7     C87     1.369   .     S
C8     H38     1.084   .     S
C8     C10     1.396   .     A
C8     C170    1.369   1_455 S
C11    N44     1.366   .     A
C11    H39     1.082   .     S
C11    C506    1.416   1_545 S
C12    N43     1.366   .     A
C12    H40     1.082   .     S
C12    C259    1.416   .     S
C13    H41     1.080   .     S
C13    N44     1.366   .     A
C13    C504    1.416   1_545 S
C14    H42     1.080   .     S
C14    N43     1.366   .     A
C14    C257    1.416   .     S
C15    C20     1.426   .     S
C15    O52     1.282   .     A
C15    O49     1.284   .     A
C16    O51     1.282   .     A
C16    O50     1.283   .     A
C16    C19     1.425   .     S
C17    C55     1.486   .     S
C17    C27     1.403   .     A
C17    C19     1.399   .     A
C18    C28     1.403   .     A
C18    C66     1.485   .     S
C18    C20     1.399   .     A
C19    C21     1.385   .     A
C20    C22     1.385   .     A
C21    H31     1.081   .     S
C21    C23     1.390   .     A
C22    H32     1.081   .     S
C22    C24     1.390   .     A
C23    C29     1.415   .     A
C23    C25     1.422   .     A
C24    C26     1.422   .     A
C24    C30     1.415   .     A
C25    C27     1.418   .     A
C25    C764    1.401   .     S
C26    C28     1.418   .     A
C26    C763    1.401   1_554 S
C29    C77     1.491   .     S
C29    C741    1.391   .     S
C30    C80     1.492   .     S
C30    C742    1.391   1_554 S
N43    Zn53    2.009   .     S
N44    Zn54    2.009   .     S
O45    Zn53    1.994   .     S
O46    Zn54    1.994   .     S
O47    Zn53    1.993   .     S
O48    Zn54    1.993   .     S
O49    Zn53    2.010   .     S
O50    Zn54    2.010   .     S
O51    Zn53    2.015   .     S
O52    Zn54    2.015   .     S
C55    C56     1.404   .     A
C55    C60     1.403   .     A
C56    C57     1.398   .     A
C56    H61     1.083   .     S
C57    C58     1.397   .     A
C57    H144    1.082   .     S
C58    C59     1.398   .     A
C58    H145    1.082   .     S
C59    H64     1.082   .     S
C59    C60     1.399   .     A
C60    H65     1.083   .     S
H62    C221    1.082   1_455 S
H63    C222    1.082   1_455 S
C66    C67     1.403   .     A
C66    C71     1.403   .     A
C67    H72     1.083   .     S
C67    C68     1.398   .     A
C68    C69     1.397   .     A
C68    H73     1.082   .     S
C69    C70     1.397   .     A
C69    H238    1.082   1_455 S
C70    C71     1.398   .     A
C70    H239    1.081   1_455 S
C71    H76     1.083   .     S
H74    C151    1.082   .     S
H75    C152    1.081   .     S
C77    H78     1.082   .     S
C77    O79     1.222   .     D
C80    O82     1.222   .     D
C80    H81     1.081   .     S
C83    C92     1.414   .     S
C83    O130    1.282   .     A
C83    O127    1.281   .     A
C84    O128    1.281   .     A
C84    O129    1.281   .     A
C84    C91     1.414   .     S
C85    C110    1.404   .     A
C85    H115    1.082   .     S
C85    C849    1.391   1_554 S
C86    H116    1.082   .     S
C86    C109    1.404   .     A
C86    C850    1.391   .     S
C87    C92     1.396   .     A
C87    H117    1.084   .     S
C88    C91     1.396   .     A
C88    H118    1.084   .     S
C88    C172    1.369   .     S
C89    H119    1.084   .     S
C89    C91     1.396   .     A
C89    C169    1.369   .     S
C90    H120    1.084   .     S
C90    C92     1.396   .     A
C93    N126    1.366   .     A
C93    H121    1.082   .     S
C93    C588    1.416   1_545 S
C94    N125    1.366   .     A
C94    H122    1.082   .     S
C94    C341    1.416   .     S
C95    H123    1.080   .     S
C95    N126    1.366   .     A
C95    C586    1.416   1_545 S
C96    H124    1.080   .     S
C96    N125    1.366   .     A
C96    C339    1.416   .     S
C97    C102    1.426   .     S
C97    O134    1.282   .     A
C97    O131    1.284   .     A
C98    O133    1.282   .     A
C98    O132    1.283   .     A
C98    C101    1.425   .     S
C99    C137    1.486   .     S
C99    C109    1.403   .     A
C99    C101    1.399   .     A
C100   C110    1.403   .     A
C100   C148    1.485   .     S
C100   C102    1.399   .     A
C101   C103    1.385   .     A
C102   C104    1.385   .     A
C103   H113    1.081   .     S
C103   C105    1.390   .     A
C104   H114    1.081   .     S
C104   C106    1.390   .     A
C105   C111    1.415   .     A
C105   C107    1.422   .     A
C106   C108    1.422   .     A
C106   C112    1.415   .     A
C107   C109    1.418   .     A
C107   C846    1.401   .     S
C108   C110    1.418   .     A
C108   C845    1.401   1_554 S
C111   C159    1.491   .     S
C111   C823    1.391   .     S
C112   C162    1.492   .     S
C112   C824    1.391   1_554 S
N125   Zn135   2.009   .     S
N126   Zn136   2.009   .     S
O127   Zn135   1.994   .     S
O128   Zn136   1.994   .     S
O129   Zn135   1.993   .     S
O130   Zn136   1.993   .     S
O131   Zn135   2.010   .     S
O132   Zn136   2.010   .     S
O133   Zn135   2.015   .     S
O134   Zn136   2.015   .     S
C137   C138    1.404   .     A
C137   C142    1.403   .     A
C138   C139    1.398   .     A
C138   H143    1.083   .     S
C139   C140    1.397   .     A
C139   H226    1.082   .     S
C140   C141    1.398   .     A
C140   H227    1.082   .     S
C141   H146    1.082   .     S
C141   C142    1.399   .     A
C142   H147    1.083   .     S
C148   C149    1.403   .     A
C148   C153    1.403   .     A
C149   H154    1.083   .     S
C149   C150    1.398   .     A
C150   C151    1.397   .     A
C150   H155    1.082   .     S
C151   C152    1.397   .     A
C152   C153    1.398   .     A
C153   H158    1.083   .     S
H156   C233    1.082   .     S
H157   C234    1.081   .     S
C159   H160    1.082   .     S
C159   O161    1.222   .     D
C162   O164    1.222   .     D
C162   H163    1.081   .     S
C165   C174    1.414   .     S
C165   O212    1.282   .     A
C165   O209    1.281   .     A
C166   O210    1.281   .     A
C166   O211    1.281   .     A
C166   C173    1.414   .     S
C167   C192    1.404   .     A
C167   H197    1.082   .     S
C167   C931    1.391   1_554 S
C168   H198    1.082   .     S
C168   C191    1.404   .     A
C168   C932    1.391   .     S
C169   C174    1.396   .     A
C169   H199    1.084   .     S
C170   C173    1.396   .     A
C170   H200    1.084   .     S
C170   C8      1.369   1_655 S
C171   H201    1.084   .     S
C171   C173    1.396   .     A
C171   C5      1.369   1_655 S
C172   H202    1.084   .     S
C172   C174    1.396   .     A
C175   N208    1.366   .     A
C175   H203    1.082   .     S
C175   C670    1.416   1_545 S
C176   N207    1.366   .     A
C176   H204    1.082   .     S
C176   C423    1.416   .     S
C177   H205    1.080   .     S
C177   N208    1.366   .     A
C177   C668    1.416   1_545 S
C178   H206    1.080   .     S
C178   N207    1.366   .     A
C178   C421    1.416   .     S
C179   C184    1.426   .     S
C179   O216    1.282   .     A
C179   O213    1.284   .     A
C180   O215    1.282   .     A
C180   O214    1.283   .     A
C180   C183    1.425   .     S
C181   C219    1.486   .     S
C181   C191    1.403   .     A
C181   C183    1.399   .     A
C182   C192    1.403   .     A
C182   C230    1.485   .     S
C182   C184    1.399   .     A
C183   C185    1.385   .     A
C184   C186    1.385   .     A
C185   H195    1.081   .     S
C185   C187    1.390   .     A
C186   H196    1.081   .     S
C186   C188    1.390   .     A
C187   C193    1.415   .     A
C187   C189    1.422   .     A
C188   C190    1.422   .     A
C188   C194    1.415   .     A
C189   C191    1.418   .     A
C189   C928    1.401   .     S
C190   C192    1.418   .     A
C190   C927    1.401   1_554 S
C193   C241    1.491   .     S
C193   C905    1.391   .     S
C194   C244    1.492   .     S
C194   C906    1.391   1_554 S
N207   Zn217   2.009   .     S
N208   Zn218   2.009   .     S
O209   Zn217   1.994   .     S
O210   Zn218   1.994   .     S
O211   Zn217   1.993   .     S
O212   Zn218   1.993   .     S
O213   Zn217   2.010   .     S
O214   Zn218   2.010   .     S
O215   Zn217   2.015   .     S
O216   Zn218   2.015   .     S
C219   C220    1.404   .     A
C219   C224    1.403   .     A
C220   C221    1.398   .     A
C220   H225    1.083   .     S
C221   C222    1.397   .     A
C221   H62     1.082   1_655 S
C222   C223    1.398   .     A
C222   H63     1.082   1_655 S
C223   H228    1.082   .     S
C223   C224    1.399   .     A
C224   H229    1.083   .     S
C230   C231    1.403   .     A
C230   C235    1.403   .     A
C231   H236    1.083   .     S
C231   C232    1.398   .     A
C232   C233    1.397   .     A
C232   H237    1.082   .     S
C233   C234    1.397   .     A
C234   C235    1.398   .     A
C235   H240    1.083   .     S
H238   C69     1.082   1_655 S
H239   C70     1.081   1_655 S
C241   H242    1.082   .     S
C241   O243    1.222   .     D
C244   O246    1.222   .     D
C244   H245    1.081   .     S
C247   C256    1.414   .     S
C247   O294    1.282   .     A
C247   O291    1.281   .     A
C248   O292    1.281   .     A
C248   O293    1.281   .     A
C248   C255    1.414   .     S
C249   C274    1.404   .     A
C249   H279    1.082   .     S
C249   C1013   1.391   1_554 S
C250   H280    1.082   .     S
C250   C273    1.404   .     A
C250   C1014   1.391   .     S
C251   C256    1.396   .     A
C251   H281    1.084   .     S
C251   C417    1.369   1_455 S
C252   C255    1.396   .     A
C252   H282    1.084   .     S
C252   C336    1.369   .     S
C253   H283    1.084   .     S
C253   C255    1.396   .     A
C253   C333    1.369   .     S
C254   H284    1.084   .     S
C254   C256    1.396   .     A
C254   C416    1.369   1_455 S
C257   N290    1.366   .     A
C257   H285    1.082   .     S
C258   N289    1.366   .     A
C258   H286    1.082   .     S
C258   C505    1.416   .     S
C259   H287    1.080   .     S
C259   N290    1.366   .     A
C260   H288    1.080   .     S
C260   N289    1.366   .     A
C260   C503    1.416   .     S
C261   C266    1.426   .     S
C261   O298    1.282   .     A
C261   O295    1.284   .     A
C262   O297    1.282   .     A
C262   O296    1.283   .     A
C262   C265    1.425   .     S
C263   C301    1.486   .     S
C263   C273    1.403   .     A
C263   C265    1.399   .     A
C264   C274    1.403   .     A
C264   C312    1.485   .     S
C264   C266    1.399   .     A
C265   C267    1.385   .     A
C266   C268    1.385   .     A
C267   H277    1.081   .     S
C267   C269    1.390   .     A
C268   H278    1.081   .     S
C268   C270    1.390   .     A
C269   C275    1.415   .     A
C269   C271    1.422   .     A
C270   C272    1.422   .     A
C270   C276    1.415   .     A
C271   C273    1.418   .     A
C271   C1010   1.401   .     S
C272   C274    1.418   .     A
C272   C1009   1.401   1_554 S
C275   C323    1.491   .     S
C275   C987    1.391   .     S
C276   C326    1.492   .     S
C276   C988    1.391   1_554 S
N289   Zn299   2.009   .     S
N290   Zn300   2.009   .     S
O291   Zn299   1.994   .     S
O292   Zn300   1.994   .     S
O293   Zn299   1.993   .     S
O294   Zn300   1.993   .     S
O295   Zn299   2.010   .     S
O296   Zn300   2.010   .     S
O297   Zn299   2.015   .     S
O298   Zn300   2.015   .     S
C301   C302    1.404   .     A
C301   C306    1.403   .     A
C302   C303    1.398   .     A
C302   H307    1.083   .     S
C303   C304    1.397   .     A
C303   H390    1.082   .     S
C304   C305    1.398   .     A
C304   H391    1.082   .     S
C305   H310    1.082   .     S
C305   C306    1.399   .     A
C306   H311    1.083   .     S
H308   C467    1.082   1_455 S
H309   C468    1.082   1_455 S
C312   C313    1.403   .     A
C312   C317    1.403   .     A
C313   H318    1.083   .     S
C313   C314    1.398   .     A
C314   C315    1.397   .     A
C314   H319    1.082   .     S
C315   C316    1.397   .     A
C315   H484    1.082   1_455 S
C316   C317    1.398   .     A
C316   H485    1.081   1_455 S
C317   H322    1.083   .     S
H320   C397    1.082   .     S
H321   C398    1.081   .     S
C323   H324    1.082   .     S
C323   O325    1.222   .     D
C326   O328    1.222   .     D
C326   H327    1.081   .     S
C329   C338    1.414   .     S
C329   O376    1.282   .     A
C329   O373    1.281   .     A
C330   O374    1.281   .     A
C330   O375    1.281   .     A
C330   C337    1.414   .     S
C331   C356    1.404   .     A
C331   H361    1.082   .     S
C331   C1095   1.391   1_554 S
C332   H362    1.082   .     S
C332   C355    1.404   .     A
C332   C1096   1.391   .     S
C333   C338    1.396   .     A
C333   H363    1.084   .     S
C334   C337    1.396   .     A
C334   H364    1.084   .     S
C334   C418    1.369   .     S
C335   H365    1.084   .     S
C335   C337    1.396   .     A
C335   C415    1.369   .     S
C336   H366    1.084   .     S
C336   C338    1.396   .     A
C339   N372    1.366   .     A
C339   H367    1.082   .     S
C340   N371    1.366   .     A
C340   H368    1.082   .     S
C340   C587    1.416   .     S
C341   H369    1.080   .     S
C341   N372    1.366   .     A
C342   H370    1.080   .     S
C342   N371    1.366   .     A
C342   C585    1.416   .     S
C343   C348    1.426   .     S
C343   O380    1.282   .     A
C343   O377    1.284   .     A
C344   O379    1.282   .     A
C344   O378    1.283   .     A
C344   C347    1.425   .     S
C345   C383    1.486   .     S
C345   C355    1.403   .     A
C345   C347    1.399   .     A
C346   C356    1.403   .     A
C346   C394    1.485   .     S
C346   C348    1.399   .     A
C347   C349    1.385   .     A
C348   C350    1.385   .     A
C349   H359    1.081   .     S
C349   C351    1.390   .     A
C350   H360    1.081   .     S
C350   C352    1.390   .     A
C351   C357    1.415   .     A
C351   C353    1.422   .     A
C352   C354    1.422   .     A
C352   C358    1.415   .     A
C353   C355    1.418   .     A
C353   C1092   1.401   .     S
C354   C356    1.418   .     A
C354   C1091   1.401   1_554 S
C357   C405    1.491   .     S
C357   C1069   1.391   .     S
C358   C408    1.492   .     S
C358   C1070   1.391   1_554 S
N371   Zn381   2.009   .     S
N372   Zn382   2.009   .     S
O373   Zn381   1.994   .     S
O374   Zn382   1.994   .     S
O375   Zn381   1.993   .     S
O376   Zn382   1.993   .     S
O377   Zn381   2.010   .     S
O378   Zn382   2.010   .     S
O379   Zn381   2.015   .     S
O380   Zn382   2.015   .     S
C383   C384    1.404   .     A
C383   C388    1.403   .     A
C384   C385    1.398   .     A
C384   H389    1.083   .     S
C385   C386    1.397   .     A
C385   H472    1.082   .     S
C386   C387    1.398   .     A
C386   H473    1.082   .     S
C387   H392    1.082   .     S
C387   C388    1.399   .     A
C388   H393    1.083   .     S
C394   C395    1.403   .     A
C394   C399    1.403   .     A
C395   H400    1.083   .     S
C395   C396    1.398   .     A
C396   C397    1.397   .     A
C396   H401    1.082   .     S
C397   C398    1.397   .     A
C398   C399    1.398   .     A
C399   H404    1.083   .     S
H402   C479    1.082   .     S
H403   C480    1.081   .     S
C405   H406    1.082   .     S
C405   O407    1.222   .     D
C408   O410    1.222   .     D
C408   H409    1.081   .     S
C411   C420    1.414   .     S
C411   O458    1.282   .     A
C411   O455    1.281   .     A
C412   O456    1.281   .     A
C412   O457    1.281   .     A
C412   C419    1.414   .     S
C413   C438    1.404   .     A
C413   H443    1.082   .     S
C413   C1177   1.391   1_554 S
C414   H444    1.082   .     S
C414   C437    1.404   .     A
C414   C1178   1.391   .     S
C415   C420    1.396   .     A
C415   H445    1.084   .     S
C416   C419    1.396   .     A
C416   H446    1.084   .     S
C416   C254    1.369   1_655 S
C417   H447    1.084   .     S
C417   C419    1.396   .     A
C417   C251    1.369   1_655 S
C418   H448    1.084   .     S
C418   C420    1.396   .     A
C421   N454    1.366   .     A
C421   H449    1.082   .     S
C422   N453    1.366   .     A
C422   H450    1.082   .     S
C422   C669    1.416   .     S
C423   H451    1.080   .     S
C423   N454    1.366   .     A
C424   H452    1.080   .     S
C424   N453    1.366   .     A
C424   C667    1.416   .     S
C425   C430    1.426   .     S
C425   O462    1.282   .     A
C425   O459    1.284   .     A
C426   O461    1.282   .     A
C426   O460    1.283   .     A
C426   C429    1.425   .     S
C427   C465    1.486   .     S
C427   C437    1.403   .     A
C427   C429    1.399   .     A
C428   C438    1.403   .     A
C428   C476    1.485   .     S
C428   C430    1.399   .     A
C429   C431    1.385   .     A
C430   C432    1.385   .     A
C431   H441    1.081   .     S
C431   C433    1.390   .     A
C432   H442    1.081   .     S
C432   C434    1.390   .     A
C433   C439    1.415   .     A
C433   C435    1.422   .     A
C434   C436    1.422   .     A
C434   C440    1.415   .     A
C435   C437    1.418   .     A
C435   C1174   1.401   .     S
C436   C438    1.418   .     A
C436   C1173   1.401   1_554 S
C439   C487    1.491   .     S
C439   C1151   1.391   .     S
C440   C490    1.492   .     S
C440   C1152   1.391   1_554 S
N453   Zn463   2.009   .     S
N454   Zn464   2.009   .     S
O455   Zn463   1.994   .     S
O456   Zn464   1.994   .     S
O457   Zn463   1.993   .     S
O458   Zn464   1.993   .     S
O459   Zn463   2.010   .     S
O460   Zn464   2.010   .     S
O461   Zn463   2.015   .     S
O462   Zn464   2.015   .     S
C465   C466    1.404   .     A
C465   C470    1.403   .     A
C466   C467    1.398   .     A
C466   H471    1.083   .     S
C467   C468    1.397   .     A
C467   H308    1.082   1_655 S
C468   C469    1.398   .     A
C468   H309    1.082   1_655 S
C469   H474    1.082   .     S
C469   C470    1.399   .     A
C470   H475    1.083   .     S
C476   C477    1.403   .     A
C476   C481    1.403   .     A
C477   H482    1.083   .     S
C477   C478    1.398   .     A
C478   C479    1.397   .     A
C478   H483    1.082   .     S
C479   C480    1.397   .     A
C480   C481    1.398   .     A
C481   H486    1.083   .     S
H484   C315    1.082   1_655 S
H485   C316    1.081   1_655 S
C487   H488    1.082   .     S
C487   O489    1.222   .     D
C490   O492    1.222   .     D
C490   H491    1.081   .     S
C493   C502    1.414   .     S
C493   O540    1.282   .     A
C493   O537    1.281   .     A
C494   O538    1.281   .     A
C494   O539    1.281   .     A
C494   C501    1.414   .     S
C495   C520    1.404   .     A
C495   H525    1.082   .     S
C495   C1259   1.391   1_554 S
C496   H526    1.082   .     S
C496   C519    1.404   .     A
C496   C1260   1.391   .     S
C497   C502    1.396   .     A
C497   H527    1.084   .     S
C497   C663    1.369   1_455 S
C498   C501    1.396   .     A
C498   H528    1.084   .     S
C498   C582    1.369   .     S
C499   H529    1.084   .     S
C499   C501    1.396   .     A
C499   C579    1.369   .     S
C500   H530    1.084   .     S
C500   C502    1.396   .     A
C500   C662    1.369   1_455 S
C503   N536    1.366   .     A
C503   H531    1.082   .     S
C504   N535    1.366   .     A
C504   H532    1.082   .     S
C504   C13     1.416   1_565 S
C505   H533    1.080   .     S
C505   N536    1.366   .     A
C506   H534    1.080   .     S
C506   N535    1.366   .     A
C506   C11     1.416   1_565 S
C507   C512    1.426   .     S
C507   O544    1.282   .     A
C507   O541    1.284   .     A
C508   O543    1.282   .     A
C508   O542    1.283   .     A
C508   C511    1.425   .     S
C509   C547    1.486   .     S
C509   C519    1.403   .     A
C509   C511    1.399   .     A
C510   C520    1.403   .     A
C510   C558    1.485   .     S
C510   C512    1.399   .     A
C511   C513    1.385   .     A
C512   C514    1.385   .     A
C513   H523    1.081   .     S
C513   C515    1.390   .     A
C514   H524    1.081   .     S
C514   C516    1.390   .     A
C515   C521    1.415   .     A
C515   C517    1.422   .     A
C516   C518    1.422   .     A
C516   C522    1.415   .     A
C517   C519    1.418   .     A
C517   C1256   1.401   .     S
C518   C520    1.418   .     A
C518   C1255   1.401   1_554 S
C521   C569    1.491   .     S
C521   C1233   1.391   .     S
C522   C572    1.492   .     S
C522   C1234   1.391   1_554 S
N535   Zn545   2.009   .     S
N536   Zn546   2.009   .     S
O537   Zn545   1.994   .     S
O538   Zn546   1.994   .     S
O539   Zn545   1.993   .     S
O540   Zn546   1.993   .     S
O541   Zn545   2.010   .     S
O542   Zn546   2.010   .     S
O543   Zn545   2.015   .     S
O544   Zn546   2.015   .     S
C547   C548    1.404   .     A
C547   C552    1.403   .     A
C548   C549    1.398   .     A
C548   H553    1.083   .     S
C549   C550    1.397   .     A
C549   H636    1.082   .     S
C550   C551    1.398   .     A
C550   H637    1.082   .     S
C551   H556    1.082   .     S
C551   C552    1.399   .     A
C552   H557    1.083   .     S
H554   C713    1.082   1_455 S
H555   C714    1.082   1_455 S
C558   C559    1.403   .     A
C558   C563    1.403   .     A
C559   H564    1.083   .     S
C559   C560    1.398   .     A
C560   C561    1.397   .     A
C560   H565    1.082   .     S
C561   C562    1.397   .     A
C561   H730    1.082   1_455 S
C562   C563    1.398   .     A
C562   H731    1.081   1_455 S
C563   H568    1.083   .     S
H566   C643    1.082   .     S
H567   C644    1.081   .     S
C569   H570    1.082   .     S
C569   O571    1.222   .     D
C572   O574    1.222   .     D
C572   H573    1.081   .     S
C575   C584    1.414   .     S
C575   O622    1.282   .     A
C575   O619    1.281   .     A
C576   O620    1.281   .     A
C576   O621    1.281   .     A
C576   C583    1.414   .     S
C577   C602    1.404   .     A
C577   H607    1.082   .     S
C577   C1341   1.391   1_554 S
C578   H608    1.082   .     S
C578   C601    1.404   .     A
C578   C1342   1.391   .     S
C579   C584    1.396   .     A
C579   H609    1.084   .     S
C580   C583    1.396   .     A
C580   H610    1.084   .     S
C580   C664    1.369   .     S
C581   H611    1.084   .     S
C581   C583    1.396   .     A
C581   C661    1.369   .     S
C582   H612    1.084   .     S
C582   C584    1.396   .     A
C585   N618    1.366   .     A
C585   H613    1.082   .     S
C586   N617    1.366   .     A
C586   H614    1.082   .     S
C586   C95     1.416   1_565 S
C587   H615    1.080   .     S
C587   N618    1.366   .     A
C588   H616    1.080   .     S
C588   N617    1.366   .     A
C588   C93     1.416   1_565 S
C589   C594    1.426   .     S
C589   O626    1.282   .     A
C589   O623    1.284   .     A
C590   O625    1.282   .     A
C590   O624    1.283   .     A
C590   C593    1.425   .     S
C591   C629    1.486   .     S
C591   C601    1.403   .     A
C591   C593    1.399   .     A
C592   C602    1.403   .     A
C592   C640    1.485   .     S
C592   C594    1.399   .     A
C593   C595    1.385   .     A
C594   C596    1.385   .     A
C595   H605    1.081   .     S
C595   C597    1.390   .     A
C596   H606    1.081   .     S
C596   C598    1.390   .     A
C597   C603    1.415   .     A
C597   C599    1.422   .     A
C598   C600    1.422   .     A
C598   C604    1.415   .     A
C599   C601    1.418   .     A
C599   C1338   1.401   .     S
C600   C602    1.418   .     A
C600   C1337   1.401   1_554 S
C603   C651    1.491   .     S
C603   C1315   1.391   .     S
C604   C654    1.492   .     S
C604   C1316   1.391   1_554 S
N617   Zn627   2.009   .     S
N618   Zn628   2.009   .     S
O619   Zn627   1.994   .     S
O620   Zn628   1.994   .     S
O621   Zn627   1.993   .     S
O622   Zn628   1.993   .     S
O623   Zn627   2.010   .     S
O624   Zn628   2.010   .     S
O625   Zn627   2.015   .     S
O626   Zn628   2.015   .     S
C629   C630    1.404   .     A
C629   C634    1.403   .     A
C630   C631    1.398   .     A
C630   H635    1.083   .     S
C631   C632    1.397   .     A
C631   H718    1.082   .     S
C632   C633    1.398   .     A
C632   H719    1.082   .     S
C633   H638    1.082   .     S
C633   C634    1.399   .     A
C634   H639    1.083   .     S
C640   C641    1.403   .     A
C640   C645    1.403   .     A
C641   H646    1.083   .     S
C641   C642    1.398   .     A
C642   C643    1.397   .     A
C642   H647    1.082   .     S
C643   C644    1.397   .     A
C644   C645    1.398   .     A
C645   H650    1.083   .     S
H648   C725    1.082   .     S
H649   C726    1.081   .     S
C651   H652    1.082   .     S
C651   O653    1.222   .     D
C654   O656    1.222   .     D
C654   H655    1.081   .     S
C657   C666    1.414   .     S
C657   O704    1.282   .     A
C657   O701    1.281   .     A
C658   O702    1.281   .     A
C658   O703    1.281   .     A
C658   C665    1.414   .     S
C659   C684    1.404   .     A
C659   H689    1.082   .     S
C659   C1423   1.391   1_554 S
C660   H690    1.082   .     S
C660   C683    1.404   .     A
C660   C1424   1.391   .     S
C661   C666    1.396   .     A
C661   H691    1.084   .     S
C662   C665    1.396   .     A
C662   H692    1.084   .     S
C662   C500    1.369   1_655 S
C663   H693    1.084   .     S
C663   C665    1.396   .     A
C663   C497    1.369   1_655 S
C664   H694    1.084   .     S
C664   C666    1.396   .     A
C667   N700    1.366   .     A
C667   H695    1.082   .     S
C668   N699    1.366   .     A
C668   H696    1.082   .     S
C668   C177    1.416   1_565 S
C669   H697    1.080   .     S
C669   N700    1.366   .     A
C670   H698    1.080   .     S
C670   N699    1.366   .     A
C670   C175    1.416   1_565 S
C671   C676    1.426   .     S
C671   O708    1.282   .     A
C671   O705    1.284   .     A
C672   O707    1.282   .     A
C672   O706    1.283   .     A
C672   C675    1.425   .     S
C673   C711    1.486   .     S
C673   C683    1.403   .     A
C673   C675    1.399   .     A
C674   C684    1.403   .     A
C674   C722    1.485   .     S
C674   C676    1.399   .     A
C675   C677    1.385   .     A
C676   C678    1.385   .     A
C677   H687    1.081   .     S
C677   C679    1.390   .     A
C678   H688    1.081   .     S
C678   C680    1.390   .     A
C679   C685    1.415   .     A
C679   C681    1.422   .     A
C680   C682    1.422   .     A
C680   C686    1.415   .     A
C681   C683    1.418   .     A
C681   C1420   1.401   .     S
C682   C684    1.418   .     A
C682   C1419   1.401   1_554 S
C685   C733    1.491   .     S
C685   C1397   1.391   .     S
C686   C736    1.492   .     S
C686   C1398   1.391   1_554 S
N699   Zn709   2.009   .     S
N700   Zn710   2.009   .     S
O701   Zn709   1.994   .     S
O702   Zn710   1.994   .     S
O703   Zn709   1.993   .     S
O704   Zn710   1.993   .     S
O705   Zn709   2.010   .     S
O706   Zn710   2.010   .     S
O707   Zn709   2.015   .     S
O708   Zn710   2.015   .     S
C711   C712    1.404   .     A
C711   C716    1.403   .     A
C712   C713    1.398   .     A
C712   H717    1.083   .     S
C713   C714    1.397   .     A
C713   H554    1.082   1_655 S
C714   C715    1.398   .     A
C714   H555    1.082   1_655 S
C715   H720    1.082   .     S
C715   C716    1.399   .     A
C716   H721    1.083   .     S
C722   C723    1.403   .     A
C722   C727    1.403   .     A
C723   H728    1.083   .     S
C723   C724    1.398   .     A
C724   C725    1.397   .     A
C724   H729    1.082   .     S
C725   C726    1.397   .     A
C726   C727    1.398   .     A
C727   H732    1.083   .     S
H730   C561    1.082   1_655 S
H731   C562    1.081   1_655 S
C733   H734    1.082   .     S
C733   O735    1.222   .     D
C736   O738    1.222   .     D
C736   H737    1.081   .     S
C739   C748    1.414   .     S
C739   O786    1.282   .     A
C739   O783    1.281   .     A
C740   O784    1.281   .     A
C740   O785    1.281   .     A
C740   C747    1.414   .     S
C741   C766    1.404   .     A
C741   H771    1.082   .     S
C742   H772    1.082   .     S
C742   C765    1.404   .     A
C742   C30     1.391   1_556 S
C743   C748    1.396   .     A
C743   H773    1.084   .     S
C743   C909    1.369   1_455 S
C744   C747    1.396   .     A
C744   H774    1.084   .     S
C744   C828    1.369   .     S
C745   H775    1.084   .     S
C745   C747    1.396   .     A
C745   C825    1.369   .     S
C746   H776    1.084   .     S
C746   C748    1.396   .     A
C746   C908    1.369   1_455 S
C749   N782    1.366   .     A
C749   H777    1.082   .     S
C749   C1244   1.416   1_545 S
C750   N781    1.366   .     A
C750   H778    1.082   .     S
C750   C997    1.416   .     S
C751   H779    1.080   .     S
C751   N782    1.366   .     A
C751   C1242   1.416   1_545 S
C752   H780    1.080   .     S
C752   N781    1.366   .     A
C752   C995    1.416   .     S
C753   C758    1.426   .     S
C753   O790    1.282   .     A
C753   O787    1.284   .     A
C754   O789    1.282   .     A
C754   O788    1.283   .     A
C754   C757    1.425   .     S
C755   C793    1.486   .     S
C755   C765    1.403   .     A
C755   C757    1.399   .     A
C756   C766    1.403   .     A
C756   C804    1.485   .     S
C756   C758    1.399   .     A
C757   C759    1.385   .     A
C758   C760    1.385   .     A
C759   H769    1.081   .     S
C759   C761    1.390   .     A
C760   H770    1.081   .     S
C760   C762    1.390   .     A
C761   C767    1.415   .     A
C761   C763    1.422   .     A
C762   C764    1.422   .     A
C762   C768    1.415   .     A
C763   C765    1.418   .     A
C763   C26     1.401   1_556 S
C764   C766    1.418   .     A
C767   C815    1.491   .     S
C767   C3      1.391   1_556 S
C768   C818    1.492   .     S
N781   Zn791   2.009   .     S
N782   Zn792   2.009   .     S
O783   Zn791   1.994   .     S
O784   Zn792   1.994   .     S
O785   Zn791   1.993   .     S
O786   Zn792   1.993   .     S
O787   Zn791   2.010   .     S
O788   Zn792   2.010   .     S
O789   Zn791   2.015   .     S
O790   Zn792   2.015   .     S
C793   C794    1.404   .     A
C793   C798    1.403   .     A
C794   C795    1.398   .     A
C794   H799    1.083   .     S
C795   C796    1.397   .     A
C795   H882    1.082   .     S
C796   C797    1.398   .     A
C796   H883    1.082   .     S
C797   H802    1.082   .     S
C797   C798    1.399   .     A
C798   H803    1.083   .     S
H800   C959    1.082   1_455 S
H801   C960    1.082   1_455 S
C804   C805    1.403   .     A
C804   C809    1.403   .     A
C805   H810    1.083   .     S
C805   C806    1.398   .     A
C806   C807    1.397   .     A
C806   H811    1.082   .     S
C807   C808    1.397   .     A
C807   H976    1.082   1_455 S
C808   C809    1.398   .     A
C808   H977    1.081   1_455 S
C809   H814    1.083   .     S
H812   C889    1.082   .     S
H813   C890    1.081   .     S
C815   H816    1.082   .     S
C815   O817    1.222   .     D
C818   O820    1.222   .     D
C818   H819    1.081   .     S
C821   C830    1.414   .     S
C821   O868    1.282   .     A
C821   O865    1.281   .     A
C822   O866    1.281   .     A
C822   O867    1.281   .     A
C822   C829    1.414   .     S
C823   C848    1.404   .     A
C823   H853    1.082   .     S
C824   H854    1.082   .     S
C824   C847    1.404   .     A
C824   C112    1.391   1_556 S
C825   C830    1.396   .     A
C825   H855    1.084   .     S
C826   C829    1.396   .     A
C826   H856    1.084   .     S
C826   C910    1.369   .     S
C827   H857    1.084   .     S
C827   C829    1.396   .     A
C827   C907    1.369   .     S
C828   H858    1.084   .     S
C828   C830    1.396   .     A
C831   N864    1.366   .     A
C831   H859    1.082   .     S
C831   C1326   1.416   1_545 S
C832   N863    1.366   .     A
C832   H860    1.082   .     S
C832   C1079   1.416   .     S
C833   H861    1.080   .     S
C833   N864    1.366   .     A
C833   C1324   1.416   1_545 S
C834   H862    1.080   .     S
C834   N863    1.366   .     A
C834   C1077   1.416   .     S
C835   C840    1.426   .     S
C835   O872    1.282   .     A
C835   O869    1.284   .     A
C836   O871    1.282   .     A
C836   O870    1.283   .     A
C836   C839    1.425   .     S
C837   C875    1.486   .     S
C837   C847    1.403   .     A
C837   C839    1.399   .     A
C838   C848    1.403   .     A
C838   C886    1.485   .     S
C838   C840    1.399   .     A
C839   C841    1.385   .     A
C840   C842    1.385   .     A
C841   H851    1.081   .     S
C841   C843    1.390   .     A
C842   H852    1.081   .     S
C842   C844    1.390   .     A
C843   C849    1.415   .     A
C843   C845    1.422   .     A
C844   C846    1.422   .     A
C844   C850    1.415   .     A
C845   C847    1.418   .     A
C845   C108    1.401   1_556 S
C846   C848    1.418   .     A
C849   C897    1.491   .     S
C849   C85     1.391   1_556 S
C850   C900    1.492   .     S
N863   Zn873   2.009   .     S
N864   Zn874   2.009   .     S
O865   Zn873   1.994   .     S
O866   Zn874   1.994   .     S
O867   Zn873   1.993   .     S
O868   Zn874   1.993   .     S
O869   Zn873   2.010   .     S
O870   Zn874   2.010   .     S
O871   Zn873   2.015   .     S
O872   Zn874   2.015   .     S
C875   C876    1.404   .     A
C875   C880    1.403   .     A
C876   C877    1.398   .     A
C876   H881    1.083   .     S
C877   C878    1.397   .     A
C877   H964    1.082   .     S
C878   C879    1.398   .     A
C878   H965    1.082   .     S
C879   H884    1.082   .     S
C879   C880    1.399   .     A
C880   H885    1.083   .     S
C886   C887    1.403   .     A
C886   C891    1.403   .     A
C887   H892    1.083   .     S
C887   C888    1.398   .     A
C888   C889    1.397   .     A
C888   H893    1.082   .     S
C889   C890    1.397   .     A
C890   C891    1.398   .     A
C891   H896    1.083   .     S
H894   C971    1.082   .     S
H895   C972    1.081   .     S
C897   H898    1.082   .     S
C897   O899    1.222   .     D
C900   O902    1.222   .     D
C900   H901    1.081   .     S
C903   C912    1.414   .     S
C903   O950    1.282   .     A
C903   O947    1.281   .     A
C904   O948    1.281   .     A
C904   O949    1.281   .     A
C904   C911    1.414   .     S
C905   C930    1.404   .     A
C905   H935    1.082   .     S
C906   H936    1.082   .     S
C906   C929    1.404   .     A
C906   C194    1.391   1_556 S
C907   C912    1.396   .     A
C907   H937    1.084   .     S
C908   C911    1.396   .     A
C908   H938    1.084   .     S
C908   C746    1.369   1_655 S
C909   H939    1.084   .     S
C909   C911    1.396   .     A
C909   C743    1.369   1_655 S
C910   H940    1.084   .     S
C910   C912    1.396   .     A
C913   N946    1.366   .     A
C913   H941    1.082   .     S
C913   C1408   1.416   1_545 S
C914   N945    1.366   .     A
C914   H942    1.082   .     S
C914   C1161   1.416   .     S
C915   H943    1.080   .     S
C915   N946    1.366   .     A
C915   C1406   1.416   1_545 S
C916   H944    1.080   .     S
C916   N945    1.366   .     A
C916   C1159   1.416   .     S
C917   C922    1.426   .     S
C917   O954    1.282   .     A
C917   O951    1.284   .     A
C918   O953    1.282   .     A
C918   O952    1.283   .     A
C918   C921    1.425   .     S
C919   C957    1.486   .     S
C919   C929    1.403   .     A
C919   C921    1.399   .     A
C920   C930    1.403   .     A
C920   C968    1.485   .     S
C920   C922    1.399   .     A
C921   C923    1.385   .     A
C922   C924    1.385   .     A
C923   H933    1.081   .     S
C923   C925    1.390   .     A
C924   H934    1.081   .     S
C924   C926    1.390   .     A
C925   C931    1.415   .     A
C925   C927    1.422   .     A
C926   C928    1.422   .     A
C926   C932    1.415   .     A
C927   C929    1.418   .     A
C927   C190    1.401   1_556 S
C928   C930    1.418   .     A
C931   C979    1.491   .     S
C931   C167    1.391   1_556 S
C932   C982    1.492   .     S
N945   Zn955   2.009   .     S
N946   Zn956   2.009   .     S
O947   Zn955   1.994   .     S
O948   Zn956   1.994   .     S
O949   Zn955   1.993   .     S
O950   Zn956   1.993   .     S
O951   Zn955   2.010   .     S
O952   Zn956   2.010   .     S
O953   Zn955   2.015   .     S
O954   Zn956   2.015   .     S
C957   C958    1.404   .     A
C957   C962    1.403   .     A
C958   C959    1.398   .     A
C958   H963    1.083   .     S
C959   C960    1.397   .     A
C959   H800    1.082   1_655 S
C960   C961    1.398   .     A
C960   H801    1.082   1_655 S
C961   H966    1.082   .     S
C961   C962    1.399   .     A
C962   H967    1.083   .     S
C968   C969    1.403   .     A
C968   C973    1.403   .     A
C969   H974    1.083   .     S
C969   C970    1.398   .     A
C970   C971    1.397   .     A
C970   H975    1.082   .     S
C971   C972    1.397   .     A
C972   C973    1.398   .     A
C973   H978    1.083   .     S
H976   C807    1.082   1_655 S
H977   C808    1.081   1_655 S
C979   H980    1.082   .     S
C979   O981    1.222   .     D
C982   O984    1.222   .     D
C982   H983    1.081   .     S
C985   C994    1.414   .     S
C985   O1032   1.282   .     A
C985   O1029   1.281   .     A
C986   O1030   1.281   .     A
C986   O1031   1.281   .     A
C986   C993    1.414   .     S
C987   C1012   1.404   .     A
C987   H1017   1.082   .     S
C988   H1018   1.082   .     S
C988   C1011   1.404   .     A
C988   C276    1.391   1_556 S
C989   C994    1.396   .     A
C989   H1019   1.084   .     S
C989   C1155   1.369   1_455 S
C990   C993    1.396   .     A
C990   H1020   1.084   .     S
C990   C1074   1.369   .     S
C991   H1021   1.084   .     S
C991   C993    1.396   .     A
C991   C1071   1.369   .     S
C992   H1022   1.084   .     S
C992   C994    1.396   .     A
C992   C1154   1.369   1_455 S
C995   N1028   1.366   .     A
C995   H1023   1.082   .     S
C996   N1027   1.366   .     A
C996   H1024   1.082   .     S
C996   C1243   1.416   .     S
C997   H1025   1.080   .     S
C997   N1028   1.366   .     A
C998   H1026   1.080   .     S
C998   N1027   1.366   .     A
C998   C1241   1.416   .     S
C999   C1004   1.426   .     S
C999   O1036   1.282   .     A
C999   O1033   1.284   .     A
C1000  O1035   1.282   .     A
C1000  O1034   1.283   .     A
C1000  C1003   1.425   .     S
C1001  C1039   1.486   .     S
C1001  C1011   1.403   .     A
C1001  C1003   1.399   .     A
C1002  C1012   1.403   .     A
C1002  C1050   1.485   .     S
C1002  C1004   1.399   .     A
C1003  C1005   1.385   .     A
C1004  C1006   1.385   .     A
C1005  H1015   1.081   .     S
C1005  C1007   1.390   .     A
C1006  H1016   1.081   .     S
C1006  C1008   1.390   .     A
C1007  C1013   1.415   .     A
C1007  C1009   1.422   .     A
C1008  C1010   1.422   .     A
C1008  C1014   1.415   .     A
C1009  C1011   1.418   .     A
C1009  C272    1.401   1_556 S
C1010  C1012   1.418   .     A
C1013  C1061   1.491   .     S
C1013  C249    1.391   1_556 S
C1014  C1064   1.492   .     S
N1027  Zn1037  2.009   .     S
N1028  Zn1038  2.009   .     S
O1029  Zn1037  1.994   .     S
O1030  Zn1038  1.994   .     S
O1031  Zn1037  1.993   .     S
O1032  Zn1038  1.993   .     S
O1033  Zn1037  2.010   .     S
O1034  Zn1038  2.010   .     S
O1035  Zn1037  2.015   .     S
O1036  Zn1038  2.015   .     S
C1039  C1040   1.404   .     A
C1039  C1044   1.403   .     A
C1040  C1041   1.398   .     A
C1040  H1045   1.083   .     S
C1041  C1042   1.397   .     A
C1041  H1128   1.082   .     S
C1042  C1043   1.398   .     A
C1042  H1129   1.082   .     S
C1043  H1048   1.082   .     S
C1043  C1044   1.399   .     A
C1044  H1049   1.083   .     S
H1046  C1205   1.082   1_455 S
H1047  C1206   1.082   1_455 S
C1050  C1051   1.403   .     A
C1050  C1055   1.403   .     A
C1051  H1056   1.083   .     S
C1051  C1052   1.398   .     A
C1052  C1053   1.397   .     A
C1052  H1057   1.082   .     S
C1053  C1054   1.397   .     A
C1053  H1222   1.082   1_455 S
C1054  C1055   1.398   .     A
C1054  H1223   1.081   1_455 S
C1055  H1060   1.083   .     S
H1058  C1135   1.082   .     S
H1059  C1136   1.081   .     S
C1061  H1062   1.082   .     S
C1061  O1063   1.222   .     D
C1064  O1066   1.222   .     D
C1064  H1065   1.081   .     S
C1067  C1076   1.414   .     S
C1067  O1114   1.282   .     A
C1067  O1111   1.281   .     A
C1068  O1112   1.281   .     A
C1068  O1113   1.281   .     A
C1068  C1075   1.414   .     S
C1069  C1094   1.404   .     A
C1069  H1099   1.082   .     S
C1070  H1100   1.082   .     S
C1070  C1093   1.404   .     A
C1070  C358    1.391   1_556 S
C1071  C1076   1.396   .     A
C1071  H1101   1.084   .     S
C1072  C1075   1.396   .     A
C1072  H1102   1.084   .     S
C1072  C1156   1.369   .     S
C1073  H1103   1.084   .     S
C1073  C1075   1.396   .     A
C1073  C1153   1.369   .     S
C1074  H1104   1.084   .     S
C1074  C1076   1.396   .     A
C1077  N1110   1.366   .     A
C1077  H1105   1.082   .     S
C1078  N1109   1.366   .     A
C1078  H1106   1.082   .     S
C1078  C1325   1.416   .     S
C1079  H1107   1.080   .     S
C1079  N1110   1.366   .     A
C1080  H1108   1.080   .     S
C1080  N1109   1.366   .     A
C1080  C1323   1.416   .     S
C1081  C1086   1.426   .     S
C1081  O1118   1.282   .     A
C1081  O1115   1.284   .     A
C1082  O1117   1.282   .     A
C1082  O1116   1.283   .     A
C1082  C1085   1.425   .     S
C1083  C1121   1.486   .     S
C1083  C1093   1.403   .     A
C1083  C1085   1.399   .     A
C1084  C1094   1.403   .     A
C1084  C1132   1.485   .     S
C1084  C1086   1.399   .     A
C1085  C1087   1.385   .     A
C1086  C1088   1.385   .     A
C1087  H1097   1.081   .     S
C1087  C1089   1.390   .     A
C1088  H1098   1.081   .     S
C1088  C1090   1.390   .     A
C1089  C1095   1.415   .     A
C1089  C1091   1.422   .     A
C1090  C1092   1.422   .     A
C1090  C1096   1.415   .     A
C1091  C1093   1.418   .     A
C1091  C354    1.401   1_556 S
C1092  C1094   1.418   .     A
C1095  C1143   1.491   .     S
C1095  C331    1.391   1_556 S
C1096  C1146   1.492   .     S
N1109  Zn1119  2.009   .     S
N1110  Zn1120  2.009   .     S
O1111  Zn1119  1.994   .     S
O1112  Zn1120  1.994   .     S
O1113  Zn1119  1.993   .     S
O1114  Zn1120  1.993   .     S
O1115  Zn1119  2.010   .     S
O1116  Zn1120  2.010   .     S
O1117  Zn1119  2.015   .     S
O1118  Zn1120  2.015   .     S
C1121  C1122   1.404   .     A
C1121  C1126   1.403   .     A
C1122  C1123   1.398   .     A
C1122  H1127   1.083   .     S
C1123  C1124   1.397   .     A
C1123  H1210   1.082   .     S
C1124  C1125   1.398   .     A
C1124  H1211   1.082   .     S
C1125  H1130   1.082   .     S
C1125  C1126   1.399   .     A
C1126  H1131   1.083   .     S
C1132  C1133   1.403   .     A
C1132  C1137   1.403   .     A
C1133  H1138   1.083   .     S
C1133  C1134   1.398   .     A
C1134  C1135   1.397   .     A
C1134  H1139   1.082   .     S
C1135  C1136   1.397   .     A
C1136  C1137   1.398   .     A
C1137  H1142   1.083   .     S
H1140  C1217   1.082   .     S
H1141  C1218   1.081   .     S
C1143  H1144   1.082   .     S
C1143  O1145   1.222   .     D
C1146  O1148   1.222   .     D
C1146  H1147   1.081   .     S
C1149  C1158   1.414   .     S
C1149  O1196   1.282   .     A
C1149  O1193   1.281   .     A
C1150  O1194   1.281   .     A
C1150  O1195   1.281   .     A
C1150  C1157   1.414   .     S
C1151  C1176   1.404   .     A
C1151  H1181   1.082   .     S
C1152  H1182   1.082   .     S
C1152  C1175   1.404   .     A
C1152  C440    1.391   1_556 S
C1153  C1158   1.396   .     A
C1153  H1183   1.084   .     S
C1154  C1157   1.396   .     A
C1154  H1184   1.084   .     S
C1154  C992    1.369   1_655 S
C1155  H1185   1.084   .     S
C1155  C1157   1.396   .     A
C1155  C989    1.369   1_655 S
C1156  H1186   1.084   .     S
C1156  C1158   1.396   .     A
C1159  N1192   1.366   .     A
C1159  H1187   1.082   .     S
C1160  N1191   1.366   .     A
C1160  H1188   1.082   .     S
C1160  C1407   1.416   .     S
C1161  H1189   1.080   .     S
C1161  N1192   1.366   .     A
C1162  H1190   1.080   .     S
C1162  N1191   1.366   .     A
C1162  C1405   1.416   .     S
C1163  C1168   1.426   .     S
C1163  O1200   1.282   .     A
C1163  O1197   1.284   .     A
C1164  O1199   1.282   .     A
C1164  O1198   1.283   .     A
C1164  C1167   1.425   .     S
C1165  C1203   1.486   .     S
C1165  C1175   1.403   .     A
C1165  C1167   1.399   .     A
C1166  C1176   1.403   .     A
C1166  C1214   1.485   .     S
C1166  C1168   1.399   .     A
C1167  C1169   1.385   .     A
C1168  C1170   1.385   .     A
C1169  H1179   1.081   .     S
C1169  C1171   1.390   .     A
C1170  H1180   1.081   .     S
C1170  C1172   1.390   .     A
C1171  C1177   1.415   .     A
C1171  C1173   1.422   .     A
C1172  C1174   1.422   .     A
C1172  C1178   1.415   .     A
C1173  C1175   1.418   .     A
C1173  C436    1.401   1_556 S
C1174  C1176   1.418   .     A
C1177  C1225   1.491   .     S
C1177  C413    1.391   1_556 S
C1178  C1228   1.492   .     S
N1191  Zn1201  2.009   .     S
N1192  Zn1202  2.009   .     S
O1193  Zn1201  1.994   .     S
O1194  Zn1202  1.994   .     S
O1195  Zn1201  1.993   .     S
O1196  Zn1202  1.993   .     S
O1197  Zn1201  2.010   .     S
O1198  Zn1202  2.010   .     S
O1199  Zn1201  2.015   .     S
O1200  Zn1202  2.015   .     S
C1203  C1204   1.404   .     A
C1203  C1208   1.403   .     A
C1204  C1205   1.398   .     A
C1204  H1209   1.083   .     S
C1205  C1206   1.397   .     A
C1205  H1046   1.082   1_655 S
C1206  C1207   1.398   .     A
C1206  H1047   1.082   1_655 S
C1207  H1212   1.082   .     S
C1207  C1208   1.399   .     A
C1208  H1213   1.083   .     S
C1214  C1215   1.403   .     A
C1214  C1219   1.403   .     A
C1215  H1220   1.083   .     S
C1215  C1216   1.398   .     A
C1216  C1217   1.397   .     A
C1216  H1221   1.082   .     S
C1217  C1218   1.397   .     A
C1218  C1219   1.398   .     A
C1219  H1224   1.083   .     S
H1222  C1053   1.082   1_655 S
H1223  C1054   1.081   1_655 S
C1225  H1226   1.082   .     S
C1225  O1227   1.222   .     D
C1228  O1230   1.222   .     D
C1228  H1229   1.081   .     S
C1231  C1240   1.414   .     S
C1231  O1278   1.282   .     A
C1231  O1275   1.281   .     A
C1232  O1276   1.281   .     A
C1232  O1277   1.281   .     A
C1232  C1239   1.414   .     S
C1233  C1258   1.404   .     A
C1233  H1263   1.082   .     S
C1234  H1264   1.082   .     S
C1234  C1257   1.404   .     A
C1234  C522    1.391   1_556 S
C1235  C1240   1.396   .     A
C1235  H1265   1.084   .     S
C1235  C1401   1.369   1_455 S
C1236  C1239   1.396   .     A
C1236  H1266   1.084   .     S
C1236  C1320   1.369   .     S
C1237  H1267   1.084   .     S
C1237  C1239   1.396   .     A
C1237  C1317   1.369   .     S
C1238  H1268   1.084   .     S
C1238  C1240   1.396   .     A
C1238  C1400   1.369   1_455 S
C1241  N1274   1.366   .     A
C1241  H1269   1.082   .     S
C1242  N1273   1.366   .     A
C1242  H1270   1.082   .     S
C1242  C751    1.416   1_565 S
C1243  H1271   1.080   .     S
C1243  N1274   1.366   .     A
C1244  H1272   1.080   .     S
C1244  N1273   1.366   .     A
C1244  C749    1.416   1_565 S
C1245  C1250   1.426   .     S
C1245  O1282   1.282   .     A
C1245  O1279   1.284   .     A
C1246  O1281   1.282   .     A
C1246  O1280   1.283   .     A
C1246  C1249   1.425   .     S
C1247  C1285   1.486   .     S
C1247  C1257   1.403   .     A
C1247  C1249   1.399   .     A
C1248  C1258   1.403   .     A
C1248  C1296   1.485   .     S
C1248  C1250   1.399   .     A
C1249  C1251   1.385   .     A
C1250  C1252   1.385   .     A
C1251  H1261   1.081   .     S
C1251  C1253   1.390   .     A
C1252  H1262   1.081   .     S
C1252  C1254   1.390   .     A
C1253  C1259   1.415   .     A
C1253  C1255   1.422   .     A
C1254  C1256   1.422   .     A
C1254  C1260   1.415   .     A
C1255  C1257   1.418   .     A
C1255  C518    1.401   1_556 S
C1256  C1258   1.418   .     A
C1259  C1307   1.491   .     S
C1259  C495    1.391   1_556 S
C1260  C1310   1.492   .     S
N1273  Zn1283  2.009   .     S
N1274  Zn1284  2.009   .     S
O1275  Zn1283  1.994   .     S
O1276  Zn1284  1.994   .     S
O1277  Zn1283  1.993   .     S
O1278  Zn1284  1.993   .     S
O1279  Zn1283  2.010   .     S
O1280  Zn1284  2.010   .     S
O1281  Zn1283  2.015   .     S
O1282  Zn1284  2.015   .     S
C1285  C1286   1.404   .     A
C1285  C1290   1.403   .     A
C1286  C1287   1.398   .     A
C1286  H1291   1.083   .     S
C1287  C1288   1.397   .     A
C1287  H1374   1.082   .     S
C1288  C1289   1.398   .     A
C1288  H1375   1.082   .     S
C1289  H1294   1.082   .     S
C1289  C1290   1.399   .     A
C1290  H1295   1.083   .     S
H1292  C1451   1.082   1_455 S
H1293  C1452   1.082   1_455 S
C1296  C1297   1.403   .     A
C1296  C1301   1.403   .     A
C1297  H1302   1.083   .     S
C1297  C1298   1.398   .     A
C1298  C1299   1.397   .     A
C1298  H1303   1.082   .     S
C1299  C1300   1.397   .     A
C1299  H1468   1.082   1_455 S
C1300  C1301   1.398   .     A
C1300  H1469   1.081   1_455 S
C1301  H1306   1.083   .     S
H1304  C1381   1.082   .     S
H1305  C1382   1.081   .     S
C1307  H1308   1.082   .     S
C1307  O1309   1.222   .     D
C1310  O1312   1.222   .     D
C1310  H1311   1.081   .     S
C1313  C1322   1.414   .     S
C1313  O1360   1.282   .     A
C1313  O1357   1.281   .     A
C1314  O1358   1.281   .     A
C1314  O1359   1.281   .     A
C1314  C1321   1.414   .     S
C1315  C1340   1.404   .     A
C1315  H1345   1.082   .     S
C1316  H1346   1.082   .     S
C1316  C1339   1.404   .     A
C1316  C604    1.391   1_556 S
C1317  C1322   1.396   .     A
C1317  H1347   1.084   .     S
C1318  C1321   1.396   .     A
C1318  H1348   1.084   .     S
C1318  C1402   1.369   .     S
C1319  H1349   1.084   .     S
C1319  C1321   1.396   .     A
C1319  C1399   1.369   .     S
C1320  H1350   1.084   .     S
C1320  C1322   1.396   .     A
C1323  N1356   1.366   .     A
C1323  H1351   1.082   .     S
C1324  N1355   1.366   .     A
C1324  H1352   1.082   .     S
C1324  C833    1.416   1_565 S
C1325  H1353   1.080   .     S
C1325  N1356   1.366   .     A
C1326  H1354   1.080   .     S
C1326  N1355   1.366   .     A
C1326  C831    1.416   1_565 S
C1327  C1332   1.426   .     S
C1327  O1364   1.282   .     A
C1327  O1361   1.284   .     A
C1328  O1363   1.282   .     A
C1328  O1362   1.283   .     A
C1328  C1331   1.425   .     S
C1329  C1367   1.486   .     S
C1329  C1339   1.403   .     A
C1329  C1331   1.399   .     A
C1330  C1340   1.403   .     A
C1330  C1378   1.485   .     S
C1330  C1332   1.399   .     A
C1331  C1333   1.385   .     A
C1332  C1334   1.385   .     A
C1333  H1343   1.081   .     S
C1333  C1335   1.390   .     A
C1334  H1344   1.081   .     S
C1334  C1336   1.390   .     A
C1335  C1341   1.415   .     A
C1335  C1337   1.422   .     A
C1336  C1338   1.422   .     A
C1336  C1342   1.415   .     A
C1337  C1339   1.418   .     A
C1337  C600    1.401   1_556 S
C1338  C1340   1.418   .     A
C1341  C1389   1.491   .     S
C1341  C577    1.391   1_556 S
C1342  C1392   1.492   .     S
N1355  Zn1365  2.009   .     S
N1356  Zn1366  2.009   .     S
O1357  Zn1365  1.994   .     S
O1358  Zn1366  1.994   .     S
O1359  Zn1365  1.993   .     S
O1360  Zn1366  1.993   .     S
O1361  Zn1365  2.010   .     S
O1362  Zn1366  2.010   .     S
O1363  Zn1365  2.015   .     S
O1364  Zn1366  2.015   .     S
C1367  C1368   1.404   .     A
C1367  C1372   1.403   .     A
C1368  C1369   1.398   .     A
C1368  H1373   1.083   .     S
C1369  C1370   1.397   .     A
C1369  H1456   1.082   .     S
C1370  C1371   1.398   .     A
C1370  H1457   1.082   .     S
C1371  H1376   1.082   .     S
C1371  C1372   1.399   .     A
C1372  H1377   1.083   .     S
C1378  C1379   1.403   .     A
C1378  C1383   1.403   .     A
C1379  H1384   1.083   .     S
C1379  C1380   1.398   .     A
C1380  C1381   1.397   .     A
C1380  H1385   1.082   .     S
C1381  C1382   1.397   .     A
C1382  C1383   1.398   .     A
C1383  H1388   1.083   .     S
H1386  C1463   1.082   .     S
H1387  C1464   1.081   .     S
C1389  H1390   1.082   .     S
C1389  O1391   1.222   .     D
C1392  O1394   1.222   .     D
C1392  H1393   1.081   .     S
C1395  C1404   1.414   .     S
C1395  O1442   1.282   .     A
C1395  O1439   1.281   .     A
C1396  O1440   1.281   .     A
C1396  O1441   1.281   .     A
C1396  C1403   1.414   .     S
C1397  C1422   1.404   .     A
C1397  H1427   1.082   .     S
C1398  H1428   1.082   .     S
C1398  C1421   1.404   .     A
C1398  C686    1.391   1_556 S
C1399  C1404   1.396   .     A
C1399  H1429   1.084   .     S
C1400  C1403   1.396   .     A
C1400  H1430   1.084   .     S
C1400  C1238   1.369   1_655 S
C1401  H1431   1.084   .     S
C1401  C1403   1.396   .     A
C1401  C1235   1.369   1_655 S
C1402  H1432   1.084   .     S
C1402  C1404   1.396   .     A
C1405  N1438   1.366   .     A
C1405  H1433   1.082   .     S
C1406  N1437   1.366   .     A
C1406  H1434   1.082   .     S
C1406  C915    1.416   1_565 S
C1407  H1435   1.080   .     S
C1407  N1438   1.366   .     A
C1408  H1436   1.080   .     S
C1408  N1437   1.366   .     A
C1408  C913    1.416   1_565 S
C1409  C1414   1.426   .     S
C1409  O1446   1.282   .     A
C1409  O1443   1.284   .     A
C1410  O1445   1.282   .     A
C1410  O1444   1.283   .     A
C1410  C1413   1.425   .     S
C1411  C1449   1.486   .     S
C1411  C1421   1.403   .     A
C1411  C1413   1.399   .     A
C1412  C1422   1.403   .     A
C1412  C1460   1.485   .     S
C1412  C1414   1.399   .     A
C1413  C1415   1.385   .     A
C1414  C1416   1.385   .     A
C1415  H1425   1.081   .     S
C1415  C1417   1.390   .     A
C1416  H1426   1.081   .     S
C1416  C1418   1.390   .     A
C1417  C1423   1.415   .     A
C1417  C1419   1.422   .     A
C1418  C1420   1.422   .     A
C1418  C1424   1.415   .     A
C1419  C1421   1.418   .     A
C1419  C682    1.401   1_556 S
C1420  C1422   1.418   .     A
C1423  C1471   1.491   .     S
C1423  C659    1.391   1_556 S
C1424  C1474   1.492   .     S
N1437  Zn1447  2.009   .     S
N1438  Zn1448  2.009   .     S
O1439  Zn1447  1.994   .     S
O1440  Zn1448  1.994   .     S
O1441  Zn1447  1.993   .     S
O1442  Zn1448  1.993   .     S
O1443  Zn1447  2.010   .     S
O1444  Zn1448  2.010   .     S
O1445  Zn1447  2.015   .     S
O1446  Zn1448  2.015   .     S
C1449  C1450   1.404   .     A
C1449  C1454   1.403   .     A
C1450  C1451   1.398   .     A
C1450  H1455   1.083   .     S
C1451  C1452   1.397   .     A
C1451  H1292   1.082   1_655 S
C1452  C1453   1.398   .     A
C1452  H1293   1.082   1_655 S
C1453  H1458   1.082   .     S
C1453  C1454   1.399   .     A
C1454  H1459   1.083   .     S
C1460  C1461   1.403   .     A
C1460  C1465   1.403   .     A
C1461  H1466   1.083   .     S
C1461  C1462   1.398   .     A
C1462  C1463   1.397   .     A
C1462  H1467   1.082   .     S
C1463  C1464   1.397   .     A
C1464  C1465   1.398   .     A
C1465  H1470   1.083   .     S
H1468  C1299   1.082   1_655 S
H1469  C1300   1.081   1_655 S
C1471  H1472   1.082   .     S
C1471  O1473   1.222   .     D
C1474  O1476   1.222   .     D
C1474  H1475   1.081   .     S
