data_str_m3_o1_o18_pcu_sym.173
_audit_creation_date              2020-01-03
_audit_creation_method            'Materials Studio'
_symmetry_space_group_name_H-M    'P1'
_symmetry_Int_Tables_number       1
_symmetry_cell_setting            triclinic
loop_
_symmetry_equiv_pos_as_xyz
  x,y,z
_cell_length_a                    29.5380
_cell_length_b                    32.1594
_cell_length_c                    30.7102
_cell_angle_alpha                 90.1127
_cell_angle_beta                  67.9021
_cell_angle_gamma                 89.9550
loop_
_atom_site_label
_atom_site_type_symbol
_atom_site_fract_x
_atom_site_fract_y
_atom_site_fract_z
_atom_site_U_iso_or_equiv
_atom_site_adp_type
_atom_site_occupancy
C1     C     0.16666   0.24671   0.25003   0.00000  Uiso   1.00
C2     C     0.16667   0.08663   0.24997   0.00000  Uiso   1.00
C3     C     0.12389   0.10980   0.04256   0.00000  Uiso   1.00
C4     C     0.23263   0.14794   0.44266   0.00000  Uiso   1.00
C5     C     0.08985   0.10573   0.02128   0.00000  Uiso   1.00
C6     C     0.26580   0.15449   0.46437   0.00000  Uiso   1.00
C7     C     0.21032   0.31200   0.24221   0.00000  Uiso   1.00
C8     C     0.12301   0.02135   0.25775   0.00000  Uiso   1.00
C9     C     0.21034   0.02126   0.24217   0.00000  Uiso   1.00
C10    C     0.12300   0.31209   0.25780   0.00000  Uiso   1.00
C11    C     0.16668   0.04248   0.24996   0.00000  Uiso   1.00
C12    C     0.16666   0.29087   0.25002   0.00000  Uiso   1.00
C13    C     0.32137   0.14248   0.21869   0.00000  Uiso   1.00
C14    C     0.01192   0.19072   0.28143   0.00000  Uiso   1.00
C15    C     0.03623   0.14261   0.21889   0.00000  Uiso   1.00
C16    C     0.29708   0.19064   0.28117   0.00000  Uiso   1.00
C17    C     0.13622   0.16601   0.33826   0.00000  Uiso   1.00
C18    C     0.19718   0.16608   0.16174   0.00000  Uiso   1.00
C19    C     0.11829   0.15717   0.38849   0.00000  Uiso   1.00
C20    C     0.21668   0.16148   0.11070   0.00000  Uiso   1.00
C21    C     0.06424   0.11970   0.45628   0.00000  Uiso   1.00
C22    C     0.28263   0.16543   0.03476   0.00000  Uiso   1.00
C23    C     0.07432   0.13603   0.41149   0.00000  Uiso   1.00
C24    C     0.26606   0.16849   0.08352   0.00000  Uiso   1.00
C25    C     0.15121   0.16232   0.41068   0.00000  Uiso   1.00
C26    C     0.18489   0.14906   0.08916   0.00000  Uiso   1.00
C27    C     0.14503   0.14126   0.45212   0.00000  Uiso   1.00
C28    C     0.20140   0.14305   0.04063   0.00000  Uiso   1.00
C29    C     0.09938   0.12228   0.47684   0.00000  Uiso   1.00
C30    C     0.25028   0.15397   0.01309   0.00000  Uiso   1.00
C31    C     0.18236   0.14037   0.47049   0.00000  Uiso   1.00
C32    C     0.16904   0.13085   0.01863   0.00000  Uiso   1.00
H33    H     0.05557   0.09000   0.04002   0.00000  Uiso   1.00
H34    H     0.30341   0.16168   0.44290   0.00000  Uiso   1.00
H35    H     0.14653   0.14645   0.11051   0.00000  Uiso   1.00
H36    H     0.18236   0.18230   0.39433   0.00000  Uiso   1.00
H37    H     0.29130   0.17779   0.09976   0.00000  Uiso   1.00
H38    H     0.04880   0.13094   0.39431   0.00000  Uiso   1.00
H39    H     0.02983   0.10390   0.47411   0.00000  Uiso   1.00
H40    H     0.32028   0.17320   0.01400   0.00000  Uiso   1.00
H41    H     0.24438   0.29577   0.23589   0.00000  Uiso   1.00
H42    H     0.08896   0.03759   0.26407   0.00000  Uiso   1.00
H43    H     0.24440   0.03743   0.23583   0.00000  Uiso   1.00
H44    H     0.08893   0.29592   0.26415   0.00000  Uiso   1.00
H45    H     0.06450   0.12348   0.19422   0.00000  Uiso   1.00
H46    H     0.26878   0.20968   0.30593   0.00000  Uiso   1.00
N47    N     0.04759   0.16668   0.25001   0.00000  Uiso   1.00
N48    N     0.28574   0.16666   0.24999   0.00000  Uiso   1.00
O49    O     0.12846   0.22775   0.25001   0.00000  Uiso   1.00
O50    O     0.20488   0.10558   0.25000   0.00000  Uiso   1.00
O51    O     0.20490   0.22774   0.25000   0.00000  Uiso   1.00
O52    O     0.12843   0.10559   0.25000   0.00000  Uiso   1.00
O53    O     0.10661   0.16667   0.31613   0.00000  Uiso   1.00
O54    O     0.22672   0.16666   0.18388   0.00000  Uiso   1.00
O55    O     0.18305   0.16666   0.31612   0.00000  Uiso   1.00
O56    O     0.15028   0.16667   0.18388   0.00000  Uiso   1.00
Zn57   Zn    0.11562   0.16667   0.25000   0.00000  Uiso   1.00
Zn58   Zn    0.21771   0.16666   0.25000   0.00000  Uiso   1.00
O59    O     0.11285   0.09132   0.08595   0.00000  Uiso   1.00
C60    C     0.13695   0.05260   0.07935   0.00000  Uiso   1.00
H61    H     0.17736   0.05638   0.06414   0.00000  Uiso   1.00
H62    H     0.12498   0.03159   0.05688   0.00000  Uiso   1.00
H63    H     0.12728   0.03748   0.11412   0.00000  Uiso   1.00
O64    O     0.25066   0.14808   0.39408   0.00000  Uiso   1.00
C65    C     0.25987   0.10669   0.37795   0.00000  Uiso   1.00
H66    H     0.22572   0.08795   0.38989   0.00000  Uiso   1.00
H67    H     0.28772   0.09186   0.38925   0.00000  Uiso   1.00
H68    H     0.27468   0.10688   0.33896   0.00000  Uiso   1.00
O69    O     0.30955   0.11835   0.18737   0.00000  Uiso   1.00
H70    H     0.00576   0.10296   0.16711   0.00000  Uiso   1.00
O71    O     0.02368   0.21467   0.31291   0.00000  Uiso   1.00
H72    H     0.32740   0.22989   0.33333   0.00000  Uiso   1.00
C73    C     0.49999   0.24671   0.25003   0.00000  Uiso   1.00
C74    C     0.50001   0.08663   0.24997   0.00000  Uiso   1.00
C75    C     0.45723   0.10980   0.04256   0.00000  Uiso   1.00
C76    C     0.56596   0.14794   0.44266   0.00000  Uiso   1.00
C77    C     0.42318   0.10573   0.02128   0.00000  Uiso   1.00
C78    C     0.59913   0.15449   0.46437   0.00000  Uiso   1.00
C79    C     0.54366   0.31200   0.24221   0.00000  Uiso   1.00
C80    C     0.45635   0.02135   0.25775   0.00000  Uiso   1.00
C81    C     0.54367   0.02126   0.24217   0.00000  Uiso   1.00
C82    C     0.45633   0.31209   0.25780   0.00000  Uiso   1.00
C83    C     0.50001   0.04248   0.24996   0.00000  Uiso   1.00
C84    C     0.49999   0.29087   0.25002   0.00000  Uiso   1.00
C85    C     0.65470   0.14248   0.21869   0.00000  Uiso   1.00
C86    C     0.34525   0.19072   0.28143   0.00000  Uiso   1.00
C87    C     0.36956   0.14261   0.21889   0.00000  Uiso   1.00
C88    C     0.63041   0.19064   0.28117   0.00000  Uiso   1.00
C89    C     0.46955   0.16601   0.33826   0.00000  Uiso   1.00
C90    C     0.53052   0.16608   0.16174   0.00000  Uiso   1.00
C91    C     0.45162   0.15717   0.38849   0.00000  Uiso   1.00
C92    C     0.55002   0.16148   0.11070   0.00000  Uiso   1.00
C93    C     0.39757   0.11970   0.45628   0.00000  Uiso   1.00
C94    C     0.61596   0.16543   0.03476   0.00000  Uiso   1.00
C95    C     0.40765   0.13603   0.41149   0.00000  Uiso   1.00
C96    C     0.59939   0.16849   0.08352   0.00000  Uiso   1.00
C97    C     0.48454   0.16232   0.41068   0.00000  Uiso   1.00
C98    C     0.51822   0.14906   0.08916   0.00000  Uiso   1.00
C99    C     0.47837   0.14126   0.45212   0.00000  Uiso   1.00
C100   C     0.53473   0.14305   0.04063   0.00000  Uiso   1.00
C101   C     0.43271   0.12228   0.47684   0.00000  Uiso   1.00
C102   C     0.58361   0.15397   0.01309   0.00000  Uiso   1.00
C103   C     0.51569   0.14037   0.47049   0.00000  Uiso   1.00
C104   C     0.50238   0.13085   0.01863   0.00000  Uiso   1.00
H105   H     0.38890   0.09000   0.04002   0.00000  Uiso   1.00
H106   H     0.63675   0.16168   0.44290   0.00000  Uiso   1.00
H107   H     0.47986   0.14645   0.11051   0.00000  Uiso   1.00
H108   H     0.51570   0.18230   0.39433   0.00000  Uiso   1.00
H109   H     0.62463   0.17779   0.09976   0.00000  Uiso   1.00
H110   H     0.38213   0.13094   0.39431   0.00000  Uiso   1.00
H111   H     0.36316   0.10390   0.47411   0.00000  Uiso   1.00
H112   H     0.65361   0.17320   0.01400   0.00000  Uiso   1.00
H113   H     0.57771   0.29577   0.23589   0.00000  Uiso   1.00
H114   H     0.42229   0.03759   0.26407   0.00000  Uiso   1.00
H115   H     0.57773   0.03743   0.23583   0.00000  Uiso   1.00
H116   H     0.42227   0.29592   0.26415   0.00000  Uiso   1.00
H117   H     0.39783   0.12348   0.19422   0.00000  Uiso   1.00
H118   H     0.60211   0.20968   0.30593   0.00000  Uiso   1.00
N119   N     0.38093   0.16668   0.25001   0.00000  Uiso   1.00
N120   N     0.61907   0.16666   0.24999   0.00000  Uiso   1.00
O121   O     0.46179   0.22775   0.25001   0.00000  Uiso   1.00
O122   O     0.53821   0.10558   0.25000   0.00000  Uiso   1.00
O123   O     0.53823   0.22774   0.25000   0.00000  Uiso   1.00
O124   O     0.46177   0.10559   0.25000   0.00000  Uiso   1.00
O125   O     0.43994   0.16667   0.31613   0.00000  Uiso   1.00
O126   O     0.56006   0.16666   0.18388   0.00000  Uiso   1.00
O127   O     0.51639   0.16666   0.31612   0.00000  Uiso   1.00
O128   O     0.48361   0.16667   0.18388   0.00000  Uiso   1.00
Zn129  Zn    0.44896   0.16667   0.25000   0.00000  Uiso   1.00
Zn130  Zn    0.55104   0.16666   0.25000   0.00000  Uiso   1.00
O131   O     0.44618   0.09132   0.08595   0.00000  Uiso   1.00
C132   C     0.47029   0.05260   0.07935   0.00000  Uiso   1.00
H133   H     0.51069   0.05638   0.06414   0.00000  Uiso   1.00
H134   H     0.45831   0.03159   0.05688   0.00000  Uiso   1.00
H135   H     0.46062   0.03748   0.11412   0.00000  Uiso   1.00
O136   O     0.58400   0.14808   0.39408   0.00000  Uiso   1.00
C137   C     0.59320   0.10669   0.37795   0.00000  Uiso   1.00
H138   H     0.55905   0.08795   0.38989   0.00000  Uiso   1.00
H139   H     0.62106   0.09186   0.38925   0.00000  Uiso   1.00
H140   H     0.60801   0.10688   0.33896   0.00000  Uiso   1.00
O141   O     0.64288   0.11835   0.18737   0.00000  Uiso   1.00
H142   H     0.33909   0.10296   0.16711   0.00000  Uiso   1.00
O143   O     0.35701   0.21467   0.31291   0.00000  Uiso   1.00
H144   H     0.66073   0.22989   0.33333   0.00000  Uiso   1.00
C145   C     0.83333   0.24671   0.25003   0.00000  Uiso   1.00
C146   C     0.83334   0.08663   0.24997   0.00000  Uiso   1.00
C147   C     0.79056   0.10980   0.04256   0.00000  Uiso   1.00
C148   C     0.89929   0.14794   0.44266   0.00000  Uiso   1.00
C149   C     0.75651   0.10573   0.02128   0.00000  Uiso   1.00
C150   C     0.93247   0.15449   0.46437   0.00000  Uiso   1.00
C151   C     0.87699   0.31200   0.24221   0.00000  Uiso   1.00
C152   C     0.78968   0.02135   0.25775   0.00000  Uiso   1.00
C153   C     0.87700   0.02126   0.24217   0.00000  Uiso   1.00
C154   C     0.78967   0.31209   0.25780   0.00000  Uiso   1.00
C155   C     0.83335   0.04248   0.24996   0.00000  Uiso   1.00
C156   C     0.83332   0.29087   0.25002   0.00000  Uiso   1.00
C157   C     0.98804   0.14248   0.21869   0.00000  Uiso   1.00
C158   C     0.67858   0.19072   0.28143   0.00000  Uiso   1.00
C159   C     0.70290   0.14261   0.21889   0.00000  Uiso   1.00
C160   C     0.96375   0.19064   0.28117   0.00000  Uiso   1.00
C161   C     0.80288   0.16601   0.33826   0.00000  Uiso   1.00
C162   C     0.86385   0.16608   0.16174   0.00000  Uiso   1.00
C163   C     0.78496   0.15717   0.38849   0.00000  Uiso   1.00
C164   C     0.88335   0.16148   0.11070   0.00000  Uiso   1.00
C165   C     0.73090   0.11970   0.45628   0.00000  Uiso   1.00
C166   C     0.94930   0.16543   0.03476   0.00000  Uiso   1.00
C167   C     0.74098   0.13603   0.41149   0.00000  Uiso   1.00
C168   C     0.93273   0.16849   0.08352   0.00000  Uiso   1.00
C169   C     0.81788   0.16232   0.41068   0.00000  Uiso   1.00
C170   C     0.85156   0.14906   0.08916   0.00000  Uiso   1.00
C171   C     0.81170   0.14126   0.45212   0.00000  Uiso   1.00
C172   C     0.86806   0.14305   0.04063   0.00000  Uiso   1.00
C173   C     0.76604   0.12228   0.47684   0.00000  Uiso   1.00
C174   C     0.91695   0.15397   0.01309   0.00000  Uiso   1.00
C175   C     0.84903   0.14037   0.47049   0.00000  Uiso   1.00
C176   C     0.83571   0.13085   0.01863   0.00000  Uiso   1.00
H177   H     0.72224   0.09000   0.04002   0.00000  Uiso   1.00
H178   H     0.97008   0.16168   0.44290   0.00000  Uiso   1.00
H179   H     0.81320   0.14645   0.11051   0.00000  Uiso   1.00
H180   H     0.84903   0.18230   0.39433   0.00000  Uiso   1.00
H181   H     0.95796   0.17779   0.09976   0.00000  Uiso   1.00
H182   H     0.71547   0.13094   0.39431   0.00000  Uiso   1.00
H183   H     0.69649   0.10390   0.47411   0.00000  Uiso   1.00
H184   H     0.98694   0.17320   0.01400   0.00000  Uiso   1.00
H185   H     0.91105   0.29577   0.23589   0.00000  Uiso   1.00
H186   H     0.75562   0.03759   0.26407   0.00000  Uiso   1.00
H187   H     0.91107   0.03743   0.23583   0.00000  Uiso   1.00
H188   H     0.75560   0.29592   0.26415   0.00000  Uiso   1.00
H189   H     0.73117   0.12348   0.19422   0.00000  Uiso   1.00
H190   H     0.93544   0.20968   0.30593   0.00000  Uiso   1.00
N191   N     0.71426   0.16668   0.25001   0.00000  Uiso   1.00
N192   N     0.95241   0.16666   0.24999   0.00000  Uiso   1.00
O193   O     0.79512   0.22775   0.25001   0.00000  Uiso   1.00
O194   O     0.87154   0.10558   0.25000   0.00000  Uiso   1.00
O195   O     0.87157   0.22774   0.25000   0.00000  Uiso   1.00
O196   O     0.79510   0.10559   0.25000   0.00000  Uiso   1.00
O197   O     0.77328   0.16667   0.31613   0.00000  Uiso   1.00
O198   O     0.89339   0.16666   0.18388   0.00000  Uiso   1.00
O199   O     0.84972   0.16666   0.31612   0.00000  Uiso   1.00
O200   O     0.81695   0.16667   0.18388   0.00000  Uiso   1.00
Zn201  Zn    0.78229   0.16667   0.25000   0.00000  Uiso   1.00
Zn202  Zn    0.88438   0.16666   0.25000   0.00000  Uiso   1.00
O203   O     0.77951   0.09132   0.08595   0.00000  Uiso   1.00
C204   C     0.80362   0.05260   0.07935   0.00000  Uiso   1.00
H205   H     0.84402   0.05638   0.06414   0.00000  Uiso   1.00
H206   H     0.79164   0.03159   0.05688   0.00000  Uiso   1.00
H207   H     0.79395   0.03748   0.11412   0.00000  Uiso   1.00
O208   O     0.91733   0.14808   0.39408   0.00000  Uiso   1.00
C209   C     0.92654   0.10669   0.37795   0.00000  Uiso   1.00
H210   H     0.89238   0.08795   0.38989   0.00000  Uiso   1.00
H211   H     0.95439   0.09186   0.38925   0.00000  Uiso   1.00
H212   H     0.94135   0.10688   0.33896   0.00000  Uiso   1.00
O213   O     0.97621   0.11835   0.18737   0.00000  Uiso   1.00
H214   H     0.67242   0.10296   0.16711   0.00000  Uiso   1.00
O215   O     0.69034   0.21467   0.31291   0.00000  Uiso   1.00
H216   H     0.99407   0.22989   0.33333   0.00000  Uiso   1.00
C217   C     0.16666   0.58004   0.25003   0.00000  Uiso   1.00
C218   C     0.16667   0.41996   0.24997   0.00000  Uiso   1.00
C219   C     0.12389   0.44313   0.04256   0.00000  Uiso   1.00
C220   C     0.23263   0.48127   0.44266   0.00000  Uiso   1.00
C221   C     0.08985   0.43906   0.02128   0.00000  Uiso   1.00
C222   C     0.26580   0.48782   0.46437   0.00000  Uiso   1.00
C223   C     0.21032   0.64534   0.24221   0.00000  Uiso   1.00
C224   C     0.12301   0.35468   0.25775   0.00000  Uiso   1.00
C225   C     0.21034   0.35460   0.24217   0.00000  Uiso   1.00
C226   C     0.12300   0.64542   0.25780   0.00000  Uiso   1.00
C227   C     0.16668   0.37581   0.24996   0.00000  Uiso   1.00
C228   C     0.16666   0.62420   0.25002   0.00000  Uiso   1.00
C229   C     0.32137   0.47582   0.21869   0.00000  Uiso   1.00
C230   C     0.01192   0.52406   0.28143   0.00000  Uiso   1.00
C231   C     0.03623   0.47594   0.21889   0.00000  Uiso   1.00
C232   C     0.29708   0.52398   0.28117   0.00000  Uiso   1.00
C233   C     0.13622   0.49934   0.33826   0.00000  Uiso   1.00
C234   C     0.19718   0.49942   0.16174   0.00000  Uiso   1.00
C235   C     0.11829   0.49050   0.38849   0.00000  Uiso   1.00
C236   C     0.21668   0.49481   0.11070   0.00000  Uiso   1.00
C237   C     0.06424   0.45303   0.45628   0.00000  Uiso   1.00
C238   C     0.28263   0.49876   0.03476   0.00000  Uiso   1.00
C239   C     0.07432   0.46937   0.41149   0.00000  Uiso   1.00
C240   C     0.26606   0.50183   0.08352   0.00000  Uiso   1.00
C241   C     0.15121   0.49565   0.41068   0.00000  Uiso   1.00
C242   C     0.18489   0.48239   0.08916   0.00000  Uiso   1.00
C243   C     0.14503   0.47459   0.45212   0.00000  Uiso   1.00
C244   C     0.20140   0.47639   0.04063   0.00000  Uiso   1.00
C245   C     0.09938   0.45561   0.47684   0.00000  Uiso   1.00
C246   C     0.25028   0.48730   0.01309   0.00000  Uiso   1.00
C247   C     0.18236   0.47371   0.47049   0.00000  Uiso   1.00
C248   C     0.16904   0.46419   0.01863   0.00000  Uiso   1.00
H249   H     0.05557   0.42333   0.04002   0.00000  Uiso   1.00
H250   H     0.30341   0.49501   0.44290   0.00000  Uiso   1.00
H251   H     0.14653   0.47979   0.11051   0.00000  Uiso   1.00
H252   H     0.18236   0.51563   0.39433   0.00000  Uiso   1.00
H253   H     0.29130   0.51112   0.09976   0.00000  Uiso   1.00
H254   H     0.04880   0.46428   0.39431   0.00000  Uiso   1.00
H255   H     0.02983   0.43723   0.47411   0.00000  Uiso   1.00
H256   H     0.32028   0.50653   0.01400   0.00000  Uiso   1.00
H257   H     0.24438   0.62910   0.23589   0.00000  Uiso   1.00
H258   H     0.08896   0.37092   0.26407   0.00000  Uiso   1.00
H259   H     0.24440   0.37077   0.23583   0.00000  Uiso   1.00
H260   H     0.08893   0.62925   0.26415   0.00000  Uiso   1.00
H261   H     0.06450   0.45682   0.19422   0.00000  Uiso   1.00
H262   H     0.26878   0.54302   0.30593   0.00000  Uiso   1.00
N263   N     0.04759   0.50001   0.25001   0.00000  Uiso   1.00
N264   N     0.28574   0.49999   0.24999   0.00000  Uiso   1.00
O265   O     0.12846   0.56108   0.25001   0.00000  Uiso   1.00
O266   O     0.20488   0.43892   0.25000   0.00000  Uiso   1.00
O267   O     0.20490   0.56107   0.25000   0.00000  Uiso   1.00
O268   O     0.12843   0.43893   0.25000   0.00000  Uiso   1.00
O269   O     0.10661   0.50001   0.31613   0.00000  Uiso   1.00
O270   O     0.22672   0.49999   0.18388   0.00000  Uiso   1.00
O271   O     0.18305   0.50000   0.31612   0.00000  Uiso   1.00
O272   O     0.15028   0.50000   0.18388   0.00000  Uiso   1.00
Zn273  Zn    0.11562   0.50001   0.25000   0.00000  Uiso   1.00
Zn274  Zn    0.21771   0.49999   0.25000   0.00000  Uiso   1.00
O275   O     0.11285   0.42465   0.08595   0.00000  Uiso   1.00
C276   C     0.13695   0.38593   0.07935   0.00000  Uiso   1.00
H277   H     0.17736   0.38971   0.06414   0.00000  Uiso   1.00
H278   H     0.12498   0.36493   0.05688   0.00000  Uiso   1.00
H279   H     0.12728   0.37081   0.11412   0.00000  Uiso   1.00
O280   O     0.25066   0.48141   0.39408   0.00000  Uiso   1.00
C281   C     0.25987   0.44002   0.37795   0.00000  Uiso   1.00
H282   H     0.22572   0.42128   0.38989   0.00000  Uiso   1.00
H283   H     0.28772   0.42520   0.38925   0.00000  Uiso   1.00
H284   H     0.27468   0.44021   0.33896   0.00000  Uiso   1.00
O285   O     0.30955   0.45169   0.18737   0.00000  Uiso   1.00
H286   H     0.00576   0.43629   0.16711   0.00000  Uiso   1.00
O287   O     0.02368   0.54801   0.31291   0.00000  Uiso   1.00
H288   H     0.32740   0.56323   0.33333   0.00000  Uiso   1.00
C289   C     0.49999   0.58004   0.25003   0.00000  Uiso   1.00
C290   C     0.50001   0.41996   0.24997   0.00000  Uiso   1.00
C291   C     0.45723   0.44313   0.04256   0.00000  Uiso   1.00
C292   C     0.56596   0.48127   0.44266   0.00000  Uiso   1.00
C293   C     0.42318   0.43906   0.02128   0.00000  Uiso   1.00
C294   C     0.59913   0.48782   0.46437   0.00000  Uiso   1.00
C295   C     0.54366   0.64534   0.24221   0.00000  Uiso   1.00
C296   C     0.45635   0.35468   0.25775   0.00000  Uiso   1.00
C297   C     0.54367   0.35460   0.24217   0.00000  Uiso   1.00
C298   C     0.45633   0.64542   0.25780   0.00000  Uiso   1.00
C299   C     0.50001   0.37581   0.24996   0.00000  Uiso   1.00
C300   C     0.49999   0.62420   0.25002   0.00000  Uiso   1.00
C301   C     0.65470   0.47582   0.21869   0.00000  Uiso   1.00
C302   C     0.34525   0.52406   0.28143   0.00000  Uiso   1.00
C303   C     0.36956   0.47594   0.21889   0.00000  Uiso   1.00
C304   C     0.63041   0.52398   0.28117   0.00000  Uiso   1.00
C305   C     0.46955   0.49934   0.33826   0.00000  Uiso   1.00
C306   C     0.53052   0.49942   0.16174   0.00000  Uiso   1.00
C307   C     0.45162   0.49050   0.38849   0.00000  Uiso   1.00
C308   C     0.55002   0.49481   0.11070   0.00000  Uiso   1.00
C309   C     0.39757   0.45303   0.45628   0.00000  Uiso   1.00
C310   C     0.61596   0.49876   0.03476   0.00000  Uiso   1.00
C311   C     0.40765   0.46937   0.41149   0.00000  Uiso   1.00
C312   C     0.59939   0.50183   0.08352   0.00000  Uiso   1.00
C313   C     0.48454   0.49565   0.41068   0.00000  Uiso   1.00
C314   C     0.51822   0.48239   0.08916   0.00000  Uiso   1.00
C315   C     0.47837   0.47459   0.45212   0.00000  Uiso   1.00
C316   C     0.53473   0.47639   0.04063   0.00000  Uiso   1.00
C317   C     0.43271   0.45561   0.47684   0.00000  Uiso   1.00
C318   C     0.58361   0.48730   0.01309   0.00000  Uiso   1.00
C319   C     0.51569   0.47371   0.47049   0.00000  Uiso   1.00
C320   C     0.50238   0.46419   0.01863   0.00000  Uiso   1.00
H321   H     0.38890   0.42333   0.04002   0.00000  Uiso   1.00
H322   H     0.63675   0.49501   0.44290   0.00000  Uiso   1.00
H323   H     0.47986   0.47979   0.11051   0.00000  Uiso   1.00
H324   H     0.51570   0.51563   0.39433   0.00000  Uiso   1.00
H325   H     0.62463   0.51112   0.09976   0.00000  Uiso   1.00
H326   H     0.38213   0.46428   0.39431   0.00000  Uiso   1.00
H327   H     0.36316   0.43723   0.47411   0.00000  Uiso   1.00
H328   H     0.65361   0.50653   0.01400   0.00000  Uiso   1.00
H329   H     0.57771   0.62910   0.23589   0.00000  Uiso   1.00
H330   H     0.42229   0.37092   0.26407   0.00000  Uiso   1.00
H331   H     0.57773   0.37077   0.23583   0.00000  Uiso   1.00
H332   H     0.42227   0.62925   0.26415   0.00000  Uiso   1.00
H333   H     0.39783   0.45682   0.19422   0.00000  Uiso   1.00
H334   H     0.60211   0.54302   0.30593   0.00000  Uiso   1.00
N335   N     0.38093   0.50001   0.25001   0.00000  Uiso   1.00
N336   N     0.61907   0.49999   0.24999   0.00000  Uiso   1.00
O337   O     0.46179   0.56108   0.25001   0.00000  Uiso   1.00
O338   O     0.53821   0.43892   0.25000   0.00000  Uiso   1.00
O339   O     0.53823   0.56107   0.25000   0.00000  Uiso   1.00
O340   O     0.46177   0.43893   0.25000   0.00000  Uiso   1.00
O341   O     0.43994   0.50001   0.31613   0.00000  Uiso   1.00
O342   O     0.56006   0.49999   0.18388   0.00000  Uiso   1.00
O343   O     0.51639   0.50000   0.31612   0.00000  Uiso   1.00
O344   O     0.48361   0.50000   0.18388   0.00000  Uiso   1.00
Zn345  Zn    0.44896   0.50001   0.25000   0.00000  Uiso   1.00
Zn346  Zn    0.55104   0.49999   0.25000   0.00000  Uiso   1.00
O347   O     0.44618   0.42465   0.08595   0.00000  Uiso   1.00
C348   C     0.47029   0.38593   0.07935   0.00000  Uiso   1.00
H349   H     0.51069   0.38971   0.06414   0.00000  Uiso   1.00
H350   H     0.45831   0.36493   0.05688   0.00000  Uiso   1.00
H351   H     0.46062   0.37081   0.11412   0.00000  Uiso   1.00
O352   O     0.58400   0.48141   0.39408   0.00000  Uiso   1.00
C353   C     0.59320   0.44002   0.37795   0.00000  Uiso   1.00
H354   H     0.55905   0.42128   0.38989   0.00000  Uiso   1.00
H355   H     0.62106   0.42520   0.38925   0.00000  Uiso   1.00
H356   H     0.60801   0.44021   0.33896   0.00000  Uiso   1.00
O357   O     0.64288   0.45169   0.18737   0.00000  Uiso   1.00
H358   H     0.33909   0.43629   0.16711   0.00000  Uiso   1.00
O359   O     0.35701   0.54801   0.31291   0.00000  Uiso   1.00
H360   H     0.66073   0.56323   0.33333   0.00000  Uiso   1.00
C361   C     0.83333   0.58004   0.25003   0.00000  Uiso   1.00
C362   C     0.83334   0.41996   0.24997   0.00000  Uiso   1.00
C363   C     0.79056   0.44313   0.04256   0.00000  Uiso   1.00
C364   C     0.89929   0.48127   0.44266   0.00000  Uiso   1.00
C365   C     0.75651   0.43906   0.02128   0.00000  Uiso   1.00
C366   C     0.93247   0.48782   0.46437   0.00000  Uiso   1.00
C367   C     0.87699   0.64534   0.24221   0.00000  Uiso   1.00
C368   C     0.78968   0.35468   0.25775   0.00000  Uiso   1.00
C369   C     0.87700   0.35460   0.24217   0.00000  Uiso   1.00
C370   C     0.78967   0.64542   0.25780   0.00000  Uiso   1.00
C371   C     0.83335   0.37581   0.24996   0.00000  Uiso   1.00
C372   C     0.83332   0.62420   0.25002   0.00000  Uiso   1.00
C373   C     0.98804   0.47582   0.21869   0.00000  Uiso   1.00
C374   C     0.67858   0.52406   0.28143   0.00000  Uiso   1.00
C375   C     0.70290   0.47594   0.21889   0.00000  Uiso   1.00
C376   C     0.96375   0.52398   0.28117   0.00000  Uiso   1.00
C377   C     0.80288   0.49934   0.33826   0.00000  Uiso   1.00
C378   C     0.86385   0.49942   0.16174   0.00000  Uiso   1.00
C379   C     0.78496   0.49050   0.38849   0.00000  Uiso   1.00
C380   C     0.88335   0.49481   0.11070   0.00000  Uiso   1.00
C381   C     0.73090   0.45303   0.45628   0.00000  Uiso   1.00
C382   C     0.94930   0.49876   0.03476   0.00000  Uiso   1.00
C383   C     0.74098   0.46937   0.41149   0.00000  Uiso   1.00
C384   C     0.93273   0.50183   0.08352   0.00000  Uiso   1.00
C385   C     0.81788   0.49565   0.41068   0.00000  Uiso   1.00
C386   C     0.85156   0.48239   0.08916   0.00000  Uiso   1.00
C387   C     0.81170   0.47459   0.45212   0.00000  Uiso   1.00
C388   C     0.86806   0.47639   0.04063   0.00000  Uiso   1.00
C389   C     0.76604   0.45561   0.47684   0.00000  Uiso   1.00
C390   C     0.91695   0.48730   0.01309   0.00000  Uiso   1.00
C391   C     0.84903   0.47371   0.47049   0.00000  Uiso   1.00
C392   C     0.83571   0.46419   0.01863   0.00000  Uiso   1.00
H393   H     0.72224   0.42333   0.04002   0.00000  Uiso   1.00
H394   H     0.97008   0.49501   0.44290   0.00000  Uiso   1.00
H395   H     0.81320   0.47979   0.11051   0.00000  Uiso   1.00
H396   H     0.84903   0.51563   0.39433   0.00000  Uiso   1.00
H397   H     0.95796   0.51112   0.09976   0.00000  Uiso   1.00
H398   H     0.71547   0.46428   0.39431   0.00000  Uiso   1.00
H399   H     0.69649   0.43723   0.47411   0.00000  Uiso   1.00
H400   H     0.98694   0.50653   0.01400   0.00000  Uiso   1.00
H401   H     0.91105   0.62910   0.23589   0.00000  Uiso   1.00
H402   H     0.75562   0.37092   0.26407   0.00000  Uiso   1.00
H403   H     0.91107   0.37077   0.23583   0.00000  Uiso   1.00
H404   H     0.75560   0.62925   0.26415   0.00000  Uiso   1.00
H405   H     0.73117   0.45682   0.19422   0.00000  Uiso   1.00
H406   H     0.93544   0.54302   0.30593   0.00000  Uiso   1.00
N407   N     0.71426   0.50001   0.25001   0.00000  Uiso   1.00
N408   N     0.95241   0.49999   0.24999   0.00000  Uiso   1.00
O409   O     0.79512   0.56108   0.25001   0.00000  Uiso   1.00
O410   O     0.87154   0.43892   0.25000   0.00000  Uiso   1.00
O411   O     0.87157   0.56107   0.25000   0.00000  Uiso   1.00
O412   O     0.79510   0.43893   0.25000   0.00000  Uiso   1.00
O413   O     0.77328   0.50001   0.31613   0.00000  Uiso   1.00
O414   O     0.89339   0.49999   0.18388   0.00000  Uiso   1.00
O415   O     0.84972   0.50000   0.31612   0.00000  Uiso   1.00
O416   O     0.81695   0.50000   0.18388   0.00000  Uiso   1.00
Zn417  Zn    0.78229   0.50001   0.25000   0.00000  Uiso   1.00
Zn418  Zn    0.88438   0.49999   0.25000   0.00000  Uiso   1.00
O419   O     0.77951   0.42465   0.08595   0.00000  Uiso   1.00
C420   C     0.80362   0.38593   0.07935   0.00000  Uiso   1.00
H421   H     0.84402   0.38971   0.06414   0.00000  Uiso   1.00
H422   H     0.79164   0.36493   0.05688   0.00000  Uiso   1.00
H423   H     0.79395   0.37081   0.11412   0.00000  Uiso   1.00
O424   O     0.91733   0.48141   0.39408   0.00000  Uiso   1.00
C425   C     0.92654   0.44002   0.37795   0.00000  Uiso   1.00
H426   H     0.89238   0.42128   0.38989   0.00000  Uiso   1.00
H427   H     0.95439   0.42520   0.38925   0.00000  Uiso   1.00
H428   H     0.94135   0.44021   0.33896   0.00000  Uiso   1.00
O429   O     0.97621   0.45169   0.18737   0.00000  Uiso   1.00
H430   H     0.67242   0.43629   0.16711   0.00000  Uiso   1.00
O431   O     0.69034   0.54801   0.31291   0.00000  Uiso   1.00
H432   H     0.99407   0.56323   0.33333   0.00000  Uiso   1.00
C433   C     0.16666   0.91338   0.25003   0.00000  Uiso   1.00
C434   C     0.16667   0.75329   0.24997   0.00000  Uiso   1.00
C435   C     0.12389   0.77647   0.04256   0.00000  Uiso   1.00
C436   C     0.23263   0.81460   0.44266   0.00000  Uiso   1.00
C437   C     0.08985   0.77239   0.02128   0.00000  Uiso   1.00
C438   C     0.26580   0.82116   0.46437   0.00000  Uiso   1.00
C439   C     0.21032   0.97867   0.24221   0.00000  Uiso   1.00
C440   C     0.12301   0.68802   0.25775   0.00000  Uiso   1.00
C441   C     0.21034   0.68793   0.24217   0.00000  Uiso   1.00
C442   C     0.12300   0.97875   0.25780   0.00000  Uiso   1.00
C443   C     0.16668   0.70915   0.24996   0.00000  Uiso   1.00
C444   C     0.16666   0.95753   0.25002   0.00000  Uiso   1.00
C445   C     0.32137   0.80915   0.21869   0.00000  Uiso   1.00
C446   C     0.01192   0.85739   0.28143   0.00000  Uiso   1.00
C447   C     0.03623   0.80928   0.21889   0.00000  Uiso   1.00
C448   C     0.29708   0.85731   0.28117   0.00000  Uiso   1.00
C449   C     0.13622   0.83267   0.33826   0.00000  Uiso   1.00
C450   C     0.19718   0.83275   0.16174   0.00000  Uiso   1.00
C451   C     0.11829   0.82383   0.38849   0.00000  Uiso   1.00
C452   C     0.21668   0.82814   0.11070   0.00000  Uiso   1.00
C453   C     0.06424   0.78636   0.45628   0.00000  Uiso   1.00
C454   C     0.28263   0.83210   0.03476   0.00000  Uiso   1.00
C455   C     0.07432   0.80270   0.41149   0.00000  Uiso   1.00
C456   C     0.26606   0.83516   0.08352   0.00000  Uiso   1.00
C457   C     0.15121   0.82898   0.41068   0.00000  Uiso   1.00
C458   C     0.18489   0.81572   0.08916   0.00000  Uiso   1.00
C459   C     0.14503   0.80792   0.45212   0.00000  Uiso   1.00
C460   C     0.20140   0.80972   0.04063   0.00000  Uiso   1.00
C461   C     0.09938   0.78894   0.47684   0.00000  Uiso   1.00
C462   C     0.25028   0.82063   0.01309   0.00000  Uiso   1.00
C463   C     0.18236   0.80704   0.47049   0.00000  Uiso   1.00
C464   C     0.16904   0.79752   0.01863   0.00000  Uiso   1.00
H465   H     0.05557   0.75666   0.04002   0.00000  Uiso   1.00
H466   H     0.30341   0.82835   0.44290   0.00000  Uiso   1.00
H467   H     0.14653   0.81312   0.11051   0.00000  Uiso   1.00
H468   H     0.18236   0.84896   0.39433   0.00000  Uiso   1.00
H469   H     0.29130   0.84446   0.09976   0.00000  Uiso   1.00
H470   H     0.04880   0.79761   0.39431   0.00000  Uiso   1.00
H471   H     0.02983   0.77056   0.47411   0.00000  Uiso   1.00
H472   H     0.32028   0.83987   0.01400   0.00000  Uiso   1.00
H473   H     0.24438   0.96243   0.23589   0.00000  Uiso   1.00
H474   H     0.08896   0.70425   0.26407   0.00000  Uiso   1.00
H475   H     0.24440   0.70410   0.23583   0.00000  Uiso   1.00
H476   H     0.08893   0.96259   0.26415   0.00000  Uiso   1.00
H477   H     0.06450   0.79015   0.19422   0.00000  Uiso   1.00
H478   H     0.26878   0.87635   0.30593   0.00000  Uiso   1.00
N479   N     0.04759   0.83334   0.25001   0.00000  Uiso   1.00
N480   N     0.28574   0.83332   0.24999   0.00000  Uiso   1.00
O481   O     0.12846   0.89442   0.25001   0.00000  Uiso   1.00
O482   O     0.20488   0.77225   0.25000   0.00000  Uiso   1.00
O483   O     0.20490   0.89441   0.25000   0.00000  Uiso   1.00
O484   O     0.12843   0.77226   0.25000   0.00000  Uiso   1.00
O485   O     0.10661   0.83334   0.31613   0.00000  Uiso   1.00
O486   O     0.22672   0.83333   0.18388   0.00000  Uiso   1.00
O487   O     0.18305   0.83333   0.31612   0.00000  Uiso   1.00
O488   O     0.15028   0.83334   0.18388   0.00000  Uiso   1.00
Zn489  Zn    0.11562   0.83334   0.25000   0.00000  Uiso   1.00
Zn490  Zn    0.21771   0.83333   0.25000   0.00000  Uiso   1.00
O491   O     0.11285   0.75799   0.08595   0.00000  Uiso   1.00
C492   C     0.13695   0.71927   0.07935   0.00000  Uiso   1.00
H493   H     0.17736   0.72304   0.06414   0.00000  Uiso   1.00
H494   H     0.12498   0.69826   0.05688   0.00000  Uiso   1.00
H495   H     0.12728   0.70414   0.11412   0.00000  Uiso   1.00
O496   O     0.25066   0.81475   0.39408   0.00000  Uiso   1.00
C497   C     0.25987   0.77336   0.37795   0.00000  Uiso   1.00
H498   H     0.22572   0.75462   0.38989   0.00000  Uiso   1.00
H499   H     0.28772   0.75853   0.38925   0.00000  Uiso   1.00
H500   H     0.27468   0.77354   0.33896   0.00000  Uiso   1.00
O501   O     0.30955   0.78502   0.18737   0.00000  Uiso   1.00
H502   H     0.00576   0.76962   0.16711   0.00000  Uiso   1.00
O503   O     0.02368   0.88134   0.31291   0.00000  Uiso   1.00
H504   H     0.32740   0.89656   0.33333   0.00000  Uiso   1.00
C505   C     0.49999   0.91338   0.25003   0.00000  Uiso   1.00
C506   C     0.50001   0.75329   0.24997   0.00000  Uiso   1.00
C507   C     0.45723   0.77647   0.04256   0.00000  Uiso   1.00
C508   C     0.56596   0.81460   0.44266   0.00000  Uiso   1.00
C509   C     0.42318   0.77239   0.02128   0.00000  Uiso   1.00
C510   C     0.59913   0.82116   0.46437   0.00000  Uiso   1.00
C511   C     0.54366   0.97867   0.24221   0.00000  Uiso   1.00
C512   C     0.45635   0.68802   0.25775   0.00000  Uiso   1.00
C513   C     0.54367   0.68793   0.24217   0.00000  Uiso   1.00
C514   C     0.45633   0.97875   0.25780   0.00000  Uiso   1.00
C515   C     0.50001   0.70915   0.24996   0.00000  Uiso   1.00
C516   C     0.49999   0.95753   0.25002   0.00000  Uiso   1.00
C517   C     0.65470   0.80915   0.21869   0.00000  Uiso   1.00
C518   C     0.34525   0.85739   0.28143   0.00000  Uiso   1.00
C519   C     0.36956   0.80928   0.21889   0.00000  Uiso   1.00
C520   C     0.63041   0.85731   0.28117   0.00000  Uiso   1.00
C521   C     0.46955   0.83267   0.33826   0.00000  Uiso   1.00
C522   C     0.53052   0.83275   0.16174   0.00000  Uiso   1.00
C523   C     0.45162   0.82383   0.38849   0.00000  Uiso   1.00
C524   C     0.55002   0.82814   0.11070   0.00000  Uiso   1.00
C525   C     0.39757   0.78636   0.45628   0.00000  Uiso   1.00
C526   C     0.61596   0.83210   0.03476   0.00000  Uiso   1.00
C527   C     0.40765   0.80270   0.41149   0.00000  Uiso   1.00
C528   C     0.59939   0.83516   0.08352   0.00000  Uiso   1.00
C529   C     0.48454   0.82898   0.41068   0.00000  Uiso   1.00
C530   C     0.51822   0.81572   0.08916   0.00000  Uiso   1.00
C531   C     0.47837   0.80792   0.45212   0.00000  Uiso   1.00
C532   C     0.53473   0.80972   0.04063   0.00000  Uiso   1.00
C533   C     0.43271   0.78894   0.47684   0.00000  Uiso   1.00
C534   C     0.58361   0.82063   0.01309   0.00000  Uiso   1.00
C535   C     0.51569   0.80704   0.47049   0.00000  Uiso   1.00
C536   C     0.50238   0.79752   0.01863   0.00000  Uiso   1.00
H537   H     0.38890   0.75666   0.04002   0.00000  Uiso   1.00
H538   H     0.63675   0.82835   0.44290   0.00000  Uiso   1.00
H539   H     0.47986   0.81312   0.11051   0.00000  Uiso   1.00
H540   H     0.51570   0.84896   0.39433   0.00000  Uiso   1.00
H541   H     0.62463   0.84446   0.09976   0.00000  Uiso   1.00
H542   H     0.38213   0.79761   0.39431   0.00000  Uiso   1.00
H543   H     0.36316   0.77056   0.47411   0.00000  Uiso   1.00
H544   H     0.65361   0.83987   0.01400   0.00000  Uiso   1.00
H545   H     0.57771   0.96243   0.23589   0.00000  Uiso   1.00
H546   H     0.42229   0.70425   0.26407   0.00000  Uiso   1.00
H547   H     0.57773   0.70410   0.23583   0.00000  Uiso   1.00
H548   H     0.42227   0.96259   0.26415   0.00000  Uiso   1.00
H549   H     0.39783   0.79015   0.19422   0.00000  Uiso   1.00
H550   H     0.60211   0.87635   0.30593   0.00000  Uiso   1.00
N551   N     0.38093   0.83334   0.25001   0.00000  Uiso   1.00
N552   N     0.61907   0.83332   0.24999   0.00000  Uiso   1.00
O553   O     0.46179   0.89442   0.25001   0.00000  Uiso   1.00
O554   O     0.53821   0.77225   0.25000   0.00000  Uiso   1.00
O555   O     0.53823   0.89441   0.25000   0.00000  Uiso   1.00
O556   O     0.46177   0.77226   0.25000   0.00000  Uiso   1.00
O557   O     0.43994   0.83334   0.31613   0.00000  Uiso   1.00
O558   O     0.56006   0.83333   0.18388   0.00000  Uiso   1.00
O559   O     0.51639   0.83333   0.31612   0.00000  Uiso   1.00
O560   O     0.48361   0.83334   0.18388   0.00000  Uiso   1.00
Zn561  Zn    0.44896   0.83334   0.25000   0.00000  Uiso   1.00
Zn562  Zn    0.55104   0.83333   0.25000   0.00000  Uiso   1.00
O563   O     0.44618   0.75799   0.08595   0.00000  Uiso   1.00
C564   C     0.47029   0.71927   0.07935   0.00000  Uiso   1.00
H565   H     0.51069   0.72304   0.06414   0.00000  Uiso   1.00
H566   H     0.45831   0.69826   0.05688   0.00000  Uiso   1.00
H567   H     0.46062   0.70414   0.11412   0.00000  Uiso   1.00
O568   O     0.58400   0.81475   0.39408   0.00000  Uiso   1.00
C569   C     0.59320   0.77336   0.37795   0.00000  Uiso   1.00
H570   H     0.55905   0.75462   0.38989   0.00000  Uiso   1.00
H571   H     0.62106   0.75853   0.38925   0.00000  Uiso   1.00
H572   H     0.60801   0.77354   0.33896   0.00000  Uiso   1.00
O573   O     0.64288   0.78502   0.18737   0.00000  Uiso   1.00
H574   H     0.33909   0.76962   0.16711   0.00000  Uiso   1.00
O575   O     0.35701   0.88134   0.31291   0.00000  Uiso   1.00
H576   H     0.66073   0.89656   0.33333   0.00000  Uiso   1.00
C577   C     0.83333   0.91338   0.25003   0.00000  Uiso   1.00
C578   C     0.83334   0.75329   0.24997   0.00000  Uiso   1.00
C579   C     0.79056   0.77647   0.04256   0.00000  Uiso   1.00
C580   C     0.89929   0.81460   0.44266   0.00000  Uiso   1.00
C581   C     0.75651   0.77239   0.02128   0.00000  Uiso   1.00
C582   C     0.93247   0.82116   0.46437   0.00000  Uiso   1.00
C583   C     0.87699   0.97867   0.24221   0.00000  Uiso   1.00
C584   C     0.78968   0.68802   0.25775   0.00000  Uiso   1.00
C585   C     0.87700   0.68793   0.24217   0.00000  Uiso   1.00
C586   C     0.78967   0.97875   0.25780   0.00000  Uiso   1.00
C587   C     0.83335   0.70915   0.24996   0.00000  Uiso   1.00
C588   C     0.83332   0.95753   0.25002   0.00000  Uiso   1.00
C589   C     0.98804   0.80915   0.21869   0.00000  Uiso   1.00
C590   C     0.67858   0.85739   0.28143   0.00000  Uiso   1.00
C591   C     0.70290   0.80928   0.21889   0.00000  Uiso   1.00
C592   C     0.96375   0.85731   0.28117   0.00000  Uiso   1.00
C593   C     0.80288   0.83267   0.33826   0.00000  Uiso   1.00
C594   C     0.86385   0.83275   0.16174   0.00000  Uiso   1.00
C595   C     0.78496   0.82383   0.38849   0.00000  Uiso   1.00
C596   C     0.88335   0.82814   0.11070   0.00000  Uiso   1.00
C597   C     0.73090   0.78636   0.45628   0.00000  Uiso   1.00
C598   C     0.94930   0.83210   0.03476   0.00000  Uiso   1.00
C599   C     0.74098   0.80270   0.41149   0.00000  Uiso   1.00
C600   C     0.93273   0.83516   0.08352   0.00000  Uiso   1.00
C601   C     0.81788   0.82898   0.41068   0.00000  Uiso   1.00
C602   C     0.85156   0.81572   0.08916   0.00000  Uiso   1.00
C603   C     0.81170   0.80792   0.45212   0.00000  Uiso   1.00
C604   C     0.86806   0.80972   0.04063   0.00000  Uiso   1.00
C605   C     0.76604   0.78894   0.47684   0.00000  Uiso   1.00
C606   C     0.91695   0.82063   0.01309   0.00000  Uiso   1.00
C607   C     0.84903   0.80704   0.47049   0.00000  Uiso   1.00
C608   C     0.83571   0.79752   0.01863   0.00000  Uiso   1.00
H609   H     0.72224   0.75666   0.04002   0.00000  Uiso   1.00
H610   H     0.97008   0.82835   0.44290   0.00000  Uiso   1.00
H611   H     0.81320   0.81312   0.11051   0.00000  Uiso   1.00
H612   H     0.84903   0.84896   0.39433   0.00000  Uiso   1.00
H613   H     0.95796   0.84446   0.09976   0.00000  Uiso   1.00
H614   H     0.71547   0.79761   0.39431   0.00000  Uiso   1.00
H615   H     0.69649   0.77056   0.47411   0.00000  Uiso   1.00
H616   H     0.98694   0.83987   0.01400   0.00000  Uiso   1.00
H617   H     0.91105   0.96243   0.23589   0.00000  Uiso   1.00
H618   H     0.75562   0.70425   0.26407   0.00000  Uiso   1.00
H619   H     0.91107   0.70410   0.23583   0.00000  Uiso   1.00
H620   H     0.75560   0.96259   0.26415   0.00000  Uiso   1.00
H621   H     0.73117   0.79015   0.19422   0.00000  Uiso   1.00
H622   H     0.93544   0.87635   0.30593   0.00000  Uiso   1.00
N623   N     0.71426   0.83334   0.25001   0.00000  Uiso   1.00
N624   N     0.95241   0.83332   0.24999   0.00000  Uiso   1.00
O625   O     0.79512   0.89442   0.25001   0.00000  Uiso   1.00
O626   O     0.87154   0.77225   0.25000   0.00000  Uiso   1.00
O627   O     0.87157   0.89441   0.25000   0.00000  Uiso   1.00
O628   O     0.79510   0.77226   0.25000   0.00000  Uiso   1.00
O629   O     0.77328   0.83334   0.31613   0.00000  Uiso   1.00
O630   O     0.89339   0.83333   0.18388   0.00000  Uiso   1.00
O631   O     0.84972   0.83333   0.31612   0.00000  Uiso   1.00
O632   O     0.81695   0.83334   0.18388   0.00000  Uiso   1.00
Zn633  Zn    0.78229   0.83334   0.25000   0.00000  Uiso   1.00
Zn634  Zn    0.88438   0.83333   0.25000   0.00000  Uiso   1.00
O635   O     0.77951   0.75799   0.08595   0.00000  Uiso   1.00
C636   C     0.80362   0.71927   0.07935   0.00000  Uiso   1.00
H637   H     0.84402   0.72304   0.06414   0.00000  Uiso   1.00
H638   H     0.79164   0.69826   0.05688   0.00000  Uiso   1.00
H639   H     0.79395   0.70414   0.11412   0.00000  Uiso   1.00
O640   O     0.91733   0.81475   0.39408   0.00000  Uiso   1.00
C641   C     0.92654   0.77336   0.37795   0.00000  Uiso   1.00
H642   H     0.89238   0.75462   0.38989   0.00000  Uiso   1.00
H643   H     0.95439   0.75853   0.38925   0.00000  Uiso   1.00
H644   H     0.94135   0.77354   0.33896   0.00000  Uiso   1.00
O645   O     0.97621   0.78502   0.18737   0.00000  Uiso   1.00
H646   H     0.67242   0.76962   0.16711   0.00000  Uiso   1.00
O647   O     0.69034   0.88134   0.31291   0.00000  Uiso   1.00
H648   H     0.99407   0.89656   0.33333   0.00000  Uiso   1.00
C649   C     0.16666   0.24671   0.75003   0.00000  Uiso   1.00
C650   C     0.16667   0.08663   0.74997   0.00000  Uiso   1.00
C651   C     0.12389   0.10980   0.54256   0.00000  Uiso   1.00
C652   C     0.23263   0.14794   0.94266   0.00000  Uiso   1.00
C653   C     0.08985   0.10573   0.52128   0.00000  Uiso   1.00
C654   C     0.26580   0.15449   0.96437   0.00000  Uiso   1.00
C655   C     0.21032   0.31200   0.74221   0.00000  Uiso   1.00
C656   C     0.12301   0.02135   0.75775   0.00000  Uiso   1.00
C657   C     0.21034   0.02126   0.74217   0.00000  Uiso   1.00
C658   C     0.12300   0.31209   0.75780   0.00000  Uiso   1.00
C659   C     0.16668   0.04248   0.74996   0.00000  Uiso   1.00
C660   C     0.16666   0.29087   0.75002   0.00000  Uiso   1.00
C661   C     0.32137   0.14248   0.71869   0.00000  Uiso   1.00
C662   C     0.01192   0.19072   0.78143   0.00000  Uiso   1.00
C663   C     0.03623   0.14261   0.71889   0.00000  Uiso   1.00
C664   C     0.29708   0.19064   0.78117   0.00000  Uiso   1.00
C665   C     0.13622   0.16601   0.83826   0.00000  Uiso   1.00
C666   C     0.19718   0.16608   0.66174   0.00000  Uiso   1.00
C667   C     0.11829   0.15717   0.88849   0.00000  Uiso   1.00
C668   C     0.21668   0.16148   0.61070   0.00000  Uiso   1.00
C669   C     0.06424   0.11970   0.95628   0.00000  Uiso   1.00
C670   C     0.28263   0.16543   0.53476   0.00000  Uiso   1.00
C671   C     0.07432   0.13603   0.91149   0.00000  Uiso   1.00
C672   C     0.26606   0.16849   0.58352   0.00000  Uiso   1.00
C673   C     0.15121   0.16232   0.91068   0.00000  Uiso   1.00
C674   C     0.18489   0.14906   0.58916   0.00000  Uiso   1.00
C675   C     0.14503   0.14126   0.95212   0.00000  Uiso   1.00
C676   C     0.20140   0.14305   0.54063   0.00000  Uiso   1.00
C677   C     0.09938   0.12228   0.97684   0.00000  Uiso   1.00
C678   C     0.25028   0.15397   0.51309   0.00000  Uiso   1.00
C679   C     0.18236   0.14037   0.97049   0.00000  Uiso   1.00
C680   C     0.16904   0.13085   0.51863   0.00000  Uiso   1.00
H681   H     0.05557   0.09000   0.54002   0.00000  Uiso   1.00
H682   H     0.30341   0.16168   0.94290   0.00000  Uiso   1.00
H683   H     0.14653   0.14645   0.61051   0.00000  Uiso   1.00
H684   H     0.18236   0.18230   0.89433   0.00000  Uiso   1.00
H685   H     0.29130   0.17779   0.59976   0.00000  Uiso   1.00
H686   H     0.04880   0.13094   0.89431   0.00000  Uiso   1.00
H687   H     0.02983   0.10390   0.97411   0.00000  Uiso   1.00
H688   H     0.32028   0.17320   0.51400   0.00000  Uiso   1.00
H689   H     0.24438   0.29577   0.73589   0.00000  Uiso   1.00
H690   H     0.08896   0.03759   0.76407   0.00000  Uiso   1.00
H691   H     0.24440   0.03743   0.73583   0.00000  Uiso   1.00
H692   H     0.08893   0.29592   0.76415   0.00000  Uiso   1.00
H693   H     0.06450   0.12348   0.69422   0.00000  Uiso   1.00
H694   H     0.26878   0.20968   0.80593   0.00000  Uiso   1.00
N695   N     0.04759   0.16668   0.75001   0.00000  Uiso   1.00
N696   N     0.28574   0.16666   0.74999   0.00000  Uiso   1.00
O697   O     0.12846   0.22775   0.75001   0.00000  Uiso   1.00
O698   O     0.20488   0.10558   0.75000   0.00000  Uiso   1.00
O699   O     0.20490   0.22774   0.75000   0.00000  Uiso   1.00
O700   O     0.12843   0.10559   0.75000   0.00000  Uiso   1.00
O701   O     0.10661   0.16667   0.81613   0.00000  Uiso   1.00
O702   O     0.22672   0.16666   0.68388   0.00000  Uiso   1.00
O703   O     0.18305   0.16666   0.81612   0.00000  Uiso   1.00
O704   O     0.15028   0.16667   0.68388   0.00000  Uiso   1.00
Zn705  Zn    0.11562   0.16667   0.75000   0.00000  Uiso   1.00
Zn706  Zn    0.21771   0.16666   0.75000   0.00000  Uiso   1.00
O707   O     0.11285   0.09132   0.58595   0.00000  Uiso   1.00
C708   C     0.13695   0.05260   0.57935   0.00000  Uiso   1.00
H709   H     0.17736   0.05638   0.56414   0.00000  Uiso   1.00
H710   H     0.12498   0.03159   0.55688   0.00000  Uiso   1.00
H711   H     0.12728   0.03748   0.61412   0.00000  Uiso   1.00
O712   O     0.25066   0.14808   0.89408   0.00000  Uiso   1.00
C713   C     0.25987   0.10669   0.87795   0.00000  Uiso   1.00
H714   H     0.22572   0.08795   0.88989   0.00000  Uiso   1.00
H715   H     0.28772   0.09186   0.88925   0.00000  Uiso   1.00
H716   H     0.27468   0.10688   0.83896   0.00000  Uiso   1.00
O717   O     0.30955   0.11835   0.68737   0.00000  Uiso   1.00
H718   H     0.00576   0.10296   0.66711   0.00000  Uiso   1.00
O719   O     0.02368   0.21467   0.81291   0.00000  Uiso   1.00
H720   H     0.32740   0.22989   0.83333   0.00000  Uiso   1.00
C721   C     0.49999   0.24671   0.75003   0.00000  Uiso   1.00
C722   C     0.50001   0.08663   0.74997   0.00000  Uiso   1.00
C723   C     0.45723   0.10980   0.54256   0.00000  Uiso   1.00
C724   C     0.56596   0.14794   0.94266   0.00000  Uiso   1.00
C725   C     0.42318   0.10573   0.52128   0.00000  Uiso   1.00
C726   C     0.59913   0.15449   0.96437   0.00000  Uiso   1.00
C727   C     0.54366   0.31200   0.74221   0.00000  Uiso   1.00
C728   C     0.45635   0.02135   0.75775   0.00000  Uiso   1.00
C729   C     0.54367   0.02126   0.74217   0.00000  Uiso   1.00
C730   C     0.45633   0.31209   0.75780   0.00000  Uiso   1.00
C731   C     0.50001   0.04248   0.74996   0.00000  Uiso   1.00
C732   C     0.49999   0.29087   0.75002   0.00000  Uiso   1.00
C733   C     0.65470   0.14248   0.71869   0.00000  Uiso   1.00
C734   C     0.34525   0.19072   0.78143   0.00000  Uiso   1.00
C735   C     0.36956   0.14261   0.71889   0.00000  Uiso   1.00
C736   C     0.63041   0.19064   0.78117   0.00000  Uiso   1.00
C737   C     0.46955   0.16601   0.83826   0.00000  Uiso   1.00
C738   C     0.53052   0.16608   0.66174   0.00000  Uiso   1.00
C739   C     0.45162   0.15717   0.88849   0.00000  Uiso   1.00
C740   C     0.55002   0.16148   0.61070   0.00000  Uiso   1.00
C741   C     0.39757   0.11970   0.95628   0.00000  Uiso   1.00
C742   C     0.61596   0.16543   0.53476   0.00000  Uiso   1.00
C743   C     0.40765   0.13603   0.91149   0.00000  Uiso   1.00
C744   C     0.59939   0.16849   0.58352   0.00000  Uiso   1.00
C745   C     0.48454   0.16232   0.91068   0.00000  Uiso   1.00
C746   C     0.51822   0.14906   0.58916   0.00000  Uiso   1.00
C747   C     0.47837   0.14126   0.95212   0.00000  Uiso   1.00
C748   C     0.53473   0.14305   0.54063   0.00000  Uiso   1.00
C749   C     0.43271   0.12228   0.97684   0.00000  Uiso   1.00
C750   C     0.58361   0.15397   0.51309   0.00000  Uiso   1.00
C751   C     0.51569   0.14037   0.97049   0.00000  Uiso   1.00
C752   C     0.50238   0.13085   0.51863   0.00000  Uiso   1.00
H753   H     0.38890   0.09000   0.54002   0.00000  Uiso   1.00
H754   H     0.63675   0.16168   0.94290   0.00000  Uiso   1.00
H755   H     0.47986   0.14645   0.61051   0.00000  Uiso   1.00
H756   H     0.51570   0.18230   0.89433   0.00000  Uiso   1.00
H757   H     0.62463   0.17779   0.59976   0.00000  Uiso   1.00
H758   H     0.38213   0.13094   0.89431   0.00000  Uiso   1.00
H759   H     0.36316   0.10390   0.97411   0.00000  Uiso   1.00
H760   H     0.65361   0.17320   0.51400   0.00000  Uiso   1.00
H761   H     0.57771   0.29577   0.73589   0.00000  Uiso   1.00
H762   H     0.42229   0.03759   0.76407   0.00000  Uiso   1.00
H763   H     0.57773   0.03743   0.73583   0.00000  Uiso   1.00
H764   H     0.42227   0.29592   0.76415   0.00000  Uiso   1.00
H765   H     0.39783   0.12348   0.69422   0.00000  Uiso   1.00
H766   H     0.60211   0.20968   0.80593   0.00000  Uiso   1.00
N767   N     0.38093   0.16668   0.75001   0.00000  Uiso   1.00
N768   N     0.61907   0.16666   0.74999   0.00000  Uiso   1.00
O769   O     0.46179   0.22775   0.75001   0.00000  Uiso   1.00
O770   O     0.53821   0.10558   0.75000   0.00000  Uiso   1.00
O771   O     0.53823   0.22774   0.75000   0.00000  Uiso   1.00
O772   O     0.46177   0.10559   0.75000   0.00000  Uiso   1.00
O773   O     0.43994   0.16667   0.81613   0.00000  Uiso   1.00
O774   O     0.56006   0.16666   0.68388   0.00000  Uiso   1.00
O775   O     0.51639   0.16666   0.81612   0.00000  Uiso   1.00
O776   O     0.48361   0.16667   0.68388   0.00000  Uiso   1.00
Zn777  Zn    0.44896   0.16667   0.75000   0.00000  Uiso   1.00
Zn778  Zn    0.55104   0.16666   0.75000   0.00000  Uiso   1.00
O779   O     0.44618   0.09132   0.58595   0.00000  Uiso   1.00
C780   C     0.47029   0.05260   0.57935   0.00000  Uiso   1.00
H781   H     0.51069   0.05638   0.56414   0.00000  Uiso   1.00
H782   H     0.45831   0.03159   0.55688   0.00000  Uiso   1.00
H783   H     0.46062   0.03748   0.61412   0.00000  Uiso   1.00
O784   O     0.58400   0.14808   0.89408   0.00000  Uiso   1.00
C785   C     0.59320   0.10669   0.87795   0.00000  Uiso   1.00
H786   H     0.55905   0.08795   0.88989   0.00000  Uiso   1.00
H787   H     0.62106   0.09186   0.88925   0.00000  Uiso   1.00
H788   H     0.60801   0.10688   0.83896   0.00000  Uiso   1.00
O789   O     0.64288   0.11835   0.68737   0.00000  Uiso   1.00
H790   H     0.33909   0.10296   0.66711   0.00000  Uiso   1.00
O791   O     0.35701   0.21467   0.81291   0.00000  Uiso   1.00
H792   H     0.66073   0.22989   0.83333   0.00000  Uiso   1.00
C793   C     0.83333   0.24671   0.75003   0.00000  Uiso   1.00
C794   C     0.83334   0.08663   0.74997   0.00000  Uiso   1.00
C795   C     0.79056   0.10980   0.54256   0.00000  Uiso   1.00
C796   C     0.89929   0.14794   0.94266   0.00000  Uiso   1.00
C797   C     0.75651   0.10573   0.52128   0.00000  Uiso   1.00
C798   C     0.93247   0.15449   0.96437   0.00000  Uiso   1.00
C799   C     0.87699   0.31200   0.74221   0.00000  Uiso   1.00
C800   C     0.78968   0.02135   0.75775   0.00000  Uiso   1.00
C801   C     0.87700   0.02126   0.74217   0.00000  Uiso   1.00
C802   C     0.78967   0.31209   0.75780   0.00000  Uiso   1.00
C803   C     0.83335   0.04248   0.74996   0.00000  Uiso   1.00
C804   C     0.83332   0.29087   0.75002   0.00000  Uiso   1.00
C805   C     0.98804   0.14248   0.71869   0.00000  Uiso   1.00
C806   C     0.67858   0.19072   0.78143   0.00000  Uiso   1.00
C807   C     0.70290   0.14261   0.71889   0.00000  Uiso   1.00
C808   C     0.96375   0.19064   0.78117   0.00000  Uiso   1.00
C809   C     0.80288   0.16601   0.83826   0.00000  Uiso   1.00
C810   C     0.86385   0.16608   0.66174   0.00000  Uiso   1.00
C811   C     0.78496   0.15717   0.88849   0.00000  Uiso   1.00
C812   C     0.88335   0.16148   0.61070   0.00000  Uiso   1.00
C813   C     0.73090   0.11970   0.95628   0.00000  Uiso   1.00
C814   C     0.94930   0.16543   0.53476   0.00000  Uiso   1.00
C815   C     0.74098   0.13603   0.91149   0.00000  Uiso   1.00
C816   C     0.93273   0.16849   0.58352   0.00000  Uiso   1.00
C817   C     0.81788   0.16232   0.91068   0.00000  Uiso   1.00
C818   C     0.85156   0.14906   0.58916   0.00000  Uiso   1.00
C819   C     0.81170   0.14126   0.95212   0.00000  Uiso   1.00
C820   C     0.86806   0.14305   0.54063   0.00000  Uiso   1.00
C821   C     0.76604   0.12228   0.97684   0.00000  Uiso   1.00
C822   C     0.91695   0.15397   0.51309   0.00000  Uiso   1.00
C823   C     0.84903   0.14037   0.97049   0.00000  Uiso   1.00
C824   C     0.83571   0.13085   0.51863   0.00000  Uiso   1.00
H825   H     0.72224   0.09000   0.54002   0.00000  Uiso   1.00
H826   H     0.97008   0.16168   0.94290   0.00000  Uiso   1.00
H827   H     0.81320   0.14645   0.61051   0.00000  Uiso   1.00
H828   H     0.84903   0.18230   0.89433   0.00000  Uiso   1.00
H829   H     0.95796   0.17779   0.59976   0.00000  Uiso   1.00
H830   H     0.71547   0.13094   0.89431   0.00000  Uiso   1.00
H831   H     0.69649   0.10390   0.97411   0.00000  Uiso   1.00
H832   H     0.98694   0.17320   0.51400   0.00000  Uiso   1.00
H833   H     0.91105   0.29577   0.73589   0.00000  Uiso   1.00
H834   H     0.75562   0.03759   0.76407   0.00000  Uiso   1.00
H835   H     0.91107   0.03743   0.73583   0.00000  Uiso   1.00
H836   H     0.75560   0.29592   0.76415   0.00000  Uiso   1.00
H837   H     0.73117   0.12348   0.69422   0.00000  Uiso   1.00
H838   H     0.93544   0.20968   0.80593   0.00000  Uiso   1.00
N839   N     0.71426   0.16668   0.75001   0.00000  Uiso   1.00
N840   N     0.95241   0.16666   0.74999   0.00000  Uiso   1.00
O841   O     0.79512   0.22775   0.75001   0.00000  Uiso   1.00
O842   O     0.87154   0.10558   0.75000   0.00000  Uiso   1.00
O843   O     0.87157   0.22774   0.75000   0.00000  Uiso   1.00
O844   O     0.79510   0.10559   0.75000   0.00000  Uiso   1.00
O845   O     0.77328   0.16667   0.81613   0.00000  Uiso   1.00
O846   O     0.89339   0.16666   0.68388   0.00000  Uiso   1.00
O847   O     0.84972   0.16666   0.81612   0.00000  Uiso   1.00
O848   O     0.81695   0.16667   0.68388   0.00000  Uiso   1.00
Zn849  Zn    0.78229   0.16667   0.75000   0.00000  Uiso   1.00
Zn850  Zn    0.88438   0.16666   0.75000   0.00000  Uiso   1.00
O851   O     0.77951   0.09132   0.58595   0.00000  Uiso   1.00
C852   C     0.80362   0.05260   0.57935   0.00000  Uiso   1.00
H853   H     0.84402   0.05638   0.56414   0.00000  Uiso   1.00
H854   H     0.79164   0.03159   0.55688   0.00000  Uiso   1.00
H855   H     0.79395   0.03748   0.61412   0.00000  Uiso   1.00
O856   O     0.91733   0.14808   0.89408   0.00000  Uiso   1.00
C857   C     0.92654   0.10669   0.87795   0.00000  Uiso   1.00
H858   H     0.89238   0.08795   0.88989   0.00000  Uiso   1.00
H859   H     0.95439   0.09186   0.88925   0.00000  Uiso   1.00
H860   H     0.94135   0.10688   0.83896   0.00000  Uiso   1.00
O861   O     0.97621   0.11835   0.68737   0.00000  Uiso   1.00
H862   H     0.67242   0.10296   0.66711   0.00000  Uiso   1.00
O863   O     0.69034   0.21467   0.81291   0.00000  Uiso   1.00
H864   H     0.99407   0.22989   0.83333   0.00000  Uiso   1.00
C865   C     0.16666   0.58004   0.75003   0.00000  Uiso   1.00
C866   C     0.16667   0.41996   0.74997   0.00000  Uiso   1.00
C867   C     0.12389   0.44313   0.54256   0.00000  Uiso   1.00
C868   C     0.23263   0.48127   0.94266   0.00000  Uiso   1.00
C869   C     0.08985   0.43906   0.52128   0.00000  Uiso   1.00
C870   C     0.26580   0.48782   0.96437   0.00000  Uiso   1.00
C871   C     0.21032   0.64534   0.74221   0.00000  Uiso   1.00
C872   C     0.12301   0.35468   0.75775   0.00000  Uiso   1.00
C873   C     0.21034   0.35460   0.74217   0.00000  Uiso   1.00
C874   C     0.12300   0.64542   0.75780   0.00000  Uiso   1.00
C875   C     0.16668   0.37581   0.74996   0.00000  Uiso   1.00
C876   C     0.16666   0.62420   0.75002   0.00000  Uiso   1.00
C877   C     0.32137   0.47582   0.71869   0.00000  Uiso   1.00
C878   C     0.01192   0.52406   0.78143   0.00000  Uiso   1.00
C879   C     0.03623   0.47594   0.71889   0.00000  Uiso   1.00
C880   C     0.29708   0.52398   0.78117   0.00000  Uiso   1.00
C881   C     0.13622   0.49934   0.83826   0.00000  Uiso   1.00
C882   C     0.19718   0.49942   0.66174   0.00000  Uiso   1.00
C883   C     0.11829   0.49050   0.88849   0.00000  Uiso   1.00
C884   C     0.21668   0.49481   0.61070   0.00000  Uiso   1.00
C885   C     0.06424   0.45303   0.95628   0.00000  Uiso   1.00
C886   C     0.28263   0.49876   0.53476   0.00000  Uiso   1.00
C887   C     0.07432   0.46937   0.91149   0.00000  Uiso   1.00
C888   C     0.26606   0.50183   0.58352   0.00000  Uiso   1.00
C889   C     0.15121   0.49565   0.91068   0.00000  Uiso   1.00
C890   C     0.18489   0.48239   0.58916   0.00000  Uiso   1.00
C891   C     0.14503   0.47459   0.95212   0.00000  Uiso   1.00
C892   C     0.20140   0.47639   0.54063   0.00000  Uiso   1.00
C893   C     0.09938   0.45561   0.97684   0.00000  Uiso   1.00
C894   C     0.25028   0.48730   0.51309   0.00000  Uiso   1.00
C895   C     0.18236   0.47371   0.97049   0.00000  Uiso   1.00
C896   C     0.16904   0.46419   0.51863   0.00000  Uiso   1.00
H897   H     0.05557   0.42333   0.54002   0.00000  Uiso   1.00
H898   H     0.30341   0.49501   0.94290   0.00000  Uiso   1.00
H899   H     0.14653   0.47979   0.61051   0.00000  Uiso   1.00
H900   H     0.18236   0.51563   0.89433   0.00000  Uiso   1.00
H901   H     0.29130   0.51112   0.59976   0.00000  Uiso   1.00
H902   H     0.04880   0.46428   0.89431   0.00000  Uiso   1.00
H903   H     0.02983   0.43723   0.97411   0.00000  Uiso   1.00
H904   H     0.32028   0.50653   0.51400   0.00000  Uiso   1.00
H905   H     0.24438   0.62910   0.73589   0.00000  Uiso   1.00
H906   H     0.08896   0.37092   0.76407   0.00000  Uiso   1.00
H907   H     0.24440   0.37077   0.73583   0.00000  Uiso   1.00
H908   H     0.08893   0.62925   0.76415   0.00000  Uiso   1.00
H909   H     0.06450   0.45682   0.69422   0.00000  Uiso   1.00
H910   H     0.26878   0.54302   0.80593   0.00000  Uiso   1.00
N911   N     0.04759   0.50001   0.75001   0.00000  Uiso   1.00
N912   N     0.28574   0.49999   0.74999   0.00000  Uiso   1.00
O913   O     0.12846   0.56108   0.75001   0.00000  Uiso   1.00
O914   O     0.20488   0.43892   0.75000   0.00000  Uiso   1.00
O915   O     0.20490   0.56107   0.75000   0.00000  Uiso   1.00
O916   O     0.12843   0.43893   0.75000   0.00000  Uiso   1.00
O917   O     0.10661   0.50001   0.81613   0.00000  Uiso   1.00
O918   O     0.22672   0.49999   0.68388   0.00000  Uiso   1.00
O919   O     0.18305   0.50000   0.81612   0.00000  Uiso   1.00
O920   O     0.15028   0.50000   0.68388   0.00000  Uiso   1.00
Zn921  Zn    0.11562   0.50001   0.75000   0.00000  Uiso   1.00
Zn922  Zn    0.21771   0.49999   0.75000   0.00000  Uiso   1.00
O923   O     0.11285   0.42465   0.58595   0.00000  Uiso   1.00
C924   C     0.13695   0.38593   0.57935   0.00000  Uiso   1.00
H925   H     0.17736   0.38971   0.56414   0.00000  Uiso   1.00
H926   H     0.12498   0.36493   0.55688   0.00000  Uiso   1.00
H927   H     0.12728   0.37081   0.61412   0.00000  Uiso   1.00
O928   O     0.25066   0.48141   0.89408   0.00000  Uiso   1.00
C929   C     0.25987   0.44002   0.87795   0.00000  Uiso   1.00
H930   H     0.22572   0.42128   0.88989   0.00000  Uiso   1.00
H931   H     0.28772   0.42520   0.88925   0.00000  Uiso   1.00
H932   H     0.27468   0.44021   0.83896   0.00000  Uiso   1.00
O933   O     0.30955   0.45169   0.68737   0.00000  Uiso   1.00
H934   H     0.00576   0.43629   0.66711   0.00000  Uiso   1.00
O935   O     0.02368   0.54801   0.81291   0.00000  Uiso   1.00
H936   H     0.32740   0.56323   0.83333   0.00000  Uiso   1.00
C937   C     0.49999   0.58004   0.75003   0.00000  Uiso   1.00
C938   C     0.50001   0.41996   0.74997   0.00000  Uiso   1.00
C939   C     0.45723   0.44313   0.54256   0.00000  Uiso   1.00
C940   C     0.56596   0.48127   0.94266   0.00000  Uiso   1.00
C941   C     0.42318   0.43906   0.52128   0.00000  Uiso   1.00
C942   C     0.59913   0.48782   0.96437   0.00000  Uiso   1.00
C943   C     0.54366   0.64534   0.74221   0.00000  Uiso   1.00
C944   C     0.45635   0.35468   0.75775   0.00000  Uiso   1.00
C945   C     0.54367   0.35460   0.74217   0.00000  Uiso   1.00
C946   C     0.45633   0.64542   0.75780   0.00000  Uiso   1.00
C947   C     0.50001   0.37581   0.74996   0.00000  Uiso   1.00
C948   C     0.49999   0.62420   0.75002   0.00000  Uiso   1.00
C949   C     0.65470   0.47582   0.71869   0.00000  Uiso   1.00
C950   C     0.34525   0.52406   0.78143   0.00000  Uiso   1.00
C951   C     0.36956   0.47594   0.71889   0.00000  Uiso   1.00
C952   C     0.63041   0.52398   0.78117   0.00000  Uiso   1.00
C953   C     0.46955   0.49934   0.83826   0.00000  Uiso   1.00
C954   C     0.53052   0.49942   0.66174   0.00000  Uiso   1.00
C955   C     0.45162   0.49050   0.88849   0.00000  Uiso   1.00
C956   C     0.55002   0.49481   0.61070   0.00000  Uiso   1.00
C957   C     0.39757   0.45303   0.95628   0.00000  Uiso   1.00
C958   C     0.61596   0.49876   0.53476   0.00000  Uiso   1.00
C959   C     0.40765   0.46937   0.91149   0.00000  Uiso   1.00
C960   C     0.59939   0.50183   0.58352   0.00000  Uiso   1.00
C961   C     0.48454   0.49565   0.91068   0.00000  Uiso   1.00
C962   C     0.51822   0.48239   0.58916   0.00000  Uiso   1.00
C963   C     0.47837   0.47459   0.95212   0.00000  Uiso   1.00
C964   C     0.53473   0.47639   0.54063   0.00000  Uiso   1.00
C965   C     0.43271   0.45561   0.97684   0.00000  Uiso   1.00
C966   C     0.58361   0.48730   0.51309   0.00000  Uiso   1.00
C967   C     0.51569   0.47371   0.97049   0.00000  Uiso   1.00
C968   C     0.50238   0.46419   0.51863   0.00000  Uiso   1.00
H969   H     0.38890   0.42333   0.54002   0.00000  Uiso   1.00
H970   H     0.63675   0.49501   0.94290   0.00000  Uiso   1.00
H971   H     0.47986   0.47979   0.61051   0.00000  Uiso   1.00
H972   H     0.51570   0.51563   0.89433   0.00000  Uiso   1.00
H973   H     0.62463   0.51112   0.59976   0.00000  Uiso   1.00
H974   H     0.38213   0.46428   0.89431   0.00000  Uiso   1.00
H975   H     0.36316   0.43723   0.97411   0.00000  Uiso   1.00
H976   H     0.65361   0.50653   0.51400   0.00000  Uiso   1.00
H977   H     0.57771   0.62910   0.73589   0.00000  Uiso   1.00
H978   H     0.42229   0.37092   0.76407   0.00000  Uiso   1.00
H979   H     0.57773   0.37077   0.73583   0.00000  Uiso   1.00
H980   H     0.42227   0.62925   0.76415   0.00000  Uiso   1.00
H981   H     0.39783   0.45682   0.69422   0.00000  Uiso   1.00
H982   H     0.60211   0.54302   0.80593   0.00000  Uiso   1.00
N983   N     0.38093   0.50001   0.75001   0.00000  Uiso   1.00
N984   N     0.61907   0.49999   0.74999   0.00000  Uiso   1.00
O985   O     0.46179   0.56108   0.75001   0.00000  Uiso   1.00
O986   O     0.53821   0.43892   0.75000   0.00000  Uiso   1.00
O987   O     0.53823   0.56107   0.75000   0.00000  Uiso   1.00
O988   O     0.46177   0.43893   0.75000   0.00000  Uiso   1.00
O989   O     0.43994   0.50001   0.81613   0.00000  Uiso   1.00
O990   O     0.56006   0.49999   0.68388   0.00000  Uiso   1.00
O991   O     0.51639   0.50000   0.81612   0.00000  Uiso   1.00
O992   O     0.48361   0.50000   0.68388   0.00000  Uiso   1.00
Zn993  Zn    0.44896   0.50001   0.75000   0.00000  Uiso   1.00
Zn994  Zn    0.55104   0.49999   0.75000   0.00000  Uiso   1.00
O995   O     0.44618   0.42465   0.58595   0.00000  Uiso   1.00
C996   C     0.47029   0.38593   0.57935   0.00000  Uiso   1.00
H997   H     0.51069   0.38971   0.56414   0.00000  Uiso   1.00
H998   H     0.45831   0.36493   0.55688   0.00000  Uiso   1.00
H999   H     0.46062   0.37081   0.61412   0.00000  Uiso   1.00
O1000  O     0.58400   0.48141   0.89408   0.00000  Uiso   1.00
C1001  C     0.59320   0.44002   0.87795   0.00000  Uiso   1.00
H1002  H     0.55905   0.42128   0.88989   0.00000  Uiso   1.00
H1003  H     0.62106   0.42520   0.88925   0.00000  Uiso   1.00
H1004  H     0.60801   0.44021   0.83896   0.00000  Uiso   1.00
O1005  O     0.64288   0.45169   0.68737   0.00000  Uiso   1.00
H1006  H     0.33909   0.43629   0.66711   0.00000  Uiso   1.00
O1007  O     0.35701   0.54801   0.81291   0.00000  Uiso   1.00
H1008  H     0.66073   0.56323   0.83333   0.00000  Uiso   1.00
C1009  C     0.83333   0.58004   0.75003   0.00000  Uiso   1.00
C1010  C     0.83334   0.41996   0.74997   0.00000  Uiso   1.00
C1011  C     0.79056   0.44313   0.54256   0.00000  Uiso   1.00
C1012  C     0.89929   0.48127   0.94266   0.00000  Uiso   1.00
C1013  C     0.75651   0.43906   0.52128   0.00000  Uiso   1.00
C1014  C     0.93247   0.48782   0.96437   0.00000  Uiso   1.00
C1015  C     0.87699   0.64534   0.74221   0.00000  Uiso   1.00
C1016  C     0.78968   0.35468   0.75775   0.00000  Uiso   1.00
C1017  C     0.87700   0.35460   0.74217   0.00000  Uiso   1.00
C1018  C     0.78967   0.64542   0.75780   0.00000  Uiso   1.00
C1019  C     0.83335   0.37581   0.74996   0.00000  Uiso   1.00
C1020  C     0.83332   0.62420   0.75002   0.00000  Uiso   1.00
C1021  C     0.98804   0.47582   0.71869   0.00000  Uiso   1.00
C1022  C     0.67858   0.52406   0.78143   0.00000  Uiso   1.00
C1023  C     0.70290   0.47594   0.71889   0.00000  Uiso   1.00
C1024  C     0.96375   0.52398   0.78117   0.00000  Uiso   1.00
C1025  C     0.80288   0.49934   0.83826   0.00000  Uiso   1.00
C1026  C     0.86385   0.49942   0.66174   0.00000  Uiso   1.00
C1027  C     0.78496   0.49050   0.88849   0.00000  Uiso   1.00
C1028  C     0.88335   0.49481   0.61070   0.00000  Uiso   1.00
C1029  C     0.73090   0.45303   0.95628   0.00000  Uiso   1.00
C1030  C     0.94930   0.49876   0.53476   0.00000  Uiso   1.00
C1031  C     0.74098   0.46937   0.91149   0.00000  Uiso   1.00
C1032  C     0.93273   0.50183   0.58352   0.00000  Uiso   1.00
C1033  C     0.81788   0.49565   0.91068   0.00000  Uiso   1.00
C1034  C     0.85156   0.48239   0.58916   0.00000  Uiso   1.00
C1035  C     0.81170   0.47459   0.95212   0.00000  Uiso   1.00
C1036  C     0.86806   0.47639   0.54063   0.00000  Uiso   1.00
C1037  C     0.76604   0.45561   0.97684   0.00000  Uiso   1.00
C1038  C     0.91695   0.48730   0.51309   0.00000  Uiso   1.00
C1039  C     0.84903   0.47371   0.97049   0.00000  Uiso   1.00
C1040  C     0.83571   0.46419   0.51863   0.00000  Uiso   1.00
H1041  H     0.72224   0.42333   0.54002   0.00000  Uiso   1.00
H1042  H     0.97008   0.49501   0.94290   0.00000  Uiso   1.00
H1043  H     0.81320   0.47979   0.61051   0.00000  Uiso   1.00
H1044  H     0.84903   0.51563   0.89433   0.00000  Uiso   1.00
H1045  H     0.95796   0.51112   0.59976   0.00000  Uiso   1.00
H1046  H     0.71547   0.46428   0.89431   0.00000  Uiso   1.00
H1047  H     0.69649   0.43723   0.97411   0.00000  Uiso   1.00
H1048  H     0.98694   0.50653   0.51400   0.00000  Uiso   1.00
H1049  H     0.91105   0.62910   0.73589   0.00000  Uiso   1.00
H1050  H     0.75562   0.37092   0.76407   0.00000  Uiso   1.00
H1051  H     0.91107   0.37077   0.73583   0.00000  Uiso   1.00
H1052  H     0.75560   0.62925   0.76415   0.00000  Uiso   1.00
H1053  H     0.73117   0.45682   0.69422   0.00000  Uiso   1.00
H1054  H     0.93544   0.54302   0.80593   0.00000  Uiso   1.00
N1055  N     0.71426   0.50001   0.75001   0.00000  Uiso   1.00
N1056  N     0.95241   0.49999   0.74999   0.00000  Uiso   1.00
O1057  O     0.79512   0.56108   0.75001   0.00000  Uiso   1.00
O1058  O     0.87154   0.43892   0.75000   0.00000  Uiso   1.00
O1059  O     0.87157   0.56107   0.75000   0.00000  Uiso   1.00
O1060  O     0.79510   0.43893   0.75000   0.00000  Uiso   1.00
O1061  O     0.77328   0.50001   0.81613   0.00000  Uiso   1.00
O1062  O     0.89339   0.49999   0.68388   0.00000  Uiso   1.00
O1063  O     0.84972   0.50000   0.81612   0.00000  Uiso   1.00
O1064  O     0.81695   0.50000   0.68388   0.00000  Uiso   1.00
Zn1065 Zn    0.78229   0.50001   0.75000   0.00000  Uiso   1.00
Zn1066 Zn    0.88438   0.49999   0.75000   0.00000  Uiso   1.00
O1067  O     0.77951   0.42465   0.58595   0.00000  Uiso   1.00
C1068  C     0.80362   0.38593   0.57935   0.00000  Uiso   1.00
H1069  H     0.84402   0.38971   0.56414   0.00000  Uiso   1.00
H1070  H     0.79164   0.36493   0.55688   0.00000  Uiso   1.00
H1071  H     0.79395   0.37081   0.61412   0.00000  Uiso   1.00
O1072  O     0.91733   0.48141   0.89408   0.00000  Uiso   1.00
C1073  C     0.92654   0.44002   0.87795   0.00000  Uiso   1.00
H1074  H     0.89238   0.42128   0.88989   0.00000  Uiso   1.00
H1075  H     0.95439   0.42520   0.88925   0.00000  Uiso   1.00
H1076  H     0.94135   0.44021   0.83896   0.00000  Uiso   1.00
O1077  O     0.97621   0.45169   0.68737   0.00000  Uiso   1.00
H1078  H     0.67242   0.43629   0.66711   0.00000  Uiso   1.00
O1079  O     0.69034   0.54801   0.81291   0.00000  Uiso   1.00
H1080  H     0.99407   0.56323   0.83333   0.00000  Uiso   1.00
C1081  C     0.16666   0.91338   0.75003   0.00000  Uiso   1.00
C1082  C     0.16667   0.75329   0.74997   0.00000  Uiso   1.00
C1083  C     0.12389   0.77647   0.54256   0.00000  Uiso   1.00
C1084  C     0.23263   0.81460   0.94266   0.00000  Uiso   1.00
C1085  C     0.08985   0.77239   0.52128   0.00000  Uiso   1.00
C1086  C     0.26580   0.82116   0.96437   0.00000  Uiso   1.00
C1087  C     0.21032   0.97867   0.74221   0.00000  Uiso   1.00
C1088  C     0.12301   0.68802   0.75775   0.00000  Uiso   1.00
C1089  C     0.21034   0.68793   0.74217   0.00000  Uiso   1.00
C1090  C     0.12300   0.97875   0.75780   0.00000  Uiso   1.00
C1091  C     0.16668   0.70915   0.74996   0.00000  Uiso   1.00
C1092  C     0.16666   0.95753   0.75002   0.00000  Uiso   1.00
C1093  C     0.32137   0.80915   0.71869   0.00000  Uiso   1.00
C1094  C     0.01192   0.85739   0.78143   0.00000  Uiso   1.00
C1095  C     0.03623   0.80928   0.71889   0.00000  Uiso   1.00
C1096  C     0.29708   0.85731   0.78117   0.00000  Uiso   1.00
C1097  C     0.13622   0.83267   0.83826   0.00000  Uiso   1.00
C1098  C     0.19718   0.83275   0.66174   0.00000  Uiso   1.00
C1099  C     0.11829   0.82383   0.88849   0.00000  Uiso   1.00
C1100  C     0.21668   0.82814   0.61070   0.00000  Uiso   1.00
C1101  C     0.06424   0.78636   0.95628   0.00000  Uiso   1.00
C1102  C     0.28263   0.83210   0.53476   0.00000  Uiso   1.00
C1103  C     0.07432   0.80270   0.91149   0.00000  Uiso   1.00
C1104  C     0.26606   0.83516   0.58352   0.00000  Uiso   1.00
C1105  C     0.15121   0.82898   0.91068   0.00000  Uiso   1.00
C1106  C     0.18489   0.81572   0.58916   0.00000  Uiso   1.00
C1107  C     0.14503   0.80792   0.95212   0.00000  Uiso   1.00
C1108  C     0.20140   0.80972   0.54063   0.00000  Uiso   1.00
C1109  C     0.09938   0.78894   0.97684   0.00000  Uiso   1.00
C1110  C     0.25028   0.82063   0.51309   0.00000  Uiso   1.00
C1111  C     0.18236   0.80704   0.97049   0.00000  Uiso   1.00
C1112  C     0.16904   0.79752   0.51863   0.00000  Uiso   1.00
H1113  H     0.05557   0.75666   0.54002   0.00000  Uiso   1.00
H1114  H     0.30341   0.82835   0.94290   0.00000  Uiso   1.00
H1115  H     0.14653   0.81312   0.61051   0.00000  Uiso   1.00
H1116  H     0.18236   0.84896   0.89433   0.00000  Uiso   1.00
H1117  H     0.29130   0.84446   0.59976   0.00000  Uiso   1.00
H1118  H     0.04880   0.79761   0.89431   0.00000  Uiso   1.00
H1119  H     0.02983   0.77056   0.97411   0.00000  Uiso   1.00
H1120  H     0.32028   0.83987   0.51400   0.00000  Uiso   1.00
H1121  H     0.24438   0.96243   0.73589   0.00000  Uiso   1.00
H1122  H     0.08896   0.70425   0.76407   0.00000  Uiso   1.00
H1123  H     0.24440   0.70410   0.73583   0.00000  Uiso   1.00
H1124  H     0.08893   0.96259   0.76415   0.00000  Uiso   1.00
H1125  H     0.06450   0.79015   0.69422   0.00000  Uiso   1.00
H1126  H     0.26878   0.87635   0.80593   0.00000  Uiso   1.00
N1127  N     0.04759   0.83334   0.75001   0.00000  Uiso   1.00
N1128  N     0.28574   0.83332   0.74999   0.00000  Uiso   1.00
O1129  O     0.12846   0.89442   0.75001   0.00000  Uiso   1.00
O1130  O     0.20488   0.77225   0.75000   0.00000  Uiso   1.00
O1131  O     0.20490   0.89441   0.75000   0.00000  Uiso   1.00
O1132  O     0.12843   0.77226   0.75000   0.00000  Uiso   1.00
O1133  O     0.10661   0.83334   0.81613   0.00000  Uiso   1.00
O1134  O     0.22672   0.83333   0.68388   0.00000  Uiso   1.00
O1135  O     0.18305   0.83333   0.81612   0.00000  Uiso   1.00
O1136  O     0.15028   0.83334   0.68388   0.00000  Uiso   1.00
Zn1137 Zn    0.11562   0.83334   0.75000   0.00000  Uiso   1.00
Zn1138 Zn    0.21771   0.83333   0.75000   0.00000  Uiso   1.00
O1139  O     0.11285   0.75799   0.58595   0.00000  Uiso   1.00
C1140  C     0.13695   0.71927   0.57935   0.00000  Uiso   1.00
H1141  H     0.17736   0.72304   0.56414   0.00000  Uiso   1.00
H1142  H     0.12498   0.69826   0.55688   0.00000  Uiso   1.00
H1143  H     0.12728   0.70414   0.61412   0.00000  Uiso   1.00
O1144  O     0.25066   0.81475   0.89408   0.00000  Uiso   1.00
C1145  C     0.25987   0.77336   0.87795   0.00000  Uiso   1.00
H1146  H     0.22572   0.75462   0.88989   0.00000  Uiso   1.00
H1147  H     0.28772   0.75853   0.88925   0.00000  Uiso   1.00
H1148  H     0.27468   0.77354   0.83896   0.00000  Uiso   1.00
O1149  O     0.30955   0.78502   0.68737   0.00000  Uiso   1.00
H1150  H     0.00576   0.76962   0.66711   0.00000  Uiso   1.00
O1151  O     0.02368   0.88134   0.81291   0.00000  Uiso   1.00
H1152  H     0.32740   0.89656   0.83333   0.00000  Uiso   1.00
C1153  C     0.49999   0.91338   0.75003   0.00000  Uiso   1.00
C1154  C     0.50001   0.75329   0.74997   0.00000  Uiso   1.00
C1155  C     0.45723   0.77647   0.54256   0.00000  Uiso   1.00
C1156  C     0.56596   0.81460   0.94266   0.00000  Uiso   1.00
C1157  C     0.42318   0.77239   0.52128   0.00000  Uiso   1.00
C1158  C     0.59913   0.82116   0.96437   0.00000  Uiso   1.00
C1159  C     0.54366   0.97867   0.74221   0.00000  Uiso   1.00
C1160  C     0.45635   0.68802   0.75775   0.00000  Uiso   1.00
C1161  C     0.54367   0.68793   0.74217   0.00000  Uiso   1.00
C1162  C     0.45633   0.97875   0.75780   0.00000  Uiso   1.00
C1163  C     0.50001   0.70915   0.74996   0.00000  Uiso   1.00
C1164  C     0.49999   0.95753   0.75002   0.00000  Uiso   1.00
C1165  C     0.65470   0.80915   0.71869   0.00000  Uiso   1.00
C1166  C     0.34525   0.85739   0.78143   0.00000  Uiso   1.00
C1167  C     0.36956   0.80928   0.71889   0.00000  Uiso   1.00
C1168  C     0.63041   0.85731   0.78117   0.00000  Uiso   1.00
C1169  C     0.46955   0.83267   0.83826   0.00000  Uiso   1.00
C1170  C     0.53052   0.83275   0.66174   0.00000  Uiso   1.00
C1171  C     0.45162   0.82383   0.88849   0.00000  Uiso   1.00
C1172  C     0.55002   0.82814   0.61070   0.00000  Uiso   1.00
C1173  C     0.39757   0.78636   0.95628   0.00000  Uiso   1.00
C1174  C     0.61596   0.83210   0.53476   0.00000  Uiso   1.00
C1175  C     0.40765   0.80270   0.91149   0.00000  Uiso   1.00
C1176  C     0.59939   0.83516   0.58352   0.00000  Uiso   1.00
C1177  C     0.48454   0.82898   0.91068   0.00000  Uiso   1.00
C1178  C     0.51822   0.81572   0.58916   0.00000  Uiso   1.00
C1179  C     0.47837   0.80792   0.95212   0.00000  Uiso   1.00
C1180  C     0.53473   0.80972   0.54063   0.00000  Uiso   1.00
C1181  C     0.43271   0.78894   0.97684   0.00000  Uiso   1.00
C1182  C     0.58361   0.82063   0.51309   0.00000  Uiso   1.00
C1183  C     0.51569   0.80704   0.97049   0.00000  Uiso   1.00
C1184  C     0.50238   0.79752   0.51863   0.00000  Uiso   1.00
H1185  H     0.38890   0.75666   0.54002   0.00000  Uiso   1.00
H1186  H     0.63675   0.82835   0.94290   0.00000  Uiso   1.00
H1187  H     0.47986   0.81312   0.61051   0.00000  Uiso   1.00
H1188  H     0.51570   0.84896   0.89433   0.00000  Uiso   1.00
H1189  H     0.62463   0.84446   0.59976   0.00000  Uiso   1.00
H1190  H     0.38213   0.79761   0.89431   0.00000  Uiso   1.00
H1191  H     0.36316   0.77056   0.97411   0.00000  Uiso   1.00
H1192  H     0.65361   0.83987   0.51400   0.00000  Uiso   1.00
H1193  H     0.57771   0.96243   0.73589   0.00000  Uiso   1.00
H1194  H     0.42229   0.70425   0.76407   0.00000  Uiso   1.00
H1195  H     0.57773   0.70410   0.73583   0.00000  Uiso   1.00
H1196  H     0.42227   0.96259   0.76415   0.00000  Uiso   1.00
H1197  H     0.39783   0.79015   0.69422   0.00000  Uiso   1.00
H1198  H     0.60211   0.87635   0.80593   0.00000  Uiso   1.00
N1199  N     0.38093   0.83334   0.75001   0.00000  Uiso   1.00
N1200  N     0.61907   0.83332   0.74999   0.00000  Uiso   1.00
O1201  O     0.46179   0.89442   0.75001   0.00000  Uiso   1.00
O1202  O     0.53821   0.77225   0.75000   0.00000  Uiso   1.00
O1203  O     0.53823   0.89441   0.75000   0.00000  Uiso   1.00
O1204  O     0.46177   0.77226   0.75000   0.00000  Uiso   1.00
O1205  O     0.43994   0.83334   0.81613   0.00000  Uiso   1.00
O1206  O     0.56006   0.83333   0.68388   0.00000  Uiso   1.00
O1207  O     0.51639   0.83333   0.81612   0.00000  Uiso   1.00
O1208  O     0.48361   0.83334   0.68388   0.00000  Uiso   1.00
Zn1209 Zn    0.44896   0.83334   0.75000   0.00000  Uiso   1.00
Zn1210 Zn    0.55104   0.83333   0.75000   0.00000  Uiso   1.00
O1211  O     0.44618   0.75799   0.58595   0.00000  Uiso   1.00
C1212  C     0.47029   0.71927   0.57935   0.00000  Uiso   1.00
H1213  H     0.51069   0.72304   0.56414   0.00000  Uiso   1.00
H1214  H     0.45831   0.69826   0.55688   0.00000  Uiso   1.00
H1215  H     0.46062   0.70414   0.61412   0.00000  Uiso   1.00
O1216  O     0.58400   0.81475   0.89408   0.00000  Uiso   1.00
C1217  C     0.59320   0.77336   0.87795   0.00000  Uiso   1.00
H1218  H     0.55905   0.75462   0.88989   0.00000  Uiso   1.00
H1219  H     0.62106   0.75853   0.88925   0.00000  Uiso   1.00
H1220  H     0.60801   0.77354   0.83896   0.00000  Uiso   1.00
O1221  O     0.64288   0.78502   0.68737   0.00000  Uiso   1.00
H1222  H     0.33909   0.76962   0.66711   0.00000  Uiso   1.00
O1223  O     0.35701   0.88134   0.81291   0.00000  Uiso   1.00
H1224  H     0.66073   0.89656   0.83333   0.00000  Uiso   1.00
C1225  C     0.83333   0.91338   0.75003   0.00000  Uiso   1.00
C1226  C     0.83334   0.75329   0.74997   0.00000  Uiso   1.00
C1227  C     0.79056   0.77647   0.54256   0.00000  Uiso   1.00
C1228  C     0.89929   0.81460   0.94266   0.00000  Uiso   1.00
C1229  C     0.75651   0.77239   0.52128   0.00000  Uiso   1.00
C1230  C     0.93247   0.82116   0.96437   0.00000  Uiso   1.00
C1231  C     0.87699   0.97867   0.74221   0.00000  Uiso   1.00
C1232  C     0.78968   0.68802   0.75775   0.00000  Uiso   1.00
C1233  C     0.87700   0.68793   0.74217   0.00000  Uiso   1.00
C1234  C     0.78967   0.97875   0.75780   0.00000  Uiso   1.00
C1235  C     0.83335   0.70915   0.74996   0.00000  Uiso   1.00
C1236  C     0.83332   0.95753   0.75002   0.00000  Uiso   1.00
C1237  C     0.98804   0.80915   0.71869   0.00000  Uiso   1.00
C1238  C     0.67858   0.85739   0.78143   0.00000  Uiso   1.00
C1239  C     0.70290   0.80928   0.71889   0.00000  Uiso   1.00
C1240  C     0.96375   0.85731   0.78117   0.00000  Uiso   1.00
C1241  C     0.80288   0.83267   0.83826   0.00000  Uiso   1.00
C1242  C     0.86385   0.83275   0.66174   0.00000  Uiso   1.00
C1243  C     0.78496   0.82383   0.88849   0.00000  Uiso   1.00
C1244  C     0.88335   0.82814   0.61070   0.00000  Uiso   1.00
C1245  C     0.73090   0.78636   0.95628   0.00000  Uiso   1.00
C1246  C     0.94930   0.83210   0.53476   0.00000  Uiso   1.00
C1247  C     0.74098   0.80270   0.91149   0.00000  Uiso   1.00
C1248  C     0.93273   0.83516   0.58352   0.00000  Uiso   1.00
C1249  C     0.81788   0.82898   0.91068   0.00000  Uiso   1.00
C1250  C     0.85156   0.81572   0.58916   0.00000  Uiso   1.00
C1251  C     0.81170   0.80792   0.95212   0.00000  Uiso   1.00
C1252  C     0.86806   0.80972   0.54063   0.00000  Uiso   1.00
C1253  C     0.76604   0.78894   0.97684   0.00000  Uiso   1.00
C1254  C     0.91695   0.82063   0.51309   0.00000  Uiso   1.00
C1255  C     0.84903   0.80704   0.97049   0.00000  Uiso   1.00
C1256  C     0.83571   0.79752   0.51863   0.00000  Uiso   1.00
H1257  H     0.72224   0.75666   0.54002   0.00000  Uiso   1.00
H1258  H     0.97008   0.82835   0.94290   0.00000  Uiso   1.00
H1259  H     0.81320   0.81312   0.61051   0.00000  Uiso   1.00
H1260  H     0.84903   0.84896   0.89433   0.00000  Uiso   1.00
H1261  H     0.95796   0.84446   0.59976   0.00000  Uiso   1.00
H1262  H     0.71547   0.79761   0.89431   0.00000  Uiso   1.00
H1263  H     0.69649   0.77056   0.97411   0.00000  Uiso   1.00
H1264  H     0.98694   0.83987   0.51400   0.00000  Uiso   1.00
H1265  H     0.91105   0.96243   0.73589   0.00000  Uiso   1.00
H1266  H     0.75562   0.70425   0.76407   0.00000  Uiso   1.00
H1267  H     0.91107   0.70410   0.73583   0.00000  Uiso   1.00
H1268  H     0.75560   0.96259   0.76415   0.00000  Uiso   1.00
H1269  H     0.73117   0.79015   0.69422   0.00000  Uiso   1.00
H1270  H     0.93544   0.87635   0.80593   0.00000  Uiso   1.00
N1271  N     0.71426   0.83334   0.75001   0.00000  Uiso   1.00
N1272  N     0.95241   0.83332   0.74999   0.00000  Uiso   1.00
O1273  O     0.79512   0.89442   0.75001   0.00000  Uiso   1.00
O1274  O     0.87154   0.77225   0.75000   0.00000  Uiso   1.00
O1275  O     0.87157   0.89441   0.75000   0.00000  Uiso   1.00
O1276  O     0.79510   0.77226   0.75000   0.00000  Uiso   1.00
O1277  O     0.77328   0.83334   0.81613   0.00000  Uiso   1.00
O1278  O     0.89339   0.83333   0.68388   0.00000  Uiso   1.00
O1279  O     0.84972   0.83333   0.81612   0.00000  Uiso   1.00
O1280  O     0.81695   0.83334   0.68388   0.00000  Uiso   1.00
Zn1281 Zn    0.78229   0.83334   0.75000   0.00000  Uiso   1.00
Zn1282 Zn    0.88438   0.83333   0.75000   0.00000  Uiso   1.00
O1283  O     0.77951   0.75799   0.58595   0.00000  Uiso   1.00
C1284  C     0.80362   0.71927   0.57935   0.00000  Uiso   1.00
H1285  H     0.84402   0.72304   0.56414   0.00000  Uiso   1.00
H1286  H     0.79164   0.69826   0.55688   0.00000  Uiso   1.00
H1287  H     0.79395   0.70414   0.61412   0.00000  Uiso   1.00
O1288  O     0.91733   0.81475   0.89408   0.00000  Uiso   1.00
C1289  C     0.92654   0.77336   0.87795   0.00000  Uiso   1.00
H1290  H     0.89238   0.75462   0.88989   0.00000  Uiso   1.00
H1291  H     0.95439   0.75853   0.88925   0.00000  Uiso   1.00
H1292  H     0.94135   0.77354   0.83896   0.00000  Uiso   1.00
O1293  O     0.97621   0.78502   0.68737   0.00000  Uiso   1.00
H1294  H     0.67242   0.76962   0.66711   0.00000  Uiso   1.00
O1295  O     0.69034   0.88134   0.81291   0.00000  Uiso   1.00
H1296  H     0.99407   0.89656   0.83333   0.00000  Uiso   1.00
loop_
_geom_bond_atom_site_label_1
_geom_bond_atom_site_label_2
_geom_bond_distance
_geom_bond_site_symmetry_2
_ccdc_geom_bond_type
C1     O51     1.283   .     A
C1     C12     1.420   .     S
C1     O49     1.283   .     A
C2     O52     1.283   .     A
C2     C11     1.420   .     S
C2     O50     1.283   .     A
C3     C5      1.396   .     A
C3     C32     1.429   .     A
C3     O59     1.383   .     S
C4     O64     1.383   .     S
C4     C31     1.429   .     A
C4     C6      1.393   .     A
C5     H33     1.084   .     S
C5     C677    1.392   1_554 S
C6     H34     1.083   .     S
C6     C678    1.390   .     S
C7     C12     1.397   .     A
C7     H41     1.084   .     S
C7     C225    1.370   .     S
C8     C11     1.397   .     A
C8     H42     1.084   .     S
C8     C442    1.370   1_545 S
C9     C11     1.397   .     A
C9     H43     1.084   .     S
C9     C439    1.370   1_545 S
C10    H44     1.084   .     S
C10    C12     1.397   .     A
C10    C224    1.370   .     S
C13    N48     1.368   .     A
C13    O69     1.378   .     S
C13    C87     1.426   .     S
C14    N47     1.368   .     A
C14    O71     1.378   .     S
C14    C160    1.426   1_455 S
C15    N47     1.365   .     A
C15    H45     1.082   .     S
C15    C157    1.426   1_455 S
C16    N48     1.365   .     A
C16    H46     1.082   .     S
C16    C86     1.426   .     S
C17    C19     1.459   .     S
C17    O53     1.294   .     A
C17    O55     1.292   .     A
C18    O56     1.294   .     A
C18    O54     1.292   .     A
C18    C20     1.460   .     S
C19    C23     1.400   .     A
C19    C25     1.391   .     A
C20    C26     1.395   .     A
C20    C24     1.400   .     A
C21    H39     1.084   .     S
C21    C23     1.397   .     A
C21    C29     1.406   .     A
C22    H40     1.083   .     S
C22    C24     1.393   .     A
C22    C30     1.403   .     A
C23    H38     1.083   .     S
C24    H37     1.083   .     S
C25    H36     1.080   .     S
C25    C27     1.393   .     A
C26    C28     1.396   .     A
C26    H35     1.078   .     S
C27    C29     1.414   .     A
C27    C31     1.415   .     A
C28    C30     1.417   .     A
C28    C32     1.417   .     A
C29    C653    1.392   .     S
C30    C654    1.390   1_554 S
C31    C680    1.414   .     S
C32    C679    1.414   1_554 S
N47    Zn57    2.009   .     S
N48    Zn58    2.009   .     S
O49    Zn57    2.001   .     S
O50    Zn58    2.001   .     S
O51    Zn58    2.000   .     S
O52    Zn57    2.000   .     S
O53    Zn57    1.946   .     S
O54    Zn58    1.946   .     S
O55    Zn58    1.899   .     S
O56    Zn57    1.899   .     S
O59    C60     1.410   .     S
C60    H63     1.109   .     S
C60    H62     1.114   .     S
C60    H61     1.113   .     S
O64    C65     1.409   .     S
C65    H68     1.109   .     S
C65    H66     1.113   .     S
C65    H67     1.114   .     S
O69    H142    0.992   .     S
H70    O213    0.992   1_455 S
O71    H216    0.992   1_455 S
H72    O143    0.992   .     S
C73    O123    1.283   .     A
C73    C84     1.420   .     S
C73    O121    1.283   .     A
C74    O124    1.283   .     A
C74    C83     1.420   .     S
C74    O122    1.283   .     A
C75    C77     1.396   .     A
C75    C104    1.429   .     A
C75    O131    1.383   .     S
C76    O136    1.383   .     S
C76    C103    1.429   .     A
C76    C78     1.393   .     A
C77    H105    1.084   .     S
C77    C749    1.392   1_554 S
C78    H106    1.083   .     S
C78    C750    1.390   .     S
C79    C84     1.397   .     A
C79    H113    1.084   .     S
C79    C297    1.370   .     S
C80    C83     1.397   .     A
C80    H114    1.084   .     S
C80    C514    1.370   1_545 S
C81    C83     1.397   .     A
C81    H115    1.084   .     S
C81    C511    1.370   1_545 S
C82    H116    1.084   .     S
C82    C84     1.397   .     A
C82    C296    1.370   .     S
C85    N120    1.368   .     A
C85    O141    1.378   .     S
C85    C159    1.426   .     S
C86    N119    1.368   .     A
C86    O143    1.378   .     S
C87    N119    1.365   .     A
C87    H117    1.082   .     S
C88    N120    1.365   .     A
C88    H118    1.082   .     S
C88    C158    1.426   .     S
C89    C91     1.459   .     S
C89    O125    1.294   .     A
C89    O127    1.292   .     A
C90    O128    1.294   .     A
C90    O126    1.292   .     A
C90    C92     1.460   .     S
C91    C95     1.400   .     A
C91    C97     1.391   .     A
C92    C98     1.395   .     A
C92    C96     1.400   .     A
C93    H111    1.084   .     S
C93    C95     1.397   .     A
C93    C101    1.406   .     A
C94    H112    1.083   .     S
C94    C96     1.393   .     A
C94    C102    1.403   .     A
C95    H110    1.083   .     S
C96    H109    1.083   .     S
C97    H108    1.080   .     S
C97    C99     1.393   .     A
C98    C100    1.396   .     A
C98    H107    1.078   .     S
C99    C101    1.414   .     A
C99    C103    1.415   .     A
C100   C102    1.417   .     A
C100   C104    1.417   .     A
C101   C725    1.392   .     S
C102   C726    1.390   1_554 S
C103   C752    1.414   .     S
C104   C751    1.414   1_554 S
N119   Zn129   2.009   .     S
N120   Zn130   2.009   .     S
O121   Zn129   2.001   .     S
O122   Zn130   2.001   .     S
O123   Zn130   2.000   .     S
O124   Zn129   2.000   .     S
O125   Zn129   1.946   .     S
O126   Zn130   1.946   .     S
O127   Zn130   1.899   .     S
O128   Zn129   1.899   .     S
O131   C132    1.410   .     S
C132   H135    1.109   .     S
C132   H134    1.114   .     S
C132   H133    1.113   .     S
O136   C137    1.409   .     S
C137   H140    1.109   .     S
C137   H138    1.113   .     S
C137   H139    1.114   .     S
O141   H214    0.992   .     S
H144   O215    0.992   .     S
C145   O195    1.283   .     A
C145   C156    1.420   .     S
C145   O193    1.283   .     A
C146   O196    1.283   .     A
C146   C155    1.420   .     S
C146   O194    1.283   .     A
C147   C149    1.396   .     A
C147   C176    1.429   .     A
C147   O203    1.383   .     S
C148   O208    1.383   .     S
C148   C175    1.429   .     A
C148   C150    1.393   .     A
C149   H177    1.084   .     S
C149   C821    1.392   1_554 S
C150   H178    1.083   .     S
C150   C822    1.390   .     S
C151   C156    1.397   .     A
C151   H185    1.084   .     S
C151   C369    1.370   .     S
C152   C155    1.397   .     A
C152   H186    1.084   .     S
C152   C586    1.370   1_545 S
C153   C155    1.397   .     A
C153   H187    1.084   .     S
C153   C583    1.370   1_545 S
C154   H188    1.084   .     S
C154   C156    1.397   .     A
C154   C368    1.370   .     S
C157   N192    1.368   .     A
C157   O213    1.378   .     S
C157   C15     1.426   1_655 S
C158   N191    1.368   .     A
C158   O215    1.378   .     S
C159   N191    1.365   .     A
C159   H189    1.082   .     S
C160   N192    1.365   .     A
C160   H190    1.082   .     S
C160   C14     1.426   1_655 S
C161   C163    1.459   .     S
C161   O197    1.294   .     A
C161   O199    1.292   .     A
C162   O200    1.294   .     A
C162   O198    1.292   .     A
C162   C164    1.460   .     S
C163   C167    1.400   .     A
C163   C169    1.391   .     A
C164   C170    1.395   .     A
C164   C168    1.400   .     A
C165   H183    1.084   .     S
C165   C167    1.397   .     A
C165   C173    1.406   .     A
C166   H184    1.083   .     S
C166   C168    1.393   .     A
C166   C174    1.403   .     A
C167   H182    1.083   .     S
C168   H181    1.083   .     S
C169   H180    1.080   .     S
C169   C171    1.393   .     A
C170   C172    1.396   .     A
C170   H179    1.078   .     S
C171   C173    1.414   .     A
C171   C175    1.415   .     A
C172   C174    1.417   .     A
C172   C176    1.417   .     A
C173   C797    1.392   .     S
C174   C798    1.390   1_554 S
C175   C824    1.414   .     S
C176   C823    1.414   1_554 S
N191   Zn201   2.009   .     S
N192   Zn202   2.009   .     S
O193   Zn201   2.001   .     S
O194   Zn202   2.001   .     S
O195   Zn202   2.000   .     S
O196   Zn201   2.000   .     S
O197   Zn201   1.946   .     S
O198   Zn202   1.946   .     S
O199   Zn202   1.899   .     S
O200   Zn201   1.899   .     S
O203   C204    1.410   .     S
C204   H207    1.109   .     S
C204   H206    1.114   .     S
C204   H205    1.113   .     S
O208   C209    1.409   .     S
C209   H212    1.109   .     S
C209   H210    1.113   .     S
C209   H211    1.114   .     S
O213   H70     0.992   1_655 S
H216   O71     0.992   1_655 S
C217   O267    1.283   .     A
C217   C228    1.420   .     S
C217   O265    1.283   .     A
C218   O268    1.283   .     A
C218   C227    1.420   .     S
C218   O266    1.283   .     A
C219   C221    1.396   .     A
C219   C248    1.429   .     A
C219   O275    1.383   .     S
C220   O280    1.383   .     S
C220   C247    1.429   .     A
C220   C222    1.393   .     A
C221   H249    1.084   .     S
C221   C893    1.392   1_554 S
C222   H250    1.083   .     S
C222   C894    1.390   .     S
C223   C228    1.397   .     A
C223   H257    1.084   .     S
C223   C441    1.370   .     S
C224   C227    1.397   .     A
C224   H258    1.084   .     S
C225   C227    1.397   .     A
C225   H259    1.084   .     S
C226   H260    1.084   .     S
C226   C228    1.397   .     A
C226   C440    1.370   .     S
C229   N264    1.368   .     A
C229   O285    1.378   .     S
C229   C303    1.426   .     S
C230   N263    1.368   .     A
C230   O287    1.378   .     S
C230   C376    1.426   1_455 S
C231   N263    1.365   .     A
C231   H261    1.082   .     S
C231   C373    1.426   1_455 S
C232   N264    1.365   .     A
C232   H262    1.082   .     S
C232   C302    1.426   .     S
C233   C235    1.459   .     S
C233   O269    1.294   .     A
C233   O271    1.292   .     A
C234   O272    1.294   .     A
C234   O270    1.292   .     A
C234   C236    1.460   .     S
C235   C239    1.400   .     A
C235   C241    1.391   .     A
C236   C242    1.395   .     A
C236   C240    1.400   .     A
C237   H255    1.084   .     S
C237   C239    1.397   .     A
C237   C245    1.406   .     A
C238   H256    1.083   .     S
C238   C240    1.393   .     A
C238   C246    1.403   .     A
C239   H254    1.083   .     S
C240   H253    1.083   .     S
C241   H252    1.080   .     S
C241   C243    1.393   .     A
C242   C244    1.396   .     A
C242   H251    1.078   .     S
C243   C245    1.414   .     A
C243   C247    1.415   .     A
C244   C246    1.417   .     A
C244   C248    1.417   .     A
C245   C869    1.392   .     S
C246   C870    1.390   1_554 S
C247   C896    1.414   .     S
C248   C895    1.414   1_554 S
N263   Zn273   2.009   .     S
N264   Zn274   2.009   .     S
O265   Zn273   2.001   .     S
O266   Zn274   2.001   .     S
O267   Zn274   2.000   .     S
O268   Zn273   2.000   .     S
O269   Zn273   1.946   .     S
O270   Zn274   1.946   .     S
O271   Zn274   1.899   .     S
O272   Zn273   1.899   .     S
O275   C276    1.410   .     S
C276   H279    1.109   .     S
C276   H278    1.114   .     S
C276   H277    1.113   .     S
O280   C281    1.409   .     S
C281   H284    1.109   .     S
C281   H282    1.113   .     S
C281   H283    1.114   .     S
O285   H358    0.992   .     S
H286   O429    0.992   1_455 S
O287   H432    0.992   1_455 S
H288   O359    0.992   .     S
C289   O339    1.283   .     A
C289   C300    1.420   .     S
C289   O337    1.283   .     A
C290   O340    1.283   .     A
C290   C299    1.420   .     S
C290   O338    1.283   .     A
C291   C293    1.396   .     A
C291   C320    1.429   .     A
C291   O347    1.383   .     S
C292   O352    1.383   .     S
C292   C319    1.429   .     A
C292   C294    1.393   .     A
C293   H321    1.084   .     S
C293   C965    1.392   1_554 S
C294   H322    1.083   .     S
C294   C966    1.390   .     S
C295   C300    1.397   .     A
C295   H329    1.084   .     S
C295   C513    1.370   .     S
C296   C299    1.397   .     A
C296   H330    1.084   .     S
C297   C299    1.397   .     A
C297   H331    1.084   .     S
C298   H332    1.084   .     S
C298   C300    1.397   .     A
C298   C512    1.370   .     S
C301   N336    1.368   .     A
C301   O357    1.378   .     S
C301   C375    1.426   .     S
C302   N335    1.368   .     A
C302   O359    1.378   .     S
C303   N335    1.365   .     A
C303   H333    1.082   .     S
C304   N336    1.365   .     A
C304   H334    1.082   .     S
C304   C374    1.426   .     S
C305   C307    1.459   .     S
C305   O341    1.294   .     A
C305   O343    1.292   .     A
C306   O344    1.294   .     A
C306   O342    1.292   .     A
C306   C308    1.460   .     S
C307   C311    1.400   .     A
C307   C313    1.391   .     A
C308   C314    1.395   .     A
C308   C312    1.400   .     A
C309   H327    1.084   .     S
C309   C311    1.397   .     A
C309   C317    1.406   .     A
C310   H328    1.083   .     S
C310   C312    1.393   .     A
C310   C318    1.403   .     A
C311   H326    1.083   .     S
C312   H325    1.083   .     S
C313   H324    1.080   .     S
C313   C315    1.393   .     A
C314   C316    1.396   .     A
C314   H323    1.078   .     S
C315   C317    1.414   .     A
C315   C319    1.415   .     A
C316   C318    1.417   .     A
C316   C320    1.417   .     A
C317   C941    1.392   .     S
C318   C942    1.390   1_554 S
C319   C968    1.414   .     S
C320   C967    1.414   1_554 S
N335   Zn345   2.009   .     S
N336   Zn346   2.009   .     S
O337   Zn345   2.001   .     S
O338   Zn346   2.001   .     S
O339   Zn346   2.000   .     S
O340   Zn345   2.000   .     S
O341   Zn345   1.946   .     S
O342   Zn346   1.946   .     S
O343   Zn346   1.899   .     S
O344   Zn345   1.899   .     S
O347   C348    1.410   .     S
C348   H351    1.109   .     S
C348   H350    1.114   .     S
C348   H349    1.113   .     S
O352   C353    1.409   .     S
C353   H356    1.109   .     S
C353   H354    1.113   .     S
C353   H355    1.114   .     S
O357   H430    0.992   .     S
H360   O431    0.992   .     S
C361   O411    1.283   .     A
C361   C372    1.420   .     S
C361   O409    1.283   .     A
C362   O412    1.283   .     A
C362   C371    1.420   .     S
C362   O410    1.283   .     A
C363   C365    1.396   .     A
C363   C392    1.429   .     A
C363   O419    1.383   .     S
C364   O424    1.383   .     S
C364   C391    1.429   .     A
C364   C366    1.393   .     A
C365   H393    1.084   .     S
C365   C1037   1.392   1_554 S
C366   H394    1.083   .     S
C366   C1038   1.390   .     S
C367   C372    1.397   .     A
C367   H401    1.084   .     S
C367   C585    1.370   .     S
C368   C371    1.397   .     A
C368   H402    1.084   .     S
C369   C371    1.397   .     A
C369   H403    1.084   .     S
C370   H404    1.084   .     S
C370   C372    1.397   .     A
C370   C584    1.370   .     S
C373   N408    1.368   .     A
C373   O429    1.378   .     S
C373   C231    1.426   1_655 S
C374   N407    1.368   .     A
C374   O431    1.378   .     S
C375   N407    1.365   .     A
C375   H405    1.082   .     S
C376   N408    1.365   .     A
C376   H406    1.082   .     S
C376   C230    1.426   1_655 S
C377   C379    1.459   .     S
C377   O413    1.294   .     A
C377   O415    1.292   .     A
C378   O416    1.294   .     A
C378   O414    1.292   .     A
C378   C380    1.460   .     S
C379   C383    1.400   .     A
C379   C385    1.391   .     A
C380   C386    1.395   .     A
C380   C384    1.400   .     A
C381   H399    1.084   .     S
C381   C383    1.397   .     A
C381   C389    1.406   .     A
C382   H400    1.083   .     S
C382   C384    1.393   .     A
C382   C390    1.403   .     A
C383   H398    1.083   .     S
C384   H397    1.083   .     S
C385   H396    1.080   .     S
C385   C387    1.393   .     A
C386   C388    1.396   .     A
C386   H395    1.078   .     S
C387   C389    1.414   .     A
C387   C391    1.415   .     A
C388   C390    1.417   .     A
C388   C392    1.417   .     A
C389   C1013   1.392   .     S
C390   C1014   1.390   1_554 S
C391   C1040   1.414   .     S
C392   C1039   1.414   1_554 S
N407   Zn417   2.009   .     S
N408   Zn418   2.009   .     S
O409   Zn417   2.001   .     S
O410   Zn418   2.001   .     S
O411   Zn418   2.000   .     S
O412   Zn417   2.000   .     S
O413   Zn417   1.946   .     S
O414   Zn418   1.946   .     S
O415   Zn418   1.899   .     S
O416   Zn417   1.899   .     S
O419   C420    1.410   .     S
C420   H423    1.109   .     S
C420   H422    1.114   .     S
C420   H421    1.113   .     S
O424   C425    1.409   .     S
C425   H428    1.109   .     S
C425   H426    1.113   .     S
C425   H427    1.114   .     S
O429   H286    0.992   1_655 S
H432   O287    0.992   1_655 S
C433   O483    1.283   .     A
C433   C444    1.420   .     S
C433   O481    1.283   .     A
C434   O484    1.283   .     A
C434   C443    1.420   .     S
C434   O482    1.283   .     A
C435   C437    1.396   .     A
C435   C464    1.429   .     A
C435   O491    1.383   .     S
C436   O496    1.383   .     S
C436   C463    1.429   .     A
C436   C438    1.393   .     A
C437   H465    1.084   .     S
C437   C1109   1.392   1_554 S
C438   H466    1.083   .     S
C438   C1110   1.390   .     S
C439   C444    1.397   .     A
C439   H473    1.084   .     S
C439   C9      1.370   1_565 S
C440   C443    1.397   .     A
C440   H474    1.084   .     S
C441   C443    1.397   .     A
C441   H475    1.084   .     S
C442   H476    1.084   .     S
C442   C444    1.397   .     A
C442   C8      1.370   1_565 S
C445   N480    1.368   .     A
C445   O501    1.378   .     S
C445   C519    1.426   .     S
C446   N479    1.368   .     A
C446   O503    1.378   .     S
C446   C592    1.426   1_455 S
C447   N479    1.365   .     A
C447   H477    1.082   .     S
C447   C589    1.426   1_455 S
C448   N480    1.365   .     A
C448   H478    1.082   .     S
C448   C518    1.426   .     S
C449   C451    1.459   .     S
C449   O485    1.294   .     A
C449   O487    1.292   .     A
C450   O488    1.294   .     A
C450   O486    1.292   .     A
C450   C452    1.460   .     S
C451   C455    1.400   .     A
C451   C457    1.391   .     A
C452   C458    1.395   .     A
C452   C456    1.400   .     A
C453   H471    1.084   .     S
C453   C455    1.397   .     A
C453   C461    1.406   .     A
C454   H472    1.083   .     S
C454   C456    1.393   .     A
C454   C462    1.403   .     A
C455   H470    1.083   .     S
C456   H469    1.083   .     S
C457   H468    1.080   .     S
C457   C459    1.393   .     A
C458   C460    1.396   .     A
C458   H467    1.078   .     S
C459   C461    1.414   .     A
C459   C463    1.415   .     A
C460   C462    1.417   .     A
C460   C464    1.417   .     A
C461   C1085   1.392   .     S
C462   C1086   1.390   1_554 S
C463   C1112   1.414   .     S
C464   C1111   1.414   1_554 S
N479   Zn489   2.009   .     S
N480   Zn490   2.009   .     S
O481   Zn489   2.001   .     S
O482   Zn490   2.001   .     S
O483   Zn490   2.000   .     S
O484   Zn489   2.000   .     S
O485   Zn489   1.946   .     S
O486   Zn490   1.946   .     S
O487   Zn490   1.899   .     S
O488   Zn489   1.899   .     S
O491   C492    1.410   .     S
C492   H495    1.109   .     S
C492   H494    1.114   .     S
C492   H493    1.113   .     S
O496   C497    1.409   .     S
C497   H500    1.109   .     S
C497   H498    1.113   .     S
C497   H499    1.114   .     S
O501   H574    0.992   .     S
H502   O645    0.992   1_455 S
O503   H648    0.992   1_455 S
H504   O575    0.992   .     S
C505   O555    1.283   .     A
C505   C516    1.420   .     S
C505   O553    1.283   .     A
C506   O556    1.283   .     A
C506   C515    1.420   .     S
C506   O554    1.283   .     A
C507   C509    1.396   .     A
C507   C536    1.429   .     A
C507   O563    1.383   .     S
C508   O568    1.383   .     S
C508   C535    1.429   .     A
C508   C510    1.393   .     A
C509   H537    1.084   .     S
C509   C1181   1.392   1_554 S
C510   H538    1.083   .     S
C510   C1182   1.390   .     S
C511   C516    1.397   .     A
C511   H545    1.084   .     S
C511   C81     1.370   1_565 S
C512   C515    1.397   .     A
C512   H546    1.084   .     S
C513   C515    1.397   .     A
C513   H547    1.084   .     S
C514   H548    1.084   .     S
C514   C516    1.397   .     A
C514   C80     1.370   1_565 S
C517   N552    1.368   .     A
C517   O573    1.378   .     S
C517   C591    1.426   .     S
C518   N551    1.368   .     A
C518   O575    1.378   .     S
C519   N551    1.365   .     A
C519   H549    1.082   .     S
C520   N552    1.365   .     A
C520   H550    1.082   .     S
C520   C590    1.426   .     S
C521   C523    1.459   .     S
C521   O557    1.294   .     A
C521   O559    1.292   .     A
C522   O560    1.294   .     A
C522   O558    1.292   .     A
C522   C524    1.460   .     S
C523   C527    1.400   .     A
C523   C529    1.391   .     A
C524   C530    1.395   .     A
C524   C528    1.400   .     A
C525   H543    1.084   .     S
C525   C527    1.397   .     A
C525   C533    1.406   .     A
C526   H544    1.083   .     S
C526   C528    1.393   .     A
C526   C534    1.403   .     A
C527   H542    1.083   .     S
C528   H541    1.083   .     S
C529   H540    1.080   .     S
C529   C531    1.393   .     A
C530   C532    1.396   .     A
C530   H539    1.078   .     S
C531   C533    1.414   .     A
C531   C535    1.415   .     A
C532   C534    1.417   .     A
C532   C536    1.417   .     A
C533   C1157   1.392   .     S
C534   C1158   1.390   1_554 S
C535   C1184   1.414   .     S
C536   C1183   1.414   1_554 S
N551   Zn561   2.009   .     S
N552   Zn562   2.009   .     S
O553   Zn561   2.001   .     S
O554   Zn562   2.001   .     S
O555   Zn562   2.000   .     S
O556   Zn561   2.000   .     S
O557   Zn561   1.946   .     S
O558   Zn562   1.946   .     S
O559   Zn562   1.899   .     S
O560   Zn561   1.899   .     S
O563   C564    1.410   .     S
C564   H567    1.109   .     S
C564   H566    1.114   .     S
C564   H565    1.113   .     S
O568   C569    1.409   .     S
C569   H572    1.109   .     S
C569   H570    1.113   .     S
C569   H571    1.114   .     S
O573   H646    0.992   .     S
H576   O647    0.992   .     S
C577   O627    1.283   .     A
C577   C588    1.420   .     S
C577   O625    1.283   .     A
C578   O628    1.283   .     A
C578   C587    1.420   .     S
C578   O626    1.283   .     A
C579   C581    1.396   .     A
C579   C608    1.429   .     A
C579   O635    1.383   .     S
C580   O640    1.383   .     S
C580   C607    1.429   .     A
C580   C582    1.393   .     A
C581   H609    1.084   .     S
C581   C1253   1.392   1_554 S
C582   H610    1.083   .     S
C582   C1254   1.390   .     S
C583   C588    1.397   .     A
C583   H617    1.084   .     S
C583   C153    1.370   1_565 S
C584   C587    1.397   .     A
C584   H618    1.084   .     S
C585   C587    1.397   .     A
C585   H619    1.084   .     S
C586   H620    1.084   .     S
C586   C588    1.397   .     A
C586   C152    1.370   1_565 S
C589   N624    1.368   .     A
C589   O645    1.378   .     S
C589   C447    1.426   1_655 S
C590   N623    1.368   .     A
C590   O647    1.378   .     S
C591   N623    1.365   .     A
C591   H621    1.082   .     S
C592   N624    1.365   .     A
C592   H622    1.082   .     S
C592   C446    1.426   1_655 S
C593   C595    1.459   .     S
C593   O629    1.294   .     A
C593   O631    1.292   .     A
C594   O632    1.294   .     A
C594   O630    1.292   .     A
C594   C596    1.460   .     S
C595   C599    1.400   .     A
C595   C601    1.391   .     A
C596   C602    1.395   .     A
C596   C600    1.400   .     A
C597   H615    1.084   .     S
C597   C599    1.397   .     A
C597   C605    1.406   .     A
C598   H616    1.083   .     S
C598   C600    1.393   .     A
C598   C606    1.403   .     A
C599   H614    1.083   .     S
C600   H613    1.083   .     S
C601   H612    1.080   .     S
C601   C603    1.393   .     A
C602   C604    1.396   .     A
C602   H611    1.078   .     S
C603   C605    1.414   .     A
C603   C607    1.415   .     A
C604   C606    1.417   .     A
C604   C608    1.417   .     A
C605   C1229   1.392   .     S
C606   C1230   1.390   1_554 S
C607   C1256   1.414   .     S
C608   C1255   1.414   1_554 S
N623   Zn633   2.009   .     S
N624   Zn634   2.009   .     S
O625   Zn633   2.001   .     S
O626   Zn634   2.001   .     S
O627   Zn634   2.000   .     S
O628   Zn633   2.000   .     S
O629   Zn633   1.946   .     S
O630   Zn634   1.946   .     S
O631   Zn634   1.899   .     S
O632   Zn633   1.899   .     S
O635   C636    1.410   .     S
C636   H639    1.109   .     S
C636   H638    1.114   .     S
C636   H637    1.113   .     S
O640   C641    1.409   .     S
C641   H644    1.109   .     S
C641   H642    1.113   .     S
C641   H643    1.114   .     S
O645   H502    0.992   1_655 S
H648   O503    0.992   1_655 S
C649   O699    1.283   .     A
C649   C660    1.420   .     S
C649   O697    1.283   .     A
C650   O700    1.283   .     A
C650   C659    1.420   .     S
C650   O698    1.283   .     A
C651   C653    1.396   .     A
C651   C680    1.429   .     A
C651   O707    1.383   .     S
C652   O712    1.383   .     S
C652   C679    1.429   .     A
C652   C654    1.393   .     A
C653   H681    1.084   .     S
C654   H682    1.083   .     S
C654   C30     1.390   1_556 S
C655   C660    1.397   .     A
C655   H689    1.084   .     S
C655   C873    1.370   .     S
C656   C659    1.397   .     A
C656   H690    1.084   .     S
C656   C1090   1.370   1_545 S
C657   C659    1.397   .     A
C657   H691    1.084   .     S
C657   C1087   1.370   1_545 S
C658   H692    1.084   .     S
C658   C660    1.397   .     A
C658   C872    1.370   .     S
C661   N696    1.368   .     A
C661   O717    1.378   .     S
C661   C735    1.426   .     S
C662   N695    1.368   .     A
C662   O719    1.378   .     S
C662   C808    1.426   1_455 S
C663   N695    1.365   .     A
C663   H693    1.082   .     S
C663   C805    1.426   1_455 S
C664   N696    1.365   .     A
C664   H694    1.082   .     S
C664   C734    1.426   .     S
C665   C667    1.459   .     S
C665   O701    1.294   .     A
C665   O703    1.292   .     A
C666   O704    1.294   .     A
C666   O702    1.292   .     A
C666   C668    1.460   .     S
C667   C671    1.400   .     A
C667   C673    1.391   .     A
C668   C674    1.395   .     A
C668   C672    1.400   .     A
C669   H687    1.084   .     S
C669   C671    1.397   .     A
C669   C677    1.406   .     A
C670   H688    1.083   .     S
C670   C672    1.393   .     A
C670   C678    1.403   .     A
C671   H686    1.083   .     S
C672   H685    1.083   .     S
C673   H684    1.080   .     S
C673   C675    1.393   .     A
C674   C676    1.396   .     A
C674   H683    1.078   .     S
C675   C677    1.414   .     A
C675   C679    1.415   .     A
C676   C678    1.417   .     A
C676   C680    1.417   .     A
C677   C5      1.392   1_556 S
C679   C32     1.414   1_556 S
N695   Zn705   2.009   .     S
N696   Zn706   2.009   .     S
O697   Zn705   2.001   .     S
O698   Zn706   2.001   .     S
O699   Zn706   2.000   .     S
O700   Zn705   2.000   .     S
O701   Zn705   1.946   .     S
O702   Zn706   1.946   .     S
O703   Zn706   1.899   .     S
O704   Zn705   1.899   .     S
O707   C708    1.410   .     S
C708   H711    1.109   .     S
C708   H710    1.114   .     S
C708   H709    1.113   .     S
O712   C713    1.409   .     S
C713   H716    1.109   .     S
C713   H714    1.113   .     S
C713   H715    1.114   .     S
O717   H790    0.992   .     S
H718   O861    0.992   1_455 S
O719   H864    0.992   1_455 S
H720   O791    0.992   .     S
C721   O771    1.283   .     A
C721   C732    1.420   .     S
C721   O769    1.283   .     A
C722   O772    1.283   .     A
C722   C731    1.420   .     S
C722   O770    1.283   .     A
C723   C725    1.396   .     A
C723   C752    1.429   .     A
C723   O779    1.383   .     S
C724   O784    1.383   .     S
C724   C751    1.429   .     A
C724   C726    1.393   .     A
C725   H753    1.084   .     S
C726   H754    1.083   .     S
C726   C102    1.390   1_556 S
C727   C732    1.397   .     A
C727   H761    1.084   .     S
C727   C945    1.370   .     S
C728   C731    1.397   .     A
C728   H762    1.084   .     S
C728   C1162   1.370   1_545 S
C729   C731    1.397   .     A
C729   H763    1.084   .     S
C729   C1159   1.370   1_545 S
C730   H764    1.084   .     S
C730   C732    1.397   .     A
C730   C944    1.370   .     S
C733   N768    1.368   .     A
C733   O789    1.378   .     S
C733   C807    1.426   .     S
C734   N767    1.368   .     A
C734   O791    1.378   .     S
C735   N767    1.365   .     A
C735   H765    1.082   .     S
C736   N768    1.365   .     A
C736   H766    1.082   .     S
C736   C806    1.426   .     S
C737   C739    1.459   .     S
C737   O773    1.294   .     A
C737   O775    1.292   .     A
C738   O776    1.294   .     A
C738   O774    1.292   .     A
C738   C740    1.460   .     S
C739   C743    1.400   .     A
C739   C745    1.391   .     A
C740   C746    1.395   .     A
C740   C744    1.400   .     A
C741   H759    1.084   .     S
C741   C743    1.397   .     A
C741   C749    1.406   .     A
C742   H760    1.083   .     S
C742   C744    1.393   .     A
C742   C750    1.403   .     A
C743   H758    1.083   .     S
C744   H757    1.083   .     S
C745   H756    1.080   .     S
C745   C747    1.393   .     A
C746   C748    1.396   .     A
C746   H755    1.078   .     S
C747   C749    1.414   .     A
C747   C751    1.415   .     A
C748   C750    1.417   .     A
C748   C752    1.417   .     A
C749   C77     1.392   1_556 S
C751   C104    1.414   1_556 S
N767   Zn777   2.009   .     S
N768   Zn778   2.009   .     S
O769   Zn777   2.001   .     S
O770   Zn778   2.001   .     S
O771   Zn778   2.000   .     S
O772   Zn777   2.000   .     S
O773   Zn777   1.946   .     S
O774   Zn778   1.946   .     S
O775   Zn778   1.899   .     S
O776   Zn777   1.899   .     S
O779   C780    1.410   .     S
C780   H783    1.109   .     S
C780   H782    1.114   .     S
C780   H781    1.113   .     S
O784   C785    1.409   .     S
C785   H788    1.109   .     S
C785   H786    1.113   .     S
C785   H787    1.114   .     S
O789   H862    0.992   .     S
H792   O863    0.992   .     S
C793   O843    1.283   .     A
C793   C804    1.420   .     S
C793   O841    1.283   .     A
C794   O844    1.283   .     A
C794   C803    1.420   .     S
C794   O842    1.283   .     A
C795   C797    1.396   .     A
C795   C824    1.429   .     A
C795   O851    1.383   .     S
C796   O856    1.383   .     S
C796   C823    1.429   .     A
C796   C798    1.393   .     A
C797   H825    1.084   .     S
C798   H826    1.083   .     S
C798   C174    1.390   1_556 S
C799   C804    1.397   .     A
C799   H833    1.084   .     S
C799   C1017   1.370   .     S
C800   C803    1.397   .     A
C800   H834    1.084   .     S
C800   C1234   1.370   1_545 S
C801   C803    1.397   .     A
C801   H835    1.084   .     S
C801   C1231   1.370   1_545 S
C802   H836    1.084   .     S
C802   C804    1.397   .     A
C802   C1016   1.370   .     S
C805   N840    1.368   .     A
C805   O861    1.378   .     S
C805   C663    1.426   1_655 S
C806   N839    1.368   .     A
C806   O863    1.378   .     S
C807   N839    1.365   .     A
C807   H837    1.082   .     S
C808   N840    1.365   .     A
C808   H838    1.082   .     S
C808   C662    1.426   1_655 S
C809   C811    1.459   .     S
C809   O845    1.294   .     A
C809   O847    1.292   .     A
C810   O848    1.294   .     A
C810   O846    1.292   .     A
C810   C812    1.460   .     S
C811   C815    1.400   .     A
C811   C817    1.391   .     A
C812   C818    1.395   .     A
C812   C816    1.400   .     A
C813   H831    1.084   .     S
C813   C815    1.397   .     A
C813   C821    1.406   .     A
C814   H832    1.083   .     S
C814   C816    1.393   .     A
C814   C822    1.403   .     A
C815   H830    1.083   .     S
C816   H829    1.083   .     S
C817   H828    1.080   .     S
C817   C819    1.393   .     A
C818   C820    1.396   .     A
C818   H827    1.078   .     S
C819   C821    1.414   .     A
C819   C823    1.415   .     A
C820   C822    1.417   .     A
C820   C824    1.417   .     A
C821   C149    1.392   1_556 S
C823   C176    1.414   1_556 S
N839   Zn849   2.009   .     S
N840   Zn850   2.009   .     S
O841   Zn849   2.001   .     S
O842   Zn850   2.001   .     S
O843   Zn850   2.000   .     S
O844   Zn849   2.000   .     S
O845   Zn849   1.946   .     S
O846   Zn850   1.946   .     S
O847   Zn850   1.899   .     S
O848   Zn849   1.899   .     S
O851   C852    1.410   .     S
C852   H855    1.109   .     S
C852   H854    1.114   .     S
C852   H853    1.113   .     S
O856   C857    1.409   .     S
C857   H860    1.109   .     S
C857   H858    1.113   .     S
C857   H859    1.114   .     S
O861   H718    0.992   1_655 S
H864   O719    0.992   1_655 S
C865   O915    1.283   .     A
C865   C876    1.420   .     S
C865   O913    1.283   .     A
C866   O916    1.283   .     A
C866   C875    1.420   .     S
C866   O914    1.283   .     A
C867   C869    1.396   .     A
C867   C896    1.429   .     A
C867   O923    1.383   .     S
C868   O928    1.383   .     S
C868   C895    1.429   .     A
C868   C870    1.393   .     A
C869   H897    1.084   .     S
C870   H898    1.083   .     S
C870   C246    1.390   1_556 S
C871   C876    1.397   .     A
C871   H905    1.084   .     S
C871   C1089   1.370   .     S
C872   C875    1.397   .     A
C872   H906    1.084   .     S
C873   C875    1.397   .     A
C873   H907    1.084   .     S
C874   H908    1.084   .     S
C874   C876    1.397   .     A
C874   C1088   1.370   .     S
C877   N912    1.368   .     A
C877   O933    1.378   .     S
C877   C951    1.426   .     S
C878   N911    1.368   .     A
C878   O935    1.378   .     S
C878   C1024   1.426   1_455 S
C879   N911    1.365   .     A
C879   H909    1.082   .     S
C879   C1021   1.426   1_455 S
C880   N912    1.365   .     A
C880   H910    1.082   .     S
C880   C950    1.426   .     S
C881   C883    1.459   .     S
C881   O917    1.294   .     A
C881   O919    1.292   .     A
C882   O920    1.294   .     A
C882   O918    1.292   .     A
C882   C884    1.460   .     S
C883   C887    1.400   .     A
C883   C889    1.391   .     A
C884   C890    1.395   .     A
C884   C888    1.400   .     A
C885   H903    1.084   .     S
C885   C887    1.397   .     A
C885   C893    1.406   .     A
C886   H904    1.083   .     S
C886   C888    1.393   .     A
C886   C894    1.403   .     A
C887   H902    1.083   .     S
C888   H901    1.083   .     S
C889   H900    1.080   .     S
C889   C891    1.393   .     A
C890   C892    1.396   .     A
C890   H899    1.078   .     S
C891   C893    1.414   .     A
C891   C895    1.415   .     A
C892   C894    1.417   .     A
C892   C896    1.417   .     A
C893   C221    1.392   1_556 S
C895   C248    1.414   1_556 S
N911   Zn921   2.009   .     S
N912   Zn922   2.009   .     S
O913   Zn921   2.001   .     S
O914   Zn922   2.001   .     S
O915   Zn922   2.000   .     S
O916   Zn921   2.000   .     S
O917   Zn921   1.946   .     S
O918   Zn922   1.946   .     S
O919   Zn922   1.899   .     S
O920   Zn921   1.899   .     S
O923   C924    1.410   .     S
C924   H927    1.109   .     S
C924   H926    1.114   .     S
C924   H925    1.113   .     S
O928   C929    1.409   .     S
C929   H932    1.109   .     S
C929   H930    1.113   .     S
C929   H931    1.114   .     S
O933   H1006   0.992   .     S
H934   O1077   0.992   1_455 S
O935   H1080   0.992   1_455 S
H936   O1007   0.992   .     S
C937   O987    1.283   .     A
C937   C948    1.420   .     S
C937   O985    1.283   .     A
C938   O988    1.283   .     A
C938   C947    1.420   .     S
C938   O986    1.283   .     A
C939   C941    1.396   .     A
C939   C968    1.429   .     A
C939   O995    1.383   .     S
C940   O1000   1.383   .     S
C940   C967    1.429   .     A
C940   C942    1.393   .     A
C941   H969    1.084   .     S
C942   H970    1.083   .     S
C942   C318    1.390   1_556 S
C943   C948    1.397   .     A
C943   H977    1.084   .     S
C943   C1161   1.370   .     S
C944   C947    1.397   .     A
C944   H978    1.084   .     S
C945   C947    1.397   .     A
C945   H979    1.084   .     S
C946   H980    1.084   .     S
C946   C948    1.397   .     A
C946   C1160   1.370   .     S
C949   N984    1.368   .     A
C949   O1005   1.378   .     S
C949   C1023   1.426   .     S
C950   N983    1.368   .     A
C950   O1007   1.378   .     S
C951   N983    1.365   .     A
C951   H981    1.082   .     S
C952   N984    1.365   .     A
C952   H982    1.082   .     S
C952   C1022   1.426   .     S
C953   C955    1.459   .     S
C953   O989    1.294   .     A
C953   O991    1.292   .     A
C954   O992    1.294   .     A
C954   O990    1.292   .     A
C954   C956    1.460   .     S
C955   C959    1.400   .     A
C955   C961    1.391   .     A
C956   C962    1.395   .     A
C956   C960    1.400   .     A
C957   H975    1.084   .     S
C957   C959    1.397   .     A
C957   C965    1.406   .     A
C958   H976    1.083   .     S
C958   C960    1.393   .     A
C958   C966    1.403   .     A
C959   H974    1.083   .     S
C960   H973    1.083   .     S
C961   H972    1.080   .     S
C961   C963    1.393   .     A
C962   C964    1.396   .     A
C962   H971    1.078   .     S
C963   C965    1.414   .     A
C963   C967    1.415   .     A
C964   C966    1.417   .     A
C964   C968    1.417   .     A
C965   C293    1.392   1_556 S
C967   C320    1.414   1_556 S
N983   Zn993   2.009   .     S
N984   Zn994   2.009   .     S
O985   Zn993   2.001   .     S
O986   Zn994   2.001   .     S
O987   Zn994   2.000   .     S
O988   Zn993   2.000   .     S
O989   Zn993   1.946   .     S
O990   Zn994   1.946   .     S
O991   Zn994   1.899   .     S
O992   Zn993   1.899   .     S
O995   C996    1.410   .     S
C996   H999    1.109   .     S
C996   H998    1.114   .     S
C996   H997    1.113   .     S
O1000  C1001   1.409   .     S
C1001  H1004   1.109   .     S
C1001  H1002   1.113   .     S
C1001  H1003   1.114   .     S
O1005  H1078   0.992   .     S
H1008  O1079   0.992   .     S
C1009  O1059   1.283   .     A
C1009  C1020   1.420   .     S
C1009  O1057   1.283   .     A
C1010  O1060   1.283   .     A
C1010  C1019   1.420   .     S
C1010  O1058   1.283   .     A
C1011  C1013   1.396   .     A
C1011  C1040   1.429   .     A
C1011  O1067   1.383   .     S
C1012  O1072   1.383   .     S
C1012  C1039   1.429   .     A
C1012  C1014   1.393   .     A
C1013  H1041   1.084   .     S
C1014  H1042   1.083   .     S
C1014  C390    1.390   1_556 S
C1015  C1020   1.397   .     A
C1015  H1049   1.084   .     S
C1015  C1233   1.370   .     S
C1016  C1019   1.397   .     A
C1016  H1050   1.084   .     S
C1017  C1019   1.397   .     A
C1017  H1051   1.084   .     S
C1018  H1052   1.084   .     S
C1018  C1020   1.397   .     A
C1018  C1232   1.370   .     S
C1021  N1056   1.368   .     A
C1021  O1077   1.378   .     S
C1021  C879    1.426   1_655 S
C1022  N1055   1.368   .     A
C1022  O1079   1.378   .     S
C1023  N1055   1.365   .     A
C1023  H1053   1.082   .     S
C1024  N1056   1.365   .     A
C1024  H1054   1.082   .     S
C1024  C878    1.426   1_655 S
C1025  C1027   1.459   .     S
C1025  O1061   1.294   .     A
C1025  O1063   1.292   .     A
C1026  O1064   1.294   .     A
C1026  O1062   1.292   .     A
C1026  C1028   1.460   .     S
C1027  C1031   1.400   .     A
C1027  C1033   1.391   .     A
C1028  C1034   1.395   .     A
C1028  C1032   1.400   .     A
C1029  H1047   1.084   .     S
C1029  C1031   1.397   .     A
C1029  C1037   1.406   .     A
C1030  H1048   1.083   .     S
C1030  C1032   1.393   .     A
C1030  C1038   1.403   .     A
C1031  H1046   1.083   .     S
C1032  H1045   1.083   .     S
C1033  H1044   1.080   .     S
C1033  C1035   1.393   .     A
C1034  C1036   1.396   .     A
C1034  H1043   1.078   .     S
C1035  C1037   1.414   .     A
C1035  C1039   1.415   .     A
C1036  C1038   1.417   .     A
C1036  C1040   1.417   .     A
C1037  C365    1.392   1_556 S
C1039  C392    1.414   1_556 S
N1055  Zn1065  2.009   .     S
N1056  Zn1066  2.009   .     S
O1057  Zn1065  2.001   .     S
O1058  Zn1066  2.001   .     S
O1059  Zn1066  2.000   .     S
O1060  Zn1065  2.000   .     S
O1061  Zn1065  1.946   .     S
O1062  Zn1066  1.946   .     S
O1063  Zn1066  1.899   .     S
O1064  Zn1065  1.899   .     S
O1067  C1068   1.410   .     S
C1068  H1071   1.109   .     S
C1068  H1070   1.114   .     S
C1068  H1069   1.113   .     S
O1072  C1073   1.409   .     S
C1073  H1076   1.109   .     S
C1073  H1074   1.113   .     S
C1073  H1075   1.114   .     S
O1077  H934    0.992   1_655 S
H1080  O935    0.992   1_655 S
C1081  O1131   1.283   .     A
C1081  C1092   1.420   .     S
C1081  O1129   1.283   .     A
C1082  O1132   1.283   .     A
C1082  C1091   1.420   .     S
C1082  O1130   1.283   .     A
C1083  C1085   1.396   .     A
C1083  C1112   1.429   .     A
C1083  O1139   1.383   .     S
C1084  O1144   1.383   .     S
C1084  C1111   1.429   .     A
C1084  C1086   1.393   .     A
C1085  H1113   1.084   .     S
C1086  H1114   1.083   .     S
C1086  C462    1.390   1_556 S
C1087  C1092   1.397   .     A
C1087  H1121   1.084   .     S
C1087  C657    1.370   1_565 S
C1088  C1091   1.397   .     A
C1088  H1122   1.084   .     S
C1089  C1091   1.397   .     A
C1089  H1123   1.084   .     S
C1090  H1124   1.084   .     S
C1090  C1092   1.397   .     A
C1090  C656    1.370   1_565 S
C1093  N1128   1.368   .     A
C1093  O1149   1.378   .     S
C1093  C1167   1.426   .     S
C1094  N1127   1.368   .     A
C1094  O1151   1.378   .     S
C1094  C1240   1.426   1_455 S
C1095  N1127   1.365   .     A
C1095  H1125   1.082   .     S
C1095  C1237   1.426   1_455 S
C1096  N1128   1.365   .     A
C1096  H1126   1.082   .     S
C1096  C1166   1.426   .     S
C1097  C1099   1.459   .     S
C1097  O1133   1.294   .     A
C1097  O1135   1.292   .     A
C1098  O1136   1.294   .     A
C1098  O1134   1.292   .     A
C1098  C1100   1.460   .     S
C1099  C1103   1.400   .     A
C1099  C1105   1.391   .     A
C1100  C1106   1.395   .     A
C1100  C1104   1.400   .     A
C1101  H1119   1.084   .     S
C1101  C1103   1.397   .     A
C1101  C1109   1.406   .     A
C1102  H1120   1.083   .     S
C1102  C1104   1.393   .     A
C1102  C1110   1.403   .     A
C1103  H1118   1.083   .     S
C1104  H1117   1.083   .     S
C1105  H1116   1.080   .     S
C1105  C1107   1.393   .     A
C1106  C1108   1.396   .     A
C1106  H1115   1.078   .     S
C1107  C1109   1.414   .     A
C1107  C1111   1.415   .     A
C1108  C1110   1.417   .     A
C1108  C1112   1.417   .     A
C1109  C437    1.392   1_556 S
C1111  C464    1.414   1_556 S
N1127  Zn1137  2.009   .     S
N1128  Zn1138  2.009   .     S
O1129  Zn1137  2.001   .     S
O1130  Zn1138  2.001   .     S
O1131  Zn1138  2.000   .     S
O1132  Zn1137  2.000   .     S
O1133  Zn1137  1.946   .     S
O1134  Zn1138  1.946   .     S
O1135  Zn1138  1.899   .     S
O1136  Zn1137  1.899   .     S
O1139  C1140   1.410   .     S
C1140  H1143   1.109   .     S
C1140  H1142   1.114   .     S
C1140  H1141   1.113   .     S
O1144  C1145   1.409   .     S
C1145  H1148   1.109   .     S
C1145  H1146   1.113   .     S
C1145  H1147   1.114   .     S
O1149  H1222   0.992   .     S
H1150  O1293   0.992   1_455 S
O1151  H1296   0.992   1_455 S
H1152  O1223   0.992   .     S
C1153  O1203   1.283   .     A
C1153  C1164   1.420   .     S
C1153  O1201   1.283   .     A
C1154  O1204   1.283   .     A
C1154  C1163   1.420   .     S
C1154  O1202   1.283   .     A
C1155  C1157   1.396   .     A
C1155  C1184   1.429   .     A
C1155  O1211   1.383   .     S
C1156  O1216   1.383   .     S
C1156  C1183   1.429   .     A
C1156  C1158   1.393   .     A
C1157  H1185   1.084   .     S
C1158  H1186   1.083   .     S
C1158  C534    1.390   1_556 S
C1159  C1164   1.397   .     A
C1159  H1193   1.084   .     S
C1159  C729    1.370   1_565 S
C1160  C1163   1.397   .     A
C1160  H1194   1.084   .     S
C1161  C1163   1.397   .     A
C1161  H1195   1.084   .     S
C1162  H1196   1.084   .     S
C1162  C1164   1.397   .     A
C1162  C728    1.370   1_565 S
C1165  N1200   1.368   .     A
C1165  O1221   1.378   .     S
C1165  C1239   1.426   .     S
C1166  N1199   1.368   .     A
C1166  O1223   1.378   .     S
C1167  N1199   1.365   .     A
C1167  H1197   1.082   .     S
C1168  N1200   1.365   .     A
C1168  H1198   1.082   .     S
C1168  C1238   1.426   .     S
C1169  C1171   1.459   .     S
C1169  O1205   1.294   .     A
C1169  O1207   1.292   .     A
C1170  O1208   1.294   .     A
C1170  O1206   1.292   .     A
C1170  C1172   1.460   .     S
C1171  C1175   1.400   .     A
C1171  C1177   1.391   .     A
C1172  C1178   1.395   .     A
C1172  C1176   1.400   .     A
C1173  H1191   1.084   .     S
C1173  C1175   1.397   .     A
C1173  C1181   1.406   .     A
C1174  H1192   1.083   .     S
C1174  C1176   1.393   .     A
C1174  C1182   1.403   .     A
C1175  H1190   1.083   .     S
C1176  H1189   1.083   .     S
C1177  H1188   1.080   .     S
C1177  C1179   1.393   .     A
C1178  C1180   1.396   .     A
C1178  H1187   1.078   .     S
C1179  C1181   1.414   .     A
C1179  C1183   1.415   .     A
C1180  C1182   1.417   .     A
C1180  C1184   1.417   .     A
C1181  C509    1.392   1_556 S
C1183  C536    1.414   1_556 S
N1199  Zn1209  2.009   .     S
N1200  Zn1210  2.009   .     S
O1201  Zn1209  2.001   .     S
O1202  Zn1210  2.001   .     S
O1203  Zn1210  2.000   .     S
O1204  Zn1209  2.000   .     S
O1205  Zn1209  1.946   .     S
O1206  Zn1210  1.946   .     S
O1207  Zn1210  1.899   .     S
O1208  Zn1209  1.899   .     S
O1211  C1212   1.410   .     S
C1212  H1215   1.109   .     S
C1212  H1214   1.114   .     S
C1212  H1213   1.113   .     S
O1216  C1217   1.409   .     S
C1217  H1220   1.109   .     S
C1217  H1218   1.113   .     S
C1217  H1219   1.114   .     S
O1221  H1294   0.992   .     S
H1224  O1295   0.992   .     S
C1225  O1275   1.283   .     A
C1225  C1236   1.420   .     S
C1225  O1273   1.283   .     A
C1226  O1276   1.283   .     A
C1226  C1235   1.420   .     S
C1226  O1274   1.283   .     A
C1227  C1229   1.396   .     A
C1227  C1256   1.429   .     A
C1227  O1283   1.383   .     S
C1228  O1288   1.383   .     S
C1228  C1255   1.429   .     A
C1228  C1230   1.393   .     A
C1229  H1257   1.084   .     S
C1230  H1258   1.083   .     S
C1230  C606    1.390   1_556 S
C1231  C1236   1.397   .     A
C1231  H1265   1.084   .     S
C1231  C801    1.370   1_565 S
C1232  C1235   1.397   .     A
C1232  H1266   1.084   .     S
C1233  C1235   1.397   .     A
C1233  H1267   1.084   .     S
C1234  H1268   1.084   .     S
C1234  C1236   1.397   .     A
C1234  C800    1.370   1_565 S
C1237  N1272   1.368   .     A
C1237  O1293   1.378   .     S
C1237  C1095   1.426   1_655 S
C1238  N1271   1.368   .     A
C1238  O1295   1.378   .     S
C1239  N1271   1.365   .     A
C1239  H1269   1.082   .     S
C1240  N1272   1.365   .     A
C1240  H1270   1.082   .     S
C1240  C1094   1.426   1_655 S
C1241  C1243   1.459   .     S
C1241  O1277   1.294   .     A
C1241  O1279   1.292   .     A
C1242  O1280   1.294   .     A
C1242  O1278   1.292   .     A
C1242  C1244   1.460   .     S
C1243  C1247   1.400   .     A
C1243  C1249   1.391   .     A
C1244  C1250   1.395   .     A
C1244  C1248   1.400   .     A
C1245  H1263   1.084   .     S
C1245  C1247   1.397   .     A
C1245  C1253   1.406   .     A
C1246  H1264   1.083   .     S
C1246  C1248   1.393   .     A
C1246  C1254   1.403   .     A
C1247  H1262   1.083   .     S
C1248  H1261   1.083   .     S
C1249  H1260   1.080   .     S
C1249  C1251   1.393   .     A
C1250  C1252   1.396   .     A
C1250  H1259   1.078   .     S
C1251  C1253   1.414   .     A
C1251  C1255   1.415   .     A
C1252  C1254   1.417   .     A
C1252  C1256   1.417   .     A
C1253  C581    1.392   1_556 S
C1255  C608    1.414   1_556 S
N1271  Zn1281  2.009   .     S
N1272  Zn1282  2.009   .     S
O1273  Zn1281  2.001   .     S
O1274  Zn1282  2.001   .     S
O1275  Zn1282  2.000   .     S
O1276  Zn1281  2.000   .     S
O1277  Zn1281  1.946   .     S
O1278  Zn1282  1.946   .     S
O1279  Zn1282  1.899   .     S
O1280  Zn1281  1.899   .     S
O1283  C1284   1.410   .     S
C1284  H1287   1.109   .     S
C1284  H1286   1.114   .     S
C1284  H1285   1.113   .     S
O1288  C1289   1.409   .     S
C1289  H1292   1.109   .     S
C1289  H1290   1.113   .     S
C1289  H1291   1.114   .     S
O1293  H1150   0.992   1_655 S
H1296  O1151   0.992   1_655 S
