data_str_m3_o10_o17_pcu_sym.95
_audit_creation_date              2020-01-03
_audit_creation_method            'Materials Studio'
_symmetry_space_group_name_H-M    'P1'
_symmetry_Int_Tables_number       1
_symmetry_cell_setting            triclinic
loop_
_symmetry_equiv_pos_as_xyz
  x,y,z
_cell_length_a                    23.5187
_cell_length_b                    25.9273
_cell_length_c                    29.8841
_cell_angle_alpha                 92.9131
_cell_angle_beta                  85.2363
_cell_angle_gamma                 93.1698
loop_
_atom_site_label
_atom_site_type_symbol
_atom_site_fract_x
_atom_site_fract_y
_atom_site_fract_z
_atom_site_U_iso_or_equiv
_atom_site_adp_type
_atom_site_occupancy
Br1    Br    0.24840   0.31466   0.45350   0.00000  Uiso   1.00
Br2    Br    0.08493   0.01867   0.04650   0.00000  Uiso   1.00
Br3    Br    0.25360   0.00978   0.28758   0.00000  Uiso   1.00
Br4    Br    0.07973   0.32355   0.21242   0.00000  Uiso   1.00
Br5    Br    0.01379   0.10738   0.19223   0.00000  Uiso   1.00
Br6    Br    0.31954   0.22595   0.30777   0.00000  Uiso   1.00
C7     C     0.18143   0.26471   0.24943   0.00000  Uiso   1.00
C8     C     0.17507   0.21412   0.40807   0.00000  Uiso   1.00
C9     C     0.16585   0.16650   0.11619   0.00000  Uiso   1.00
C10    C     0.16748   0.16684   0.38381   0.00000  Uiso   1.00
C11    C     0.17588   0.21368   0.09520   0.00000  Uiso   1.00
C12    C     0.15745   0.11966   0.40480   0.00000  Uiso   1.00
C13    C     0.18041   0.21283   0.04819   0.00000  Uiso   1.00
C14    C     0.15292   0.12050   0.45181   0.00000  Uiso   1.00
C15    C     0.16619   0.16651   0.02354   0.00000  Uiso   1.00
C16    C     0.16714   0.16682   0.47646   0.00000  Uiso   1.00
C17    C     0.15095   0.12000   0.04585   0.00000  Uiso   1.00
C18    C     0.15190   0.06862   0.25057   0.00000  Uiso   1.00
C19    C     0.18239   0.21333   0.45415   0.00000  Uiso   1.00
C20    C     0.20027   0.25700   0.02535   0.00000  Uiso   1.00
C21    C     0.13306   0.07633   0.47465   0.00000  Uiso   1.00
C22    C     0.16621   0.06916   0.11428   0.00000  Uiso   1.00
C23    C     0.16712   0.26417   0.38572   0.00000  Uiso   1.00
C24    C     0.18261   0.26448   0.12242   0.00000  Uiso   1.00
C25    C     0.15072   0.06885   0.37758   0.00000  Uiso   1.00
C26    C     0.20373   0.25705   0.47900   0.00000  Uiso   1.00
C27    C     0.12960   0.07628   0.02100   0.00000  Uiso   1.00
C28    C     0.18805   0.31884   0.25522   0.00000  Uiso   1.00
C29    C     0.14528   0.01449   0.24478   0.00000  Uiso   1.00
C30    C     0.16709   0.16733   0.33618   0.00000  Uiso   1.00
C31    C     0.16625   0.16600   0.16382   0.00000  Uiso   1.00
C32    C     0.15826   0.11921   0.09193   0.00000  Uiso   1.00
H33    H     0.21578   0.29164   0.04307   0.00000  Uiso   1.00
H34    H     0.17400   0.26099   0.15900   0.00000  Uiso   1.00
H35    H     0.22679   0.28153   0.11665   0.00000  Uiso   1.00
H36    H     0.18196   0.04202   0.38753   0.00000  Uiso   1.00
H37    H     0.10654   0.05180   0.38335   0.00000  Uiso   1.00
H38    H     0.15933   0.07234   0.34100   0.00000  Uiso   1.00
H39    H     0.11756   0.04169   0.45693   0.00000  Uiso   1.00
H40    H     0.19865   0.07409   0.13926   0.00000  Uiso   1.00
H41    H     0.12522   0.05492   0.13157   0.00000  Uiso   1.00
H42    H     0.18374   0.03989   0.08934   0.00000  Uiso   1.00
H43    H     0.13469   0.25925   0.36074   0.00000  Uiso   1.00
H44    H     0.14960   0.29344   0.41066   0.00000  Uiso   1.00
H45    H     0.20811   0.27841   0.36843   0.00000  Uiso   1.00
H46    H     0.15137   0.29131   0.11247   0.00000  Uiso   1.00
N47    N     0.31678   0.15265   0.23783   0.00000  Uiso   1.00
N48    N     0.01656   0.18068   0.26217   0.00000  Uiso   1.00
O49    O     0.12975   0.24619   0.25298   0.00000  Uiso   1.00
O50    O     0.20358   0.08714   0.24701   0.00000  Uiso   1.00
O51    O     0.22613   0.23721   0.24518   0.00000  Uiso   1.00
O52    O     0.10720   0.09613   0.25481   0.00000  Uiso   1.00
O53    O     0.11847   0.17117   0.31997   0.00000  Uiso   1.00
O54    O     0.21486   0.16216   0.18002   0.00000  Uiso   1.00
O55    O     0.21485   0.16219   0.31217   0.00000  Uiso   1.00
O56    O     0.11848   0.17115   0.18782   0.00000  Uiso   1.00
Zn57   Zn    0.10231   0.17266   0.25521   0.00000  Uiso   1.00
Zn58   Zn    0.23102   0.16067   0.24479   0.00000  Uiso   1.00
Br59   Br    0.58174   0.31466   0.45350   0.00000  Uiso   1.00
Br60   Br    0.41826   0.01867   0.04650   0.00000  Uiso   1.00
Br61   Br    0.58694   0.00978   0.28758   0.00000  Uiso   1.00
Br62   Br    0.41306   0.32355   0.21242   0.00000  Uiso   1.00
Br63   Br    0.34713   0.10738   0.19223   0.00000  Uiso   1.00
Br64   Br    0.65287   0.22595   0.30777   0.00000  Uiso   1.00
C65    C     0.51477   0.26471   0.24943   0.00000  Uiso   1.00
C66    C     0.50840   0.21412   0.40807   0.00000  Uiso   1.00
C67    C     0.49918   0.16650   0.11619   0.00000  Uiso   1.00
C68    C     0.50082   0.16684   0.38381   0.00000  Uiso   1.00
C69    C     0.50922   0.21368   0.09520   0.00000  Uiso   1.00
C70    C     0.49078   0.11966   0.40480   0.00000  Uiso   1.00
C71    C     0.51374   0.21283   0.04819   0.00000  Uiso   1.00
C72    C     0.48625   0.12050   0.45181   0.00000  Uiso   1.00
C73    C     0.49952   0.16651   0.02354   0.00000  Uiso   1.00
C74    C     0.50048   0.16682   0.47646   0.00000  Uiso   1.00
C75    C     0.48428   0.12000   0.04585   0.00000  Uiso   1.00
C76    C     0.48523   0.06862   0.25057   0.00000  Uiso   1.00
C77    C     0.51572   0.21333   0.45415   0.00000  Uiso   1.00
C78    C     0.53360   0.25700   0.02535   0.00000  Uiso   1.00
C79    C     0.46640   0.07633   0.47465   0.00000  Uiso   1.00
C80    C     0.49954   0.06916   0.11428   0.00000  Uiso   1.00
C81    C     0.50046   0.26417   0.38572   0.00000  Uiso   1.00
C82    C     0.51594   0.26448   0.12242   0.00000  Uiso   1.00
C83    C     0.48406   0.06885   0.37758   0.00000  Uiso   1.00
C84    C     0.53706   0.25705   0.47900   0.00000  Uiso   1.00
C85    C     0.46293   0.07628   0.02100   0.00000  Uiso   1.00
C86    C     0.52139   0.31884   0.25522   0.00000  Uiso   1.00
C87    C     0.47861   0.01449   0.24478   0.00000  Uiso   1.00
C88    C     0.50042   0.16733   0.33618   0.00000  Uiso   1.00
C89    C     0.49958   0.16600   0.16382   0.00000  Uiso   1.00
C90    C     0.49160   0.11921   0.09193   0.00000  Uiso   1.00
H91    H     0.54911   0.29164   0.04307   0.00000  Uiso   1.00
H92    H     0.50733   0.26099   0.15900   0.00000  Uiso   1.00
H93    H     0.56012   0.28153   0.11665   0.00000  Uiso   1.00
H94    H     0.51529   0.04202   0.38753   0.00000  Uiso   1.00
H95    H     0.43987   0.05180   0.38335   0.00000  Uiso   1.00
H96    H     0.49267   0.07234   0.34100   0.00000  Uiso   1.00
H97    H     0.45089   0.04169   0.45693   0.00000  Uiso   1.00
H98    H     0.53198   0.07409   0.13926   0.00000  Uiso   1.00
H99    H     0.45856   0.05492   0.13157   0.00000  Uiso   1.00
H100   H     0.51707   0.03989   0.08934   0.00000  Uiso   1.00
H101   H     0.46802   0.25925   0.36074   0.00000  Uiso   1.00
H102   H     0.48293   0.29344   0.41066   0.00000  Uiso   1.00
H103   H     0.54144   0.27841   0.36843   0.00000  Uiso   1.00
H104   H     0.48471   0.29131   0.11247   0.00000  Uiso   1.00
N105   N     0.65011   0.15265   0.23783   0.00000  Uiso   1.00
N106   N     0.34989   0.18068   0.26217   0.00000  Uiso   1.00
O107   O     0.46308   0.24619   0.25298   0.00000  Uiso   1.00
O108   O     0.53692   0.08714   0.24701   0.00000  Uiso   1.00
O109   O     0.55946   0.23721   0.24518   0.00000  Uiso   1.00
O110   O     0.44054   0.09613   0.25481   0.00000  Uiso   1.00
O111   O     0.45181   0.17117   0.31997   0.00000  Uiso   1.00
O112   O     0.54819   0.16216   0.18002   0.00000  Uiso   1.00
O113   O     0.54819   0.16219   0.31217   0.00000  Uiso   1.00
O114   O     0.45181   0.17115   0.18782   0.00000  Uiso   1.00
Zn115  Zn    0.43565   0.17266   0.25521   0.00000  Uiso   1.00
Zn116  Zn    0.56435   0.16067   0.24479   0.00000  Uiso   1.00
Br117  Br    0.91507   0.31466   0.45350   0.00000  Uiso   1.00
Br118  Br    0.75159   0.01867   0.04650   0.00000  Uiso   1.00
Br119  Br    0.92027   0.00978   0.28758   0.00000  Uiso   1.00
Br120  Br    0.74640   0.32355   0.21242   0.00000  Uiso   1.00
Br121  Br    0.68046   0.10738   0.19223   0.00000  Uiso   1.00
Br122  Br    0.98620   0.22595   0.30777   0.00000  Uiso   1.00
C123   C     0.84810   0.26471   0.24943   0.00000  Uiso   1.00
C124   C     0.84174   0.21412   0.40807   0.00000  Uiso   1.00
C125   C     0.83252   0.16650   0.11619   0.00000  Uiso   1.00
C126   C     0.83415   0.16684   0.38381   0.00000  Uiso   1.00
C127   C     0.84255   0.21368   0.09520   0.00000  Uiso   1.00
C128   C     0.82412   0.11966   0.40480   0.00000  Uiso   1.00
C129   C     0.84708   0.21283   0.04819   0.00000  Uiso   1.00
C130   C     0.81959   0.12050   0.45181   0.00000  Uiso   1.00
C131   C     0.83285   0.16651   0.02354   0.00000  Uiso   1.00
C132   C     0.83381   0.16682   0.47646   0.00000  Uiso   1.00
C133   C     0.81761   0.12000   0.04585   0.00000  Uiso   1.00
C134   C     0.81857   0.06862   0.25057   0.00000  Uiso   1.00
C135   C     0.84905   0.21333   0.45415   0.00000  Uiso   1.00
C136   C     0.86694   0.25700   0.02535   0.00000  Uiso   1.00
C137   C     0.79973   0.07633   0.47465   0.00000  Uiso   1.00
C138   C     0.83288   0.06916   0.11428   0.00000  Uiso   1.00
C139   C     0.83379   0.26417   0.38572   0.00000  Uiso   1.00
C140   C     0.84928   0.26448   0.12242   0.00000  Uiso   1.00
C141   C     0.81739   0.06885   0.37758   0.00000  Uiso   1.00
C142   C     0.87040   0.25705   0.47900   0.00000  Uiso   1.00
C143   C     0.79627   0.07628   0.02100   0.00000  Uiso   1.00
C144   C     0.85472   0.31884   0.25522   0.00000  Uiso   1.00
C145   C     0.81195   0.01449   0.24478   0.00000  Uiso   1.00
C146   C     0.83375   0.16733   0.33618   0.00000  Uiso   1.00
C147   C     0.83291   0.16600   0.16382   0.00000  Uiso   1.00
C148   C     0.82493   0.11921   0.09193   0.00000  Uiso   1.00
H149   H     0.88244   0.29164   0.04307   0.00000  Uiso   1.00
H150   H     0.84067   0.26099   0.15900   0.00000  Uiso   1.00
H151   H     0.89346   0.28153   0.11665   0.00000  Uiso   1.00
H152   H     0.84863   0.04202   0.38753   0.00000  Uiso   1.00
H153   H     0.77321   0.05180   0.38335   0.00000  Uiso   1.00
H154   H     0.82600   0.07234   0.34100   0.00000  Uiso   1.00
H155   H     0.78422   0.04169   0.45693   0.00000  Uiso   1.00
H156   H     0.86532   0.07409   0.13926   0.00000  Uiso   1.00
H157   H     0.79189   0.05492   0.13157   0.00000  Uiso   1.00
H158   H     0.85040   0.03989   0.08934   0.00000  Uiso   1.00
H159   H     0.80135   0.25925   0.36074   0.00000  Uiso   1.00
H160   H     0.81626   0.29344   0.41066   0.00000  Uiso   1.00
H161   H     0.87478   0.27841   0.36843   0.00000  Uiso   1.00
H162   H     0.81804   0.29131   0.11247   0.00000  Uiso   1.00
N163   N     0.98344   0.15265   0.23783   0.00000  Uiso   1.00
N164   N     0.68322   0.18068   0.26217   0.00000  Uiso   1.00
O165   O     0.79642   0.24619   0.25298   0.00000  Uiso   1.00
O166   O     0.87025   0.08714   0.24701   0.00000  Uiso   1.00
O167   O     0.89280   0.23721   0.24518   0.00000  Uiso   1.00
O168   O     0.77387   0.09613   0.25481   0.00000  Uiso   1.00
O169   O     0.78514   0.17117   0.31997   0.00000  Uiso   1.00
O170   O     0.88153   0.16216   0.18002   0.00000  Uiso   1.00
O171   O     0.88152   0.16219   0.31217   0.00000  Uiso   1.00
O172   O     0.78515   0.17115   0.18782   0.00000  Uiso   1.00
Zn173  Zn    0.76898   0.17266   0.25521   0.00000  Uiso   1.00
Zn174  Zn    0.89769   0.16067   0.24479   0.00000  Uiso   1.00
Br175  Br    0.24840   0.64799   0.45350   0.00000  Uiso   1.00
Br176  Br    0.08493   0.35201   0.04650   0.00000  Uiso   1.00
Br177  Br    0.25360   0.34311   0.28758   0.00000  Uiso   1.00
Br178  Br    0.07973   0.65689   0.21242   0.00000  Uiso   1.00
Br179  Br    0.01379   0.44071   0.19223   0.00000  Uiso   1.00
Br180  Br    0.31954   0.55929   0.30777   0.00000  Uiso   1.00
C181   C     0.18143   0.59805   0.24943   0.00000  Uiso   1.00
C182   C     0.17507   0.54745   0.40807   0.00000  Uiso   1.00
C183   C     0.16585   0.49983   0.11619   0.00000  Uiso   1.00
C184   C     0.16748   0.50017   0.38381   0.00000  Uiso   1.00
C185   C     0.17588   0.54701   0.09520   0.00000  Uiso   1.00
C186   C     0.15745   0.45299   0.40480   0.00000  Uiso   1.00
C187   C     0.18041   0.54616   0.04819   0.00000  Uiso   1.00
C188   C     0.15292   0.45384   0.45181   0.00000  Uiso   1.00
C189   C     0.16619   0.49984   0.02354   0.00000  Uiso   1.00
C190   C     0.16714   0.50016   0.47646   0.00000  Uiso   1.00
C191   C     0.15095   0.45334   0.04585   0.00000  Uiso   1.00
C192   C     0.15190   0.40195   0.25057   0.00000  Uiso   1.00
C193   C     0.18239   0.54666   0.45415   0.00000  Uiso   1.00
C194   C     0.20027   0.59033   0.02535   0.00000  Uiso   1.00
C195   C     0.13306   0.40967   0.47465   0.00000  Uiso   1.00
C196   C     0.16621   0.40249   0.11428   0.00000  Uiso   1.00
C197   C     0.16712   0.59751   0.38572   0.00000  Uiso   1.00
C198   C     0.18261   0.59781   0.12242   0.00000  Uiso   1.00
C199   C     0.15072   0.40219   0.37758   0.00000  Uiso   1.00
C200   C     0.20373   0.59039   0.47900   0.00000  Uiso   1.00
C201   C     0.12960   0.40961   0.02100   0.00000  Uiso   1.00
C202   C     0.18805   0.65217   0.25522   0.00000  Uiso   1.00
C203   C     0.14528   0.34783   0.24478   0.00000  Uiso   1.00
C204   C     0.16709   0.50067   0.33618   0.00000  Uiso   1.00
C205   C     0.16625   0.49933   0.16382   0.00000  Uiso   1.00
C206   C     0.15826   0.45255   0.09193   0.00000  Uiso   1.00
H207   H     0.21578   0.62498   0.04307   0.00000  Uiso   1.00
H208   H     0.17400   0.59433   0.15900   0.00000  Uiso   1.00
H209   H     0.22679   0.61487   0.11665   0.00000  Uiso   1.00
H210   H     0.18196   0.37535   0.38753   0.00000  Uiso   1.00
H211   H     0.10654   0.38513   0.38335   0.00000  Uiso   1.00
H212   H     0.15933   0.40567   0.34100   0.00000  Uiso   1.00
H213   H     0.11756   0.37502   0.45693   0.00000  Uiso   1.00
H214   H     0.19865   0.40742   0.13926   0.00000  Uiso   1.00
H215   H     0.12522   0.38825   0.13157   0.00000  Uiso   1.00
H216   H     0.18374   0.37323   0.08934   0.00000  Uiso   1.00
H217   H     0.13469   0.59258   0.36074   0.00000  Uiso   1.00
H218   H     0.14960   0.62677   0.41066   0.00000  Uiso   1.00
H219   H     0.20811   0.61175   0.36843   0.00000  Uiso   1.00
H220   H     0.15137   0.62465   0.11247   0.00000  Uiso   1.00
N221   N     0.31678   0.48598   0.23783   0.00000  Uiso   1.00
N222   N     0.01656   0.51402   0.26217   0.00000  Uiso   1.00
O223   O     0.12975   0.57952   0.25298   0.00000  Uiso   1.00
O224   O     0.20358   0.42048   0.24701   0.00000  Uiso   1.00
O225   O     0.22613   0.57054   0.24518   0.00000  Uiso   1.00
O226   O     0.10720   0.42946   0.25481   0.00000  Uiso   1.00
O227   O     0.11847   0.50450   0.31997   0.00000  Uiso   1.00
O228   O     0.21486   0.49550   0.18002   0.00000  Uiso   1.00
O229   O     0.21485   0.49552   0.31217   0.00000  Uiso   1.00
O230   O     0.11848   0.50448   0.18782   0.00000  Uiso   1.00
Zn231  Zn    0.10231   0.50600   0.25521   0.00000  Uiso   1.00
Zn232  Zn    0.23102   0.49400   0.24479   0.00000  Uiso   1.00
Br233  Br    0.58174   0.64799   0.45350   0.00000  Uiso   1.00
Br234  Br    0.41826   0.35201   0.04650   0.00000  Uiso   1.00
Br235  Br    0.58694   0.34311   0.28758   0.00000  Uiso   1.00
Br236  Br    0.41306   0.65689   0.21242   0.00000  Uiso   1.00
Br237  Br    0.34713   0.44071   0.19223   0.00000  Uiso   1.00
Br238  Br    0.65287   0.55929   0.30777   0.00000  Uiso   1.00
C239   C     0.51477   0.59805   0.24943   0.00000  Uiso   1.00
C240   C     0.50840   0.54745   0.40807   0.00000  Uiso   1.00
C241   C     0.49918   0.49983   0.11619   0.00000  Uiso   1.00
C242   C     0.50082   0.50017   0.38381   0.00000  Uiso   1.00
C243   C     0.50922   0.54701   0.09520   0.00000  Uiso   1.00
C244   C     0.49078   0.45299   0.40480   0.00000  Uiso   1.00
C245   C     0.51374   0.54616   0.04819   0.00000  Uiso   1.00
C246   C     0.48625   0.45384   0.45181   0.00000  Uiso   1.00
C247   C     0.49952   0.49984   0.02354   0.00000  Uiso   1.00
C248   C     0.50048   0.50016   0.47646   0.00000  Uiso   1.00
C249   C     0.48428   0.45334   0.04585   0.00000  Uiso   1.00
C250   C     0.48523   0.40195   0.25057   0.00000  Uiso   1.00
C251   C     0.51572   0.54666   0.45415   0.00000  Uiso   1.00
C252   C     0.53360   0.59033   0.02535   0.00000  Uiso   1.00
C253   C     0.46640   0.40967   0.47465   0.00000  Uiso   1.00
C254   C     0.49954   0.40249   0.11428   0.00000  Uiso   1.00
C255   C     0.50046   0.59751   0.38572   0.00000  Uiso   1.00
C256   C     0.51594   0.59781   0.12242   0.00000  Uiso   1.00
C257   C     0.48406   0.40219   0.37758   0.00000  Uiso   1.00
C258   C     0.53706   0.59039   0.47900   0.00000  Uiso   1.00
C259   C     0.46293   0.40961   0.02100   0.00000  Uiso   1.00
C260   C     0.52139   0.65217   0.25522   0.00000  Uiso   1.00
C261   C     0.47861   0.34783   0.24478   0.00000  Uiso   1.00
C262   C     0.50042   0.50067   0.33618   0.00000  Uiso   1.00
C263   C     0.49958   0.49933   0.16382   0.00000  Uiso   1.00
C264   C     0.49160   0.45255   0.09193   0.00000  Uiso   1.00
H265   H     0.54911   0.62498   0.04307   0.00000  Uiso   1.00
H266   H     0.50733   0.59433   0.15900   0.00000  Uiso   1.00
H267   H     0.56012   0.61487   0.11665   0.00000  Uiso   1.00
H268   H     0.51529   0.37535   0.38753   0.00000  Uiso   1.00
H269   H     0.43987   0.38513   0.38335   0.00000  Uiso   1.00
H270   H     0.49267   0.40567   0.34100   0.00000  Uiso   1.00
H271   H     0.45089   0.37502   0.45693   0.00000  Uiso   1.00
H272   H     0.53198   0.40742   0.13926   0.00000  Uiso   1.00
H273   H     0.45856   0.38825   0.13157   0.00000  Uiso   1.00
H274   H     0.51707   0.37323   0.08934   0.00000  Uiso   1.00
H275   H     0.46802   0.59258   0.36074   0.00000  Uiso   1.00
H276   H     0.48293   0.62677   0.41066   0.00000  Uiso   1.00
H277   H     0.54144   0.61175   0.36843   0.00000  Uiso   1.00
H278   H     0.48471   0.62465   0.11247   0.00000  Uiso   1.00
N279   N     0.65011   0.48598   0.23783   0.00000  Uiso   1.00
N280   N     0.34989   0.51402   0.26217   0.00000  Uiso   1.00
O281   O     0.46308   0.57952   0.25298   0.00000  Uiso   1.00
O282   O     0.53692   0.42048   0.24701   0.00000  Uiso   1.00
O283   O     0.55946   0.57054   0.24518   0.00000  Uiso   1.00
O284   O     0.44054   0.42946   0.25481   0.00000  Uiso   1.00
O285   O     0.45181   0.50450   0.31997   0.00000  Uiso   1.00
O286   O     0.54819   0.49550   0.18002   0.00000  Uiso   1.00
O287   O     0.54819   0.49552   0.31217   0.00000  Uiso   1.00
O288   O     0.45181   0.50448   0.18782   0.00000  Uiso   1.00
Zn289  Zn    0.43565   0.50600   0.25521   0.00000  Uiso   1.00
Zn290  Zn    0.56435   0.49400   0.24479   0.00000  Uiso   1.00
Br291  Br    0.91507   0.64799   0.45350   0.00000  Uiso   1.00
Br292  Br    0.75159   0.35201   0.04650   0.00000  Uiso   1.00
Br293  Br    0.92027   0.34311   0.28758   0.00000  Uiso   1.00
Br294  Br    0.74640   0.65689   0.21242   0.00000  Uiso   1.00
Br295  Br    0.68046   0.44071   0.19223   0.00000  Uiso   1.00
Br296  Br    0.98620   0.55929   0.30777   0.00000  Uiso   1.00
C297   C     0.84810   0.59805   0.24943   0.00000  Uiso   1.00
C298   C     0.84174   0.54745   0.40807   0.00000  Uiso   1.00
C299   C     0.83252   0.49983   0.11619   0.00000  Uiso   1.00
C300   C     0.83415   0.50017   0.38381   0.00000  Uiso   1.00
C301   C     0.84255   0.54701   0.09520   0.00000  Uiso   1.00
C302   C     0.82412   0.45299   0.40480   0.00000  Uiso   1.00
C303   C     0.84708   0.54616   0.04819   0.00000  Uiso   1.00
C304   C     0.81959   0.45384   0.45181   0.00000  Uiso   1.00
C305   C     0.83285   0.49984   0.02354   0.00000  Uiso   1.00
C306   C     0.83381   0.50016   0.47646   0.00000  Uiso   1.00
C307   C     0.81761   0.45334   0.04585   0.00000  Uiso   1.00
C308   C     0.81857   0.40195   0.25057   0.00000  Uiso   1.00
C309   C     0.84905   0.54666   0.45415   0.00000  Uiso   1.00
C310   C     0.86694   0.59033   0.02535   0.00000  Uiso   1.00
C311   C     0.79973   0.40967   0.47465   0.00000  Uiso   1.00
C312   C     0.83288   0.40249   0.11428   0.00000  Uiso   1.00
C313   C     0.83379   0.59751   0.38572   0.00000  Uiso   1.00
C314   C     0.84928   0.59781   0.12242   0.00000  Uiso   1.00
C315   C     0.81739   0.40219   0.37758   0.00000  Uiso   1.00
C316   C     0.87040   0.59039   0.47900   0.00000  Uiso   1.00
C317   C     0.79627   0.40961   0.02100   0.00000  Uiso   1.00
C318   C     0.85472   0.65217   0.25522   0.00000  Uiso   1.00
C319   C     0.81195   0.34783   0.24478   0.00000  Uiso   1.00
C320   C     0.83375   0.50067   0.33618   0.00000  Uiso   1.00
C321   C     0.83291   0.49933   0.16382   0.00000  Uiso   1.00
C322   C     0.82493   0.45255   0.09193   0.00000  Uiso   1.00
H323   H     0.88244   0.62498   0.04307   0.00000  Uiso   1.00
H324   H     0.84067   0.59433   0.15900   0.00000  Uiso   1.00
H325   H     0.89346   0.61487   0.11665   0.00000  Uiso   1.00
H326   H     0.84863   0.37535   0.38753   0.00000  Uiso   1.00
H327   H     0.77321   0.38513   0.38335   0.00000  Uiso   1.00
H328   H     0.82600   0.40567   0.34100   0.00000  Uiso   1.00
H329   H     0.78422   0.37502   0.45693   0.00000  Uiso   1.00
H330   H     0.86532   0.40742   0.13926   0.00000  Uiso   1.00
H331   H     0.79189   0.38825   0.13157   0.00000  Uiso   1.00
H332   H     0.85040   0.37323   0.08934   0.00000  Uiso   1.00
H333   H     0.80135   0.59258   0.36074   0.00000  Uiso   1.00
H334   H     0.81626   0.62677   0.41066   0.00000  Uiso   1.00
H335   H     0.87478   0.61175   0.36843   0.00000  Uiso   1.00
H336   H     0.81804   0.62465   0.11247   0.00000  Uiso   1.00
N337   N     0.98344   0.48598   0.23783   0.00000  Uiso   1.00
N338   N     0.68322   0.51402   0.26217   0.00000  Uiso   1.00
O339   O     0.79642   0.57952   0.25298   0.00000  Uiso   1.00
O340   O     0.87025   0.42048   0.24701   0.00000  Uiso   1.00
O341   O     0.89280   0.57054   0.24518   0.00000  Uiso   1.00
O342   O     0.77387   0.42946   0.25481   0.00000  Uiso   1.00
O343   O     0.78514   0.50450   0.31997   0.00000  Uiso   1.00
O344   O     0.88153   0.49550   0.18002   0.00000  Uiso   1.00
O345   O     0.88152   0.49552   0.31217   0.00000  Uiso   1.00
O346   O     0.78515   0.50448   0.18782   0.00000  Uiso   1.00
Zn347  Zn    0.76898   0.50600   0.25521   0.00000  Uiso   1.00
Zn348  Zn    0.89769   0.49400   0.24479   0.00000  Uiso   1.00
Br349  Br    0.24840   0.98133   0.45350   0.00000  Uiso   1.00
Br350  Br    0.08493   0.68534   0.04650   0.00000  Uiso   1.00
Br351  Br    0.25360   0.67645   0.28758   0.00000  Uiso   1.00
Br352  Br    0.07973   0.99022   0.21242   0.00000  Uiso   1.00
Br353  Br    0.01379   0.77405   0.19223   0.00000  Uiso   1.00
Br354  Br    0.31954   0.89262   0.30777   0.00000  Uiso   1.00
C355   C     0.18143   0.93138   0.24943   0.00000  Uiso   1.00
C356   C     0.17507   0.88079   0.40807   0.00000  Uiso   1.00
C357   C     0.16585   0.83316   0.11619   0.00000  Uiso   1.00
C358   C     0.16748   0.83350   0.38381   0.00000  Uiso   1.00
C359   C     0.17588   0.88034   0.09520   0.00000  Uiso   1.00
C360   C     0.15745   0.78632   0.40480   0.00000  Uiso   1.00
C361   C     0.18041   0.87950   0.04819   0.00000  Uiso   1.00
C362   C     0.15292   0.78717   0.45181   0.00000  Uiso   1.00
C363   C     0.16619   0.83318   0.02354   0.00000  Uiso   1.00
C364   C     0.16714   0.83349   0.47646   0.00000  Uiso   1.00
C365   C     0.15095   0.78667   0.04585   0.00000  Uiso   1.00
C366   C     0.15190   0.73529   0.25057   0.00000  Uiso   1.00
C367   C     0.18239   0.88000   0.45415   0.00000  Uiso   1.00
C368   C     0.20027   0.92367   0.02535   0.00000  Uiso   1.00
C369   C     0.13306   0.74300   0.47465   0.00000  Uiso   1.00
C370   C     0.16621   0.73583   0.11428   0.00000  Uiso   1.00
C371   C     0.16712   0.93084   0.38572   0.00000  Uiso   1.00
C372   C     0.18261   0.93115   0.12242   0.00000  Uiso   1.00
C373   C     0.15072   0.73552   0.37758   0.00000  Uiso   1.00
C374   C     0.20373   0.92372   0.47900   0.00000  Uiso   1.00
C375   C     0.12960   0.74295   0.02100   0.00000  Uiso   1.00
C376   C     0.18805   0.98551   0.25522   0.00000  Uiso   1.00
C377   C     0.14528   0.68116   0.24478   0.00000  Uiso   1.00
C378   C     0.16709   0.83400   0.33618   0.00000  Uiso   1.00
C379   C     0.16625   0.83267   0.16382   0.00000  Uiso   1.00
C380   C     0.15826   0.78588   0.09193   0.00000  Uiso   1.00
H381   H     0.21578   0.95831   0.04307   0.00000  Uiso   1.00
H382   H     0.17400   0.92766   0.15900   0.00000  Uiso   1.00
H383   H     0.22679   0.94820   0.11665   0.00000  Uiso   1.00
H384   H     0.18196   0.70869   0.38753   0.00000  Uiso   1.00
H385   H     0.10654   0.71847   0.38335   0.00000  Uiso   1.00
H386   H     0.15933   0.73901   0.34100   0.00000  Uiso   1.00
H387   H     0.11756   0.70836   0.45693   0.00000  Uiso   1.00
H388   H     0.19865   0.74075   0.13926   0.00000  Uiso   1.00
H389   H     0.12522   0.72159   0.13157   0.00000  Uiso   1.00
H390   H     0.18374   0.70656   0.08934   0.00000  Uiso   1.00
H391   H     0.13469   0.92591   0.36074   0.00000  Uiso   1.00
H392   H     0.14960   0.96011   0.41066   0.00000  Uiso   1.00
H393   H     0.20811   0.94508   0.36843   0.00000  Uiso   1.00
H394   H     0.15137   0.95798   0.11247   0.00000  Uiso   1.00
N395   N     0.31678   0.81932   0.23783   0.00000  Uiso   1.00
N396   N     0.01656   0.84735   0.26217   0.00000  Uiso   1.00
O397   O     0.12975   0.91286   0.25298   0.00000  Uiso   1.00
O398   O     0.20358   0.75381   0.24701   0.00000  Uiso   1.00
O399   O     0.22613   0.90387   0.24518   0.00000  Uiso   1.00
O400   O     0.10720   0.76279   0.25481   0.00000  Uiso   1.00
O401   O     0.11847   0.83784   0.31997   0.00000  Uiso   1.00
O402   O     0.21486   0.82883   0.18002   0.00000  Uiso   1.00
O403   O     0.21485   0.82885   0.31217   0.00000  Uiso   1.00
O404   O     0.11848   0.83781   0.18782   0.00000  Uiso   1.00
Zn405  Zn    0.10231   0.83933   0.25521   0.00000  Uiso   1.00
Zn406  Zn    0.23102   0.82734   0.24479   0.00000  Uiso   1.00
Br407  Br    0.58174   0.98133   0.45350   0.00000  Uiso   1.00
Br408  Br    0.41826   0.68534   0.04650   0.00000  Uiso   1.00
Br409  Br    0.58694   0.67645   0.28758   0.00000  Uiso   1.00
Br410  Br    0.41306   0.99022   0.21242   0.00000  Uiso   1.00
Br411  Br    0.34713   0.77405   0.19223   0.00000  Uiso   1.00
Br412  Br    0.65287   0.89262   0.30777   0.00000  Uiso   1.00
C413   C     0.51477   0.93138   0.24943   0.00000  Uiso   1.00
C414   C     0.50840   0.88079   0.40807   0.00000  Uiso   1.00
C415   C     0.49918   0.83316   0.11619   0.00000  Uiso   1.00
C416   C     0.50082   0.83350   0.38381   0.00000  Uiso   1.00
C417   C     0.50922   0.88034   0.09520   0.00000  Uiso   1.00
C418   C     0.49078   0.78632   0.40480   0.00000  Uiso   1.00
C419   C     0.51374   0.87950   0.04819   0.00000  Uiso   1.00
C420   C     0.48625   0.78717   0.45181   0.00000  Uiso   1.00
C421   C     0.49952   0.83318   0.02354   0.00000  Uiso   1.00
C422   C     0.50048   0.83349   0.47646   0.00000  Uiso   1.00
C423   C     0.48428   0.78667   0.04585   0.00000  Uiso   1.00
C424   C     0.48523   0.73529   0.25057   0.00000  Uiso   1.00
C425   C     0.51572   0.88000   0.45415   0.00000  Uiso   1.00
C426   C     0.53360   0.92367   0.02535   0.00000  Uiso   1.00
C427   C     0.46640   0.74300   0.47465   0.00000  Uiso   1.00
C428   C     0.49954   0.73583   0.11428   0.00000  Uiso   1.00
C429   C     0.50046   0.93084   0.38572   0.00000  Uiso   1.00
C430   C     0.51594   0.93115   0.12242   0.00000  Uiso   1.00
C431   C     0.48406   0.73552   0.37758   0.00000  Uiso   1.00
C432   C     0.53706   0.92372   0.47900   0.00000  Uiso   1.00
C433   C     0.46293   0.74295   0.02100   0.00000  Uiso   1.00
C434   C     0.52139   0.98551   0.25522   0.00000  Uiso   1.00
C435   C     0.47861   0.68116   0.24478   0.00000  Uiso   1.00
C436   C     0.50042   0.83400   0.33618   0.00000  Uiso   1.00
C437   C     0.49958   0.83267   0.16382   0.00000  Uiso   1.00
C438   C     0.49160   0.78588   0.09193   0.00000  Uiso   1.00
H439   H     0.54911   0.95831   0.04307   0.00000  Uiso   1.00
H440   H     0.50733   0.92766   0.15900   0.00000  Uiso   1.00
H441   H     0.56012   0.94820   0.11665   0.00000  Uiso   1.00
H442   H     0.51529   0.70869   0.38753   0.00000  Uiso   1.00
H443   H     0.43987   0.71847   0.38335   0.00000  Uiso   1.00
H444   H     0.49267   0.73901   0.34100   0.00000  Uiso   1.00
H445   H     0.45089   0.70836   0.45693   0.00000  Uiso   1.00
H446   H     0.53198   0.74075   0.13926   0.00000  Uiso   1.00
H447   H     0.45856   0.72159   0.13157   0.00000  Uiso   1.00
H448   H     0.51707   0.70656   0.08934   0.00000  Uiso   1.00
H449   H     0.46802   0.92591   0.36074   0.00000  Uiso   1.00
H450   H     0.48293   0.96011   0.41066   0.00000  Uiso   1.00
H451   H     0.54144   0.94508   0.36843   0.00000  Uiso   1.00
H452   H     0.48471   0.95798   0.11247   0.00000  Uiso   1.00
N453   N     0.65011   0.81932   0.23783   0.00000  Uiso   1.00
N454   N     0.34989   0.84735   0.26217   0.00000  Uiso   1.00
O455   O     0.46308   0.91286   0.25298   0.00000  Uiso   1.00
O456   O     0.53692   0.75381   0.24701   0.00000  Uiso   1.00
O457   O     0.55946   0.90387   0.24518   0.00000  Uiso   1.00
O458   O     0.44054   0.76279   0.25481   0.00000  Uiso   1.00
O459   O     0.45181   0.83784   0.31997   0.00000  Uiso   1.00
O460   O     0.54819   0.82883   0.18002   0.00000  Uiso   1.00
O461   O     0.54819   0.82885   0.31217   0.00000  Uiso   1.00
O462   O     0.45181   0.83781   0.18782   0.00000  Uiso   1.00
Zn463  Zn    0.43565   0.83933   0.25521   0.00000  Uiso   1.00
Zn464  Zn    0.56435   0.82734   0.24479   0.00000  Uiso   1.00
Br465  Br    0.91507   0.98133   0.45350   0.00000  Uiso   1.00
Br466  Br    0.75159   0.68534   0.04650   0.00000  Uiso   1.00
Br467  Br    0.92027   0.67645   0.28758   0.00000  Uiso   1.00
Br468  Br    0.74640   0.99022   0.21242   0.00000  Uiso   1.00
Br469  Br    0.68046   0.77405   0.19223   0.00000  Uiso   1.00
Br470  Br    0.98620   0.89262   0.30777   0.00000  Uiso   1.00
C471   C     0.84810   0.93138   0.24943   0.00000  Uiso   1.00
C472   C     0.84174   0.88079   0.40807   0.00000  Uiso   1.00
C473   C     0.83252   0.83316   0.11619   0.00000  Uiso   1.00
C474   C     0.83415   0.83350   0.38381   0.00000  Uiso   1.00
C475   C     0.84255   0.88034   0.09520   0.00000  Uiso   1.00
C476   C     0.82412   0.78632   0.40480   0.00000  Uiso   1.00
C477   C     0.84708   0.87950   0.04819   0.00000  Uiso   1.00
C478   C     0.81959   0.78717   0.45181   0.00000  Uiso   1.00
C479   C     0.83285   0.83318   0.02354   0.00000  Uiso   1.00
C480   C     0.83381   0.83349   0.47646   0.00000  Uiso   1.00
C481   C     0.81761   0.78667   0.04585   0.00000  Uiso   1.00
C482   C     0.81857   0.73529   0.25057   0.00000  Uiso   1.00
C483   C     0.84905   0.88000   0.45415   0.00000  Uiso   1.00
C484   C     0.86694   0.92367   0.02535   0.00000  Uiso   1.00
C485   C     0.79973   0.74300   0.47465   0.00000  Uiso   1.00
C486   C     0.83288   0.73583   0.11428   0.00000  Uiso   1.00
C487   C     0.83379   0.93084   0.38572   0.00000  Uiso   1.00
C488   C     0.84928   0.93115   0.12242   0.00000  Uiso   1.00
C489   C     0.81739   0.73552   0.37758   0.00000  Uiso   1.00
C490   C     0.87040   0.92372   0.47900   0.00000  Uiso   1.00
C491   C     0.79627   0.74295   0.02100   0.00000  Uiso   1.00
C492   C     0.85472   0.98551   0.25522   0.00000  Uiso   1.00
C493   C     0.81195   0.68116   0.24478   0.00000  Uiso   1.00
C494   C     0.83375   0.83400   0.33618   0.00000  Uiso   1.00
C495   C     0.83291   0.83267   0.16382   0.00000  Uiso   1.00
C496   C     0.82493   0.78588   0.09193   0.00000  Uiso   1.00
H497   H     0.88244   0.95831   0.04307   0.00000  Uiso   1.00
H498   H     0.84067   0.92766   0.15900   0.00000  Uiso   1.00
H499   H     0.89346   0.94820   0.11665   0.00000  Uiso   1.00
H500   H     0.84863   0.70869   0.38753   0.00000  Uiso   1.00
H501   H     0.77321   0.71847   0.38335   0.00000  Uiso   1.00
H502   H     0.82600   0.73901   0.34100   0.00000  Uiso   1.00
H503   H     0.78422   0.70836   0.45693   0.00000  Uiso   1.00
H504   H     0.86532   0.74075   0.13926   0.00000  Uiso   1.00
H505   H     0.79189   0.72159   0.13157   0.00000  Uiso   1.00
H506   H     0.85040   0.70656   0.08934   0.00000  Uiso   1.00
H507   H     0.80135   0.92591   0.36074   0.00000  Uiso   1.00
H508   H     0.81626   0.96011   0.41066   0.00000  Uiso   1.00
H509   H     0.87478   0.94508   0.36843   0.00000  Uiso   1.00
H510   H     0.81804   0.95798   0.11247   0.00000  Uiso   1.00
N511   N     0.98344   0.81932   0.23783   0.00000  Uiso   1.00
N512   N     0.68322   0.84735   0.26217   0.00000  Uiso   1.00
O513   O     0.79642   0.91286   0.25298   0.00000  Uiso   1.00
O514   O     0.87025   0.75381   0.24701   0.00000  Uiso   1.00
O515   O     0.89280   0.90387   0.24518   0.00000  Uiso   1.00
O516   O     0.77387   0.76279   0.25481   0.00000  Uiso   1.00
O517   O     0.78514   0.83784   0.31997   0.00000  Uiso   1.00
O518   O     0.88153   0.82883   0.18002   0.00000  Uiso   1.00
O519   O     0.88152   0.82885   0.31217   0.00000  Uiso   1.00
O520   O     0.78515   0.83781   0.18782   0.00000  Uiso   1.00
Zn521  Zn    0.76898   0.83933   0.25521   0.00000  Uiso   1.00
Zn522  Zn    0.89769   0.82734   0.24479   0.00000  Uiso   1.00
Br523  Br    0.24840   0.31466   0.95350   0.00000  Uiso   1.00
Br524  Br    0.08493   0.01867   0.54650   0.00000  Uiso   1.00
Br525  Br    0.25360   0.00978   0.78758   0.00000  Uiso   1.00
Br526  Br    0.07973   0.32355   0.71242   0.00000  Uiso   1.00
Br527  Br    0.01379   0.10738   0.69223   0.00000  Uiso   1.00
Br528  Br    0.31954   0.22595   0.80777   0.00000  Uiso   1.00
C529   C     0.18143   0.26471   0.74943   0.00000  Uiso   1.00
C530   C     0.17507   0.21412   0.90807   0.00000  Uiso   1.00
C531   C     0.16585   0.16650   0.61619   0.00000  Uiso   1.00
C532   C     0.16748   0.16684   0.88381   0.00000  Uiso   1.00
C533   C     0.17588   0.21368   0.59520   0.00000  Uiso   1.00
C534   C     0.15745   0.11966   0.90480   0.00000  Uiso   1.00
C535   C     0.18041   0.21283   0.54819   0.00000  Uiso   1.00
C536   C     0.15292   0.12050   0.95181   0.00000  Uiso   1.00
C537   C     0.16619   0.16651   0.52354   0.00000  Uiso   1.00
C538   C     0.16714   0.16682   0.97646   0.00000  Uiso   1.00
C539   C     0.15095   0.12000   0.54585   0.00000  Uiso   1.00
C540   C     0.15190   0.06862   0.75057   0.00000  Uiso   1.00
C541   C     0.18239   0.21333   0.95415   0.00000  Uiso   1.00
C542   C     0.20027   0.25700   0.52535   0.00000  Uiso   1.00
C543   C     0.13306   0.07633   0.97465   0.00000  Uiso   1.00
C544   C     0.16621   0.06916   0.61428   0.00000  Uiso   1.00
C545   C     0.16712   0.26417   0.88572   0.00000  Uiso   1.00
C546   C     0.18261   0.26448   0.62242   0.00000  Uiso   1.00
C547   C     0.15072   0.06885   0.87758   0.00000  Uiso   1.00
C548   C     0.20373   0.25705   0.97900   0.00000  Uiso   1.00
C549   C     0.12960   0.07628   0.52100   0.00000  Uiso   1.00
C550   C     0.18805   0.31884   0.75522   0.00000  Uiso   1.00
C551   C     0.14528   0.01449   0.74478   0.00000  Uiso   1.00
C552   C     0.16709   0.16733   0.83618   0.00000  Uiso   1.00
C553   C     0.16625   0.16600   0.66382   0.00000  Uiso   1.00
C554   C     0.15826   0.11921   0.59193   0.00000  Uiso   1.00
H555   H     0.21578   0.29164   0.54307   0.00000  Uiso   1.00
H556   H     0.17400   0.26099   0.65900   0.00000  Uiso   1.00
H557   H     0.22679   0.28153   0.61665   0.00000  Uiso   1.00
H558   H     0.18196   0.04202   0.88753   0.00000  Uiso   1.00
H559   H     0.10654   0.05180   0.88335   0.00000  Uiso   1.00
H560   H     0.15933   0.07234   0.84100   0.00000  Uiso   1.00
H561   H     0.11756   0.04169   0.95693   0.00000  Uiso   1.00
H562   H     0.19865   0.07409   0.63926   0.00000  Uiso   1.00
H563   H     0.12522   0.05492   0.63157   0.00000  Uiso   1.00
H564   H     0.18374   0.03989   0.58934   0.00000  Uiso   1.00
H565   H     0.13469   0.25925   0.86074   0.00000  Uiso   1.00
H566   H     0.14960   0.29344   0.91066   0.00000  Uiso   1.00
H567   H     0.20811   0.27841   0.86843   0.00000  Uiso   1.00
H568   H     0.15137   0.29131   0.61247   0.00000  Uiso   1.00
N569   N     0.31678   0.15265   0.73783   0.00000  Uiso   1.00
N570   N     0.01656   0.18068   0.76217   0.00000  Uiso   1.00
O571   O     0.12975   0.24619   0.75298   0.00000  Uiso   1.00
O572   O     0.20358   0.08714   0.74701   0.00000  Uiso   1.00
O573   O     0.22613   0.23721   0.74518   0.00000  Uiso   1.00
O574   O     0.10720   0.09613   0.75481   0.00000  Uiso   1.00
O575   O     0.11847   0.17117   0.81997   0.00000  Uiso   1.00
O576   O     0.21486   0.16216   0.68002   0.00000  Uiso   1.00
O577   O     0.21485   0.16219   0.81217   0.00000  Uiso   1.00
O578   O     0.11848   0.17115   0.68782   0.00000  Uiso   1.00
Zn579  Zn    0.10231   0.17266   0.75521   0.00000  Uiso   1.00
Zn580  Zn    0.23102   0.16067   0.74479   0.00000  Uiso   1.00
Br581  Br    0.58174   0.31466   0.95350   0.00000  Uiso   1.00
Br582  Br    0.41826   0.01867   0.54650   0.00000  Uiso   1.00
Br583  Br    0.58694   0.00978   0.78758   0.00000  Uiso   1.00
Br584  Br    0.41306   0.32355   0.71242   0.00000  Uiso   1.00
Br585  Br    0.34713   0.10738   0.69223   0.00000  Uiso   1.00
Br586  Br    0.65287   0.22595   0.80777   0.00000  Uiso   1.00
C587   C     0.51477   0.26471   0.74943   0.00000  Uiso   1.00
C588   C     0.50840   0.21412   0.90807   0.00000  Uiso   1.00
C589   C     0.49918   0.16650   0.61619   0.00000  Uiso   1.00
C590   C     0.50082   0.16684   0.88381   0.00000  Uiso   1.00
C591   C     0.50922   0.21368   0.59520   0.00000  Uiso   1.00
C592   C     0.49078   0.11966   0.90480   0.00000  Uiso   1.00
C593   C     0.51374   0.21283   0.54819   0.00000  Uiso   1.00
C594   C     0.48625   0.12050   0.95181   0.00000  Uiso   1.00
C595   C     0.49952   0.16651   0.52354   0.00000  Uiso   1.00
C596   C     0.50048   0.16682   0.97646   0.00000  Uiso   1.00
C597   C     0.48428   0.12000   0.54585   0.00000  Uiso   1.00
C598   C     0.48523   0.06862   0.75057   0.00000  Uiso   1.00
C599   C     0.51572   0.21333   0.95415   0.00000  Uiso   1.00
C600   C     0.53360   0.25700   0.52535   0.00000  Uiso   1.00
C601   C     0.46640   0.07633   0.97465   0.00000  Uiso   1.00
C602   C     0.49954   0.06916   0.61428   0.00000  Uiso   1.00
C603   C     0.50046   0.26417   0.88572   0.00000  Uiso   1.00
C604   C     0.51594   0.26448   0.62242   0.00000  Uiso   1.00
C605   C     0.48406   0.06885   0.87758   0.00000  Uiso   1.00
C606   C     0.53706   0.25705   0.97900   0.00000  Uiso   1.00
C607   C     0.46293   0.07628   0.52100   0.00000  Uiso   1.00
C608   C     0.52139   0.31884   0.75522   0.00000  Uiso   1.00
C609   C     0.47861   0.01449   0.74478   0.00000  Uiso   1.00
C610   C     0.50042   0.16733   0.83618   0.00000  Uiso   1.00
C611   C     0.49958   0.16600   0.66382   0.00000  Uiso   1.00
C612   C     0.49160   0.11921   0.59193   0.00000  Uiso   1.00
H613   H     0.54911   0.29164   0.54307   0.00000  Uiso   1.00
H614   H     0.50733   0.26099   0.65900   0.00000  Uiso   1.00
H615   H     0.56012   0.28153   0.61665   0.00000  Uiso   1.00
H616   H     0.51529   0.04202   0.88753   0.00000  Uiso   1.00
H617   H     0.43987   0.05180   0.88335   0.00000  Uiso   1.00
H618   H     0.49267   0.07234   0.84100   0.00000  Uiso   1.00
H619   H     0.45089   0.04169   0.95693   0.00000  Uiso   1.00
H620   H     0.53198   0.07409   0.63926   0.00000  Uiso   1.00
H621   H     0.45856   0.05492   0.63157   0.00000  Uiso   1.00
H622   H     0.51707   0.03989   0.58934   0.00000  Uiso   1.00
H623   H     0.46802   0.25925   0.86074   0.00000  Uiso   1.00
H624   H     0.48293   0.29344   0.91066   0.00000  Uiso   1.00
H625   H     0.54144   0.27841   0.86843   0.00000  Uiso   1.00
H626   H     0.48471   0.29131   0.61247   0.00000  Uiso   1.00
N627   N     0.65011   0.15265   0.73783   0.00000  Uiso   1.00
N628   N     0.34989   0.18068   0.76217   0.00000  Uiso   1.00
O629   O     0.46308   0.24619   0.75298   0.00000  Uiso   1.00
O630   O     0.53692   0.08714   0.74701   0.00000  Uiso   1.00
O631   O     0.55946   0.23721   0.74518   0.00000  Uiso   1.00
O632   O     0.44054   0.09613   0.75481   0.00000  Uiso   1.00
O633   O     0.45181   0.17117   0.81997   0.00000  Uiso   1.00
O634   O     0.54819   0.16216   0.68002   0.00000  Uiso   1.00
O635   O     0.54819   0.16219   0.81217   0.00000  Uiso   1.00
O636   O     0.45181   0.17115   0.68782   0.00000  Uiso   1.00
Zn637  Zn    0.43565   0.17266   0.75521   0.00000  Uiso   1.00
Zn638  Zn    0.56435   0.16067   0.74479   0.00000  Uiso   1.00
Br639  Br    0.91507   0.31466   0.95350   0.00000  Uiso   1.00
Br640  Br    0.75159   0.01867   0.54650   0.00000  Uiso   1.00
Br641  Br    0.92027   0.00978   0.78758   0.00000  Uiso   1.00
Br642  Br    0.74640   0.32355   0.71242   0.00000  Uiso   1.00
Br643  Br    0.68046   0.10738   0.69223   0.00000  Uiso   1.00
Br644  Br    0.98620   0.22595   0.80777   0.00000  Uiso   1.00
C645   C     0.84810   0.26471   0.74943   0.00000  Uiso   1.00
C646   C     0.84174   0.21412   0.90807   0.00000  Uiso   1.00
C647   C     0.83252   0.16650   0.61619   0.00000  Uiso   1.00
C648   C     0.83415   0.16684   0.88381   0.00000  Uiso   1.00
C649   C     0.84255   0.21368   0.59520   0.00000  Uiso   1.00
C650   C     0.82412   0.11966   0.90480   0.00000  Uiso   1.00
C651   C     0.84708   0.21283   0.54819   0.00000  Uiso   1.00
C652   C     0.81959   0.12050   0.95181   0.00000  Uiso   1.00
C653   C     0.83285   0.16651   0.52354   0.00000  Uiso   1.00
C654   C     0.83381   0.16682   0.97646   0.00000  Uiso   1.00
C655   C     0.81761   0.12000   0.54585   0.00000  Uiso   1.00
C656   C     0.81857   0.06862   0.75057   0.00000  Uiso   1.00
C657   C     0.84905   0.21333   0.95415   0.00000  Uiso   1.00
C658   C     0.86694   0.25700   0.52535   0.00000  Uiso   1.00
C659   C     0.79973   0.07633   0.97465   0.00000  Uiso   1.00
C660   C     0.83288   0.06916   0.61428   0.00000  Uiso   1.00
C661   C     0.83379   0.26417   0.88572   0.00000  Uiso   1.00
C662   C     0.84928   0.26448   0.62242   0.00000  Uiso   1.00
C663   C     0.81739   0.06885   0.87758   0.00000  Uiso   1.00
C664   C     0.87040   0.25705   0.97900   0.00000  Uiso   1.00
C665   C     0.79627   0.07628   0.52100   0.00000  Uiso   1.00
C666   C     0.85472   0.31884   0.75522   0.00000  Uiso   1.00
C667   C     0.81195   0.01449   0.74478   0.00000  Uiso   1.00
C668   C     0.83375   0.16733   0.83618   0.00000  Uiso   1.00
C669   C     0.83291   0.16600   0.66382   0.00000  Uiso   1.00
C670   C     0.82493   0.11921   0.59193   0.00000  Uiso   1.00
H671   H     0.88244   0.29164   0.54307   0.00000  Uiso   1.00
H672   H     0.84067   0.26099   0.65900   0.00000  Uiso   1.00
H673   H     0.89346   0.28153   0.61665   0.00000  Uiso   1.00
H674   H     0.84863   0.04202   0.88753   0.00000  Uiso   1.00
H675   H     0.77321   0.05180   0.88335   0.00000  Uiso   1.00
H676   H     0.82600   0.07234   0.84100   0.00000  Uiso   1.00
H677   H     0.78422   0.04169   0.95693   0.00000  Uiso   1.00
H678   H     0.86532   0.07409   0.63926   0.00000  Uiso   1.00
H679   H     0.79189   0.05492   0.63157   0.00000  Uiso   1.00
H680   H     0.85040   0.03989   0.58934   0.00000  Uiso   1.00
H681   H     0.80135   0.25925   0.86074   0.00000  Uiso   1.00
H682   H     0.81626   0.29344   0.91066   0.00000  Uiso   1.00
H683   H     0.87478   0.27841   0.86843   0.00000  Uiso   1.00
H684   H     0.81804   0.29131   0.61247   0.00000  Uiso   1.00
N685   N     0.98344   0.15265   0.73783   0.00000  Uiso   1.00
N686   N     0.68322   0.18068   0.76217   0.00000  Uiso   1.00
O687   O     0.79642   0.24619   0.75298   0.00000  Uiso   1.00
O688   O     0.87025   0.08714   0.74701   0.00000  Uiso   1.00
O689   O     0.89280   0.23721   0.74518   0.00000  Uiso   1.00
O690   O     0.77387   0.09613   0.75481   0.00000  Uiso   1.00
O691   O     0.78514   0.17117   0.81997   0.00000  Uiso   1.00
O692   O     0.88153   0.16216   0.68002   0.00000  Uiso   1.00
O693   O     0.88152   0.16219   0.81217   0.00000  Uiso   1.00
O694   O     0.78515   0.17115   0.68782   0.00000  Uiso   1.00
Zn695  Zn    0.76898   0.17266   0.75521   0.00000  Uiso   1.00
Zn696  Zn    0.89769   0.16067   0.74479   0.00000  Uiso   1.00
Br697  Br    0.24840   0.64799   0.95350   0.00000  Uiso   1.00
Br698  Br    0.08493   0.35201   0.54650   0.00000  Uiso   1.00
Br699  Br    0.25360   0.34311   0.78758   0.00000  Uiso   1.00
Br700  Br    0.07973   0.65689   0.71242   0.00000  Uiso   1.00
Br701  Br    0.01379   0.44071   0.69223   0.00000  Uiso   1.00
Br702  Br    0.31954   0.55929   0.80777   0.00000  Uiso   1.00
C703   C     0.18143   0.59805   0.74943   0.00000  Uiso   1.00
C704   C     0.17507   0.54745   0.90807   0.00000  Uiso   1.00
C705   C     0.16585   0.49983   0.61619   0.00000  Uiso   1.00
C706   C     0.16748   0.50017   0.88381   0.00000  Uiso   1.00
C707   C     0.17588   0.54701   0.59520   0.00000  Uiso   1.00
C708   C     0.15745   0.45299   0.90480   0.00000  Uiso   1.00
C709   C     0.18041   0.54616   0.54819   0.00000  Uiso   1.00
C710   C     0.15292   0.45384   0.95181   0.00000  Uiso   1.00
C711   C     0.16619   0.49984   0.52354   0.00000  Uiso   1.00
C712   C     0.16714   0.50016   0.97646   0.00000  Uiso   1.00
C713   C     0.15095   0.45334   0.54585   0.00000  Uiso   1.00
C714   C     0.15190   0.40195   0.75057   0.00000  Uiso   1.00
C715   C     0.18239   0.54666   0.95415   0.00000  Uiso   1.00
C716   C     0.20027   0.59033   0.52535   0.00000  Uiso   1.00
C717   C     0.13306   0.40967   0.97465   0.00000  Uiso   1.00
C718   C     0.16621   0.40249   0.61428   0.00000  Uiso   1.00
C719   C     0.16712   0.59751   0.88572   0.00000  Uiso   1.00
C720   C     0.18261   0.59781   0.62242   0.00000  Uiso   1.00
C721   C     0.15072   0.40219   0.87758   0.00000  Uiso   1.00
C722   C     0.20373   0.59039   0.97900   0.00000  Uiso   1.00
C723   C     0.12960   0.40961   0.52100   0.00000  Uiso   1.00
C724   C     0.18805   0.65217   0.75522   0.00000  Uiso   1.00
C725   C     0.14528   0.34783   0.74478   0.00000  Uiso   1.00
C726   C     0.16709   0.50067   0.83618   0.00000  Uiso   1.00
C727   C     0.16625   0.49933   0.66382   0.00000  Uiso   1.00
C728   C     0.15826   0.45255   0.59193   0.00000  Uiso   1.00
H729   H     0.21578   0.62498   0.54307   0.00000  Uiso   1.00
H730   H     0.17400   0.59433   0.65900   0.00000  Uiso   1.00
H731   H     0.22679   0.61487   0.61665   0.00000  Uiso   1.00
H732   H     0.18196   0.37535   0.88753   0.00000  Uiso   1.00
H733   H     0.10654   0.38513   0.88335   0.00000  Uiso   1.00
H734   H     0.15933   0.40567   0.84100   0.00000  Uiso   1.00
H735   H     0.11756   0.37502   0.95693   0.00000  Uiso   1.00
H736   H     0.19865   0.40742   0.63926   0.00000  Uiso   1.00
H737   H     0.12522   0.38825   0.63157   0.00000  Uiso   1.00
H738   H     0.18374   0.37323   0.58934   0.00000  Uiso   1.00
H739   H     0.13469   0.59258   0.86074   0.00000  Uiso   1.00
H740   H     0.14960   0.62677   0.91066   0.00000  Uiso   1.00
H741   H     0.20811   0.61175   0.86843   0.00000  Uiso   1.00
H742   H     0.15137   0.62465   0.61247   0.00000  Uiso   1.00
N743   N     0.31678   0.48598   0.73783   0.00000  Uiso   1.00
N744   N     0.01656   0.51402   0.76217   0.00000  Uiso   1.00
O745   O     0.12975   0.57952   0.75298   0.00000  Uiso   1.00
O746   O     0.20358   0.42048   0.74701   0.00000  Uiso   1.00
O747   O     0.22613   0.57054   0.74518   0.00000  Uiso   1.00
O748   O     0.10720   0.42946   0.75481   0.00000  Uiso   1.00
O749   O     0.11847   0.50450   0.81997   0.00000  Uiso   1.00
O750   O     0.21486   0.49550   0.68002   0.00000  Uiso   1.00
O751   O     0.21485   0.49552   0.81217   0.00000  Uiso   1.00
O752   O     0.11848   0.50448   0.68782   0.00000  Uiso   1.00
Zn753  Zn    0.10231   0.50600   0.75521   0.00000  Uiso   1.00
Zn754  Zn    0.23102   0.49400   0.74479   0.00000  Uiso   1.00
Br755  Br    0.58174   0.64799   0.95350   0.00000  Uiso   1.00
Br756  Br    0.41826   0.35201   0.54650   0.00000  Uiso   1.00
Br757  Br    0.58694   0.34311   0.78758   0.00000  Uiso   1.00
Br758  Br    0.41306   0.65689   0.71242   0.00000  Uiso   1.00
Br759  Br    0.34713   0.44071   0.69223   0.00000  Uiso   1.00
Br760  Br    0.65287   0.55929   0.80777   0.00000  Uiso   1.00
C761   C     0.51477   0.59805   0.74943   0.00000  Uiso   1.00
C762   C     0.50840   0.54745   0.90807   0.00000  Uiso   1.00
C763   C     0.49918   0.49983   0.61619   0.00000  Uiso   1.00
C764   C     0.50082   0.50017   0.88381   0.00000  Uiso   1.00
C765   C     0.50922   0.54701   0.59520   0.00000  Uiso   1.00
C766   C     0.49078   0.45299   0.90480   0.00000  Uiso   1.00
C767   C     0.51374   0.54616   0.54819   0.00000  Uiso   1.00
C768   C     0.48625   0.45384   0.95181   0.00000  Uiso   1.00
C769   C     0.49952   0.49984   0.52354   0.00000  Uiso   1.00
C770   C     0.50048   0.50016   0.97646   0.00000  Uiso   1.00
C771   C     0.48428   0.45334   0.54585   0.00000  Uiso   1.00
C772   C     0.48523   0.40195   0.75057   0.00000  Uiso   1.00
C773   C     0.51572   0.54666   0.95415   0.00000  Uiso   1.00
C774   C     0.53360   0.59033   0.52535   0.00000  Uiso   1.00
C775   C     0.46640   0.40967   0.97465   0.00000  Uiso   1.00
C776   C     0.49954   0.40249   0.61428   0.00000  Uiso   1.00
C777   C     0.50046   0.59751   0.88572   0.00000  Uiso   1.00
C778   C     0.51594   0.59781   0.62242   0.00000  Uiso   1.00
C779   C     0.48406   0.40219   0.87758   0.00000  Uiso   1.00
C780   C     0.53706   0.59039   0.97900   0.00000  Uiso   1.00
C781   C     0.46293   0.40961   0.52100   0.00000  Uiso   1.00
C782   C     0.52139   0.65217   0.75522   0.00000  Uiso   1.00
C783   C     0.47861   0.34783   0.74478   0.00000  Uiso   1.00
C784   C     0.50042   0.50067   0.83618   0.00000  Uiso   1.00
C785   C     0.49958   0.49933   0.66382   0.00000  Uiso   1.00
C786   C     0.49160   0.45255   0.59193   0.00000  Uiso   1.00
H787   H     0.54911   0.62498   0.54307   0.00000  Uiso   1.00
H788   H     0.50733   0.59433   0.65900   0.00000  Uiso   1.00
H789   H     0.56012   0.61487   0.61665   0.00000  Uiso   1.00
H790   H     0.51529   0.37535   0.88753   0.00000  Uiso   1.00
H791   H     0.43987   0.38513   0.88335   0.00000  Uiso   1.00
H792   H     0.49267   0.40567   0.84100   0.00000  Uiso   1.00
H793   H     0.45089   0.37502   0.95693   0.00000  Uiso   1.00
H794   H     0.53198   0.40742   0.63926   0.00000  Uiso   1.00
H795   H     0.45856   0.38825   0.63157   0.00000  Uiso   1.00
H796   H     0.51707   0.37323   0.58934   0.00000  Uiso   1.00
H797   H     0.46802   0.59258   0.86074   0.00000  Uiso   1.00
H798   H     0.48293   0.62677   0.91066   0.00000  Uiso   1.00
H799   H     0.54144   0.61175   0.86843   0.00000  Uiso   1.00
H800   H     0.48471   0.62465   0.61247   0.00000  Uiso   1.00
N801   N     0.65011   0.48598   0.73783   0.00000  Uiso   1.00
N802   N     0.34989   0.51402   0.76217   0.00000  Uiso   1.00
O803   O     0.46308   0.57952   0.75298   0.00000  Uiso   1.00
O804   O     0.53692   0.42048   0.74701   0.00000  Uiso   1.00
O805   O     0.55946   0.57054   0.74518   0.00000  Uiso   1.00
O806   O     0.44054   0.42946   0.75481   0.00000  Uiso   1.00
O807   O     0.45181   0.50450   0.81997   0.00000  Uiso   1.00
O808   O     0.54819   0.49550   0.68002   0.00000  Uiso   1.00
O809   O     0.54819   0.49552   0.81217   0.00000  Uiso   1.00
O810   O     0.45181   0.50448   0.68782   0.00000  Uiso   1.00
Zn811  Zn    0.43565   0.50600   0.75521   0.00000  Uiso   1.00
Zn812  Zn    0.56435   0.49400   0.74479   0.00000  Uiso   1.00
Br813  Br    0.91507   0.64799   0.95350   0.00000  Uiso   1.00
Br814  Br    0.75159   0.35201   0.54650   0.00000  Uiso   1.00
Br815  Br    0.92027   0.34311   0.78758   0.00000  Uiso   1.00
Br816  Br    0.74640   0.65689   0.71242   0.00000  Uiso   1.00
Br817  Br    0.68046   0.44071   0.69223   0.00000  Uiso   1.00
Br818  Br    0.98620   0.55929   0.80777   0.00000  Uiso   1.00
C819   C     0.84810   0.59805   0.74943   0.00000  Uiso   1.00
C820   C     0.84174   0.54745   0.90807   0.00000  Uiso   1.00
C821   C     0.83252   0.49983   0.61619   0.00000  Uiso   1.00
C822   C     0.83415   0.50017   0.88381   0.00000  Uiso   1.00
C823   C     0.84255   0.54701   0.59520   0.00000  Uiso   1.00
C824   C     0.82412   0.45299   0.90480   0.00000  Uiso   1.00
C825   C     0.84708   0.54616   0.54819   0.00000  Uiso   1.00
C826   C     0.81959   0.45384   0.95181   0.00000  Uiso   1.00
C827   C     0.83285   0.49984   0.52354   0.00000  Uiso   1.00
C828   C     0.83381   0.50016   0.97646   0.00000  Uiso   1.00
C829   C     0.81761   0.45334   0.54585   0.00000  Uiso   1.00
C830   C     0.81857   0.40195   0.75057   0.00000  Uiso   1.00
C831   C     0.84905   0.54666   0.95415   0.00000  Uiso   1.00
C832   C     0.86694   0.59033   0.52535   0.00000  Uiso   1.00
C833   C     0.79973   0.40967   0.97465   0.00000  Uiso   1.00
C834   C     0.83288   0.40249   0.61428   0.00000  Uiso   1.00
C835   C     0.83379   0.59751   0.88572   0.00000  Uiso   1.00
C836   C     0.84928   0.59781   0.62242   0.00000  Uiso   1.00
C837   C     0.81739   0.40219   0.87758   0.00000  Uiso   1.00
C838   C     0.87040   0.59039   0.97900   0.00000  Uiso   1.00
C839   C     0.79627   0.40961   0.52100   0.00000  Uiso   1.00
C840   C     0.85472   0.65217   0.75522   0.00000  Uiso   1.00
C841   C     0.81195   0.34783   0.74478   0.00000  Uiso   1.00
C842   C     0.83375   0.50067   0.83618   0.00000  Uiso   1.00
C843   C     0.83291   0.49933   0.66382   0.00000  Uiso   1.00
C844   C     0.82493   0.45255   0.59193   0.00000  Uiso   1.00
H845   H     0.88244   0.62498   0.54307   0.00000  Uiso   1.00
H846   H     0.84067   0.59433   0.65900   0.00000  Uiso   1.00
H847   H     0.89346   0.61487   0.61665   0.00000  Uiso   1.00
H848   H     0.84863   0.37535   0.88753   0.00000  Uiso   1.00
H849   H     0.77321   0.38513   0.88335   0.00000  Uiso   1.00
H850   H     0.82600   0.40567   0.84100   0.00000  Uiso   1.00
H851   H     0.78422   0.37502   0.95693   0.00000  Uiso   1.00
H852   H     0.86532   0.40742   0.63926   0.00000  Uiso   1.00
H853   H     0.79189   0.38825   0.63157   0.00000  Uiso   1.00
H854   H     0.85040   0.37323   0.58934   0.00000  Uiso   1.00
H855   H     0.80135   0.59258   0.86074   0.00000  Uiso   1.00
H856   H     0.81626   0.62677   0.91066   0.00000  Uiso   1.00
H857   H     0.87478   0.61175   0.86843   0.00000  Uiso   1.00
H858   H     0.81804   0.62465   0.61247   0.00000  Uiso   1.00
N859   N     0.98344   0.48598   0.73783   0.00000  Uiso   1.00
N860   N     0.68322   0.51402   0.76217   0.00000  Uiso   1.00
O861   O     0.79642   0.57952   0.75298   0.00000  Uiso   1.00
O862   O     0.87025   0.42048   0.74701   0.00000  Uiso   1.00
O863   O     0.89280   0.57054   0.74518   0.00000  Uiso   1.00
O864   O     0.77387   0.42946   0.75481   0.00000  Uiso   1.00
O865   O     0.78514   0.50450   0.81997   0.00000  Uiso   1.00
O866   O     0.88153   0.49550   0.68002   0.00000  Uiso   1.00
O867   O     0.88152   0.49552   0.81217   0.00000  Uiso   1.00
O868   O     0.78515   0.50448   0.68782   0.00000  Uiso   1.00
Zn869  Zn    0.76898   0.50600   0.75521   0.00000  Uiso   1.00
Zn870  Zn    0.89769   0.49400   0.74479   0.00000  Uiso   1.00
Br871  Br    0.24840   0.98133   0.95350   0.00000  Uiso   1.00
Br872  Br    0.08493   0.68534   0.54650   0.00000  Uiso   1.00
Br873  Br    0.25360   0.67645   0.78758   0.00000  Uiso   1.00
Br874  Br    0.07973   0.99022   0.71242   0.00000  Uiso   1.00
Br875  Br    0.01379   0.77405   0.69223   0.00000  Uiso   1.00
Br876  Br    0.31954   0.89262   0.80777   0.00000  Uiso   1.00
C877   C     0.18143   0.93138   0.74943   0.00000  Uiso   1.00
C878   C     0.17507   0.88079   0.90807   0.00000  Uiso   1.00
C879   C     0.16585   0.83316   0.61619   0.00000  Uiso   1.00
C880   C     0.16748   0.83350   0.88381   0.00000  Uiso   1.00
C881   C     0.17588   0.88034   0.59520   0.00000  Uiso   1.00
C882   C     0.15745   0.78632   0.90480   0.00000  Uiso   1.00
C883   C     0.18041   0.87950   0.54819   0.00000  Uiso   1.00
C884   C     0.15292   0.78717   0.95181   0.00000  Uiso   1.00
C885   C     0.16619   0.83318   0.52354   0.00000  Uiso   1.00
C886   C     0.16714   0.83349   0.97646   0.00000  Uiso   1.00
C887   C     0.15095   0.78667   0.54585   0.00000  Uiso   1.00
C888   C     0.15190   0.73529   0.75057   0.00000  Uiso   1.00
C889   C     0.18239   0.88000   0.95415   0.00000  Uiso   1.00
C890   C     0.20027   0.92367   0.52535   0.00000  Uiso   1.00
C891   C     0.13306   0.74300   0.97465   0.00000  Uiso   1.00
C892   C     0.16621   0.73583   0.61428   0.00000  Uiso   1.00
C893   C     0.16712   0.93084   0.88572   0.00000  Uiso   1.00
C894   C     0.18261   0.93115   0.62242   0.00000  Uiso   1.00
C895   C     0.15072   0.73552   0.87758   0.00000  Uiso   1.00
C896   C     0.20373   0.92372   0.97900   0.00000  Uiso   1.00
C897   C     0.12960   0.74295   0.52100   0.00000  Uiso   1.00
C898   C     0.18805   0.98551   0.75522   0.00000  Uiso   1.00
C899   C     0.14528   0.68116   0.74478   0.00000  Uiso   1.00
C900   C     0.16709   0.83400   0.83618   0.00000  Uiso   1.00
C901   C     0.16625   0.83267   0.66382   0.00000  Uiso   1.00
C902   C     0.15826   0.78588   0.59193   0.00000  Uiso   1.00
H903   H     0.21578   0.95831   0.54307   0.00000  Uiso   1.00
H904   H     0.17400   0.92766   0.65900   0.00000  Uiso   1.00
H905   H     0.22679   0.94820   0.61665   0.00000  Uiso   1.00
H906   H     0.18196   0.70869   0.88753   0.00000  Uiso   1.00
H907   H     0.10654   0.71847   0.88335   0.00000  Uiso   1.00
H908   H     0.15933   0.73901   0.84100   0.00000  Uiso   1.00
H909   H     0.11756   0.70836   0.95693   0.00000  Uiso   1.00
H910   H     0.19865   0.74075   0.63926   0.00000  Uiso   1.00
H911   H     0.12522   0.72159   0.63157   0.00000  Uiso   1.00
H912   H     0.18374   0.70656   0.58934   0.00000  Uiso   1.00
H913   H     0.13469   0.92591   0.86074   0.00000  Uiso   1.00
H914   H     0.14960   0.96011   0.91066   0.00000  Uiso   1.00
H915   H     0.20811   0.94508   0.86843   0.00000  Uiso   1.00
H916   H     0.15137   0.95798   0.61247   0.00000  Uiso   1.00
N917   N     0.31678   0.81932   0.73783   0.00000  Uiso   1.00
N918   N     0.01656   0.84735   0.76217   0.00000  Uiso   1.00
O919   O     0.12975   0.91286   0.75298   0.00000  Uiso   1.00
O920   O     0.20358   0.75381   0.74701   0.00000  Uiso   1.00
O921   O     0.22613   0.90387   0.74518   0.00000  Uiso   1.00
O922   O     0.10720   0.76279   0.75481   0.00000  Uiso   1.00
O923   O     0.11847   0.83784   0.81997   0.00000  Uiso   1.00
O924   O     0.21486   0.82883   0.68002   0.00000  Uiso   1.00
O925   O     0.21485   0.82885   0.81217   0.00000  Uiso   1.00
O926   O     0.11848   0.83781   0.68782   0.00000  Uiso   1.00
Zn927  Zn    0.10231   0.83933   0.75521   0.00000  Uiso   1.00
Zn928  Zn    0.23102   0.82734   0.74479   0.00000  Uiso   1.00
Br929  Br    0.58174   0.98133   0.95350   0.00000  Uiso   1.00
Br930  Br    0.41826   0.68534   0.54650   0.00000  Uiso   1.00
Br931  Br    0.58694   0.67645   0.78758   0.00000  Uiso   1.00
Br932  Br    0.41306   0.99022   0.71242   0.00000  Uiso   1.00
Br933  Br    0.34713   0.77405   0.69223   0.00000  Uiso   1.00
Br934  Br    0.65287   0.89262   0.80777   0.00000  Uiso   1.00
C935   C     0.51477   0.93138   0.74943   0.00000  Uiso   1.00
C936   C     0.50840   0.88079   0.90807   0.00000  Uiso   1.00
C937   C     0.49918   0.83316   0.61619   0.00000  Uiso   1.00
C938   C     0.50082   0.83350   0.88381   0.00000  Uiso   1.00
C939   C     0.50922   0.88034   0.59520   0.00000  Uiso   1.00
C940   C     0.49078   0.78632   0.90480   0.00000  Uiso   1.00
C941   C     0.51374   0.87950   0.54819   0.00000  Uiso   1.00
C942   C     0.48625   0.78717   0.95181   0.00000  Uiso   1.00
C943   C     0.49952   0.83318   0.52354   0.00000  Uiso   1.00
C944   C     0.50048   0.83349   0.97646   0.00000  Uiso   1.00
C945   C     0.48428   0.78667   0.54585   0.00000  Uiso   1.00
C946   C     0.48523   0.73529   0.75057   0.00000  Uiso   1.00
C947   C     0.51572   0.88000   0.95415   0.00000  Uiso   1.00
C948   C     0.53360   0.92367   0.52535   0.00000  Uiso   1.00
C949   C     0.46640   0.74300   0.97465   0.00000  Uiso   1.00
C950   C     0.49954   0.73583   0.61428   0.00000  Uiso   1.00
C951   C     0.50046   0.93084   0.88572   0.00000  Uiso   1.00
C952   C     0.51594   0.93115   0.62242   0.00000  Uiso   1.00
C953   C     0.48406   0.73552   0.87758   0.00000  Uiso   1.00
C954   C     0.53706   0.92372   0.97900   0.00000  Uiso   1.00
C955   C     0.46293   0.74295   0.52100   0.00000  Uiso   1.00
C956   C     0.52139   0.98551   0.75522   0.00000  Uiso   1.00
C957   C     0.47861   0.68116   0.74478   0.00000  Uiso   1.00
C958   C     0.50042   0.83400   0.83618   0.00000  Uiso   1.00
C959   C     0.49958   0.83267   0.66382   0.00000  Uiso   1.00
C960   C     0.49160   0.78588   0.59193   0.00000  Uiso   1.00
H961   H     0.54911   0.95831   0.54307   0.00000  Uiso   1.00
H962   H     0.50733   0.92766   0.65900   0.00000  Uiso   1.00
H963   H     0.56012   0.94820   0.61665   0.00000  Uiso   1.00
H964   H     0.51529   0.70869   0.88753   0.00000  Uiso   1.00
H965   H     0.43987   0.71847   0.88335   0.00000  Uiso   1.00
H966   H     0.49267   0.73901   0.84100   0.00000  Uiso   1.00
H967   H     0.45089   0.70836   0.95693   0.00000  Uiso   1.00
H968   H     0.53198   0.74075   0.63926   0.00000  Uiso   1.00
H969   H     0.45856   0.72159   0.63157   0.00000  Uiso   1.00
H970   H     0.51707   0.70656   0.58934   0.00000  Uiso   1.00
H971   H     0.46802   0.92591   0.86074   0.00000  Uiso   1.00
H972   H     0.48293   0.96011   0.91066   0.00000  Uiso   1.00
H973   H     0.54144   0.94508   0.86843   0.00000  Uiso   1.00
H974   H     0.48471   0.95798   0.61247   0.00000  Uiso   1.00
N975   N     0.65011   0.81932   0.73783   0.00000  Uiso   1.00
N976   N     0.34989   0.84735   0.76217   0.00000  Uiso   1.00
O977   O     0.46308   0.91286   0.75298   0.00000  Uiso   1.00
O978   O     0.53692   0.75381   0.74701   0.00000  Uiso   1.00
O979   O     0.55946   0.90387   0.74518   0.00000  Uiso   1.00
O980   O     0.44054   0.76279   0.75481   0.00000  Uiso   1.00
O981   O     0.45181   0.83784   0.81997   0.00000  Uiso   1.00
O982   O     0.54819   0.82883   0.68002   0.00000  Uiso   1.00
O983   O     0.54819   0.82885   0.81217   0.00000  Uiso   1.00
O984   O     0.45181   0.83781   0.68782   0.00000  Uiso   1.00
Zn985  Zn    0.43565   0.83933   0.75521   0.00000  Uiso   1.00
Zn986  Zn    0.56435   0.82734   0.74479   0.00000  Uiso   1.00
Br987  Br    0.91507   0.98133   0.95350   0.00000  Uiso   1.00
Br988  Br    0.75159   0.68534   0.54650   0.00000  Uiso   1.00
Br989  Br    0.92027   0.67645   0.78758   0.00000  Uiso   1.00
Br990  Br    0.74640   0.99022   0.71242   0.00000  Uiso   1.00
Br991  Br    0.68046   0.77405   0.69223   0.00000  Uiso   1.00
Br992  Br    0.98620   0.89262   0.80777   0.00000  Uiso   1.00
C993   C     0.84810   0.93138   0.74943   0.00000  Uiso   1.00
C994   C     0.84174   0.88079   0.90807   0.00000  Uiso   1.00
C995   C     0.83252   0.83316   0.61619   0.00000  Uiso   1.00
C996   C     0.83415   0.83350   0.88381   0.00000  Uiso   1.00
C997   C     0.84255   0.88034   0.59520   0.00000  Uiso   1.00
C998   C     0.82412   0.78632   0.90480   0.00000  Uiso   1.00
C999   C     0.84708   0.87950   0.54819   0.00000  Uiso   1.00
C1000  C     0.81959   0.78717   0.95181   0.00000  Uiso   1.00
C1001  C     0.83285   0.83318   0.52354   0.00000  Uiso   1.00
C1002  C     0.83381   0.83349   0.97646   0.00000  Uiso   1.00
C1003  C     0.81761   0.78667   0.54585   0.00000  Uiso   1.00
C1004  C     0.81857   0.73529   0.75057   0.00000  Uiso   1.00
C1005  C     0.84905   0.88000   0.95415   0.00000  Uiso   1.00
C1006  C     0.86694   0.92367   0.52535   0.00000  Uiso   1.00
C1007  C     0.79973   0.74300   0.97465   0.00000  Uiso   1.00
C1008  C     0.83288   0.73583   0.61428   0.00000  Uiso   1.00
C1009  C     0.83379   0.93084   0.88572   0.00000  Uiso   1.00
C1010  C     0.84928   0.93115   0.62242   0.00000  Uiso   1.00
C1011  C     0.81739   0.73552   0.87758   0.00000  Uiso   1.00
C1012  C     0.87040   0.92372   0.97900   0.00000  Uiso   1.00
C1013  C     0.79627   0.74295   0.52100   0.00000  Uiso   1.00
C1014  C     0.85472   0.98551   0.75522   0.00000  Uiso   1.00
C1015  C     0.81195   0.68116   0.74478   0.00000  Uiso   1.00
C1016  C     0.83375   0.83400   0.83618   0.00000  Uiso   1.00
C1017  C     0.83291   0.83267   0.66382   0.00000  Uiso   1.00
C1018  C     0.82493   0.78588   0.59193   0.00000  Uiso   1.00
H1019  H     0.88244   0.95831   0.54307   0.00000  Uiso   1.00
H1020  H     0.84067   0.92766   0.65900   0.00000  Uiso   1.00
H1021  H     0.89346   0.94820   0.61665   0.00000  Uiso   1.00
H1022  H     0.84863   0.70869   0.88753   0.00000  Uiso   1.00
H1023  H     0.77321   0.71847   0.88335   0.00000  Uiso   1.00
H1024  H     0.82600   0.73901   0.84100   0.00000  Uiso   1.00
H1025  H     0.78422   0.70836   0.95693   0.00000  Uiso   1.00
H1026  H     0.86532   0.74075   0.63926   0.00000  Uiso   1.00
H1027  H     0.79189   0.72159   0.63157   0.00000  Uiso   1.00
H1028  H     0.85040   0.70656   0.58934   0.00000  Uiso   1.00
H1029  H     0.80135   0.92591   0.86074   0.00000  Uiso   1.00
H1030  H     0.81626   0.96011   0.91066   0.00000  Uiso   1.00
H1031  H     0.87478   0.94508   0.86843   0.00000  Uiso   1.00
H1032  H     0.81804   0.95798   0.61247   0.00000  Uiso   1.00
N1033  N     0.98344   0.81932   0.73783   0.00000  Uiso   1.00
N1034  N     0.68322   0.84735   0.76217   0.00000  Uiso   1.00
O1035  O     0.79642   0.91286   0.75298   0.00000  Uiso   1.00
O1036  O     0.87025   0.75381   0.74701   0.00000  Uiso   1.00
O1037  O     0.89280   0.90387   0.74518   0.00000  Uiso   1.00
O1038  O     0.77387   0.76279   0.75481   0.00000  Uiso   1.00
O1039  O     0.78514   0.83784   0.81997   0.00000  Uiso   1.00
O1040  O     0.88153   0.82883   0.68002   0.00000  Uiso   1.00
O1041  O     0.88152   0.82885   0.81217   0.00000  Uiso   1.00
O1042  O     0.78515   0.83781   0.68782   0.00000  Uiso   1.00
Zn1043 Zn    0.76898   0.83933   0.75521   0.00000  Uiso   1.00
Zn1044 Zn    0.89769   0.82734   0.74479   0.00000  Uiso   1.00
loop_
_geom_bond_atom_site_label_1
_geom_bond_atom_site_label_2
_geom_bond_distance
_geom_bond_site_symmetry_2
_ccdc_geom_bond_type
Br1    C26     1.930   .     S
Br2    C27     1.930   .     S
Br3    C376    1.946   1_545 S
Br4    C203    1.946   .     S
Br5    N163    1.874   1_455 S
Br6    N106    1.874   .     S
C7     C28     1.407   .     S
C7     O49     1.280   .     A
C7     O51     1.297   .     A
C8     C19     1.403   .     A
C8     C23     1.517   .     S
C8     C10     1.403   .     A
C9     C11     1.402   .     A
C9     C31     1.425   .     S
C9     C32     1.403   .     A
C10    C30     1.425   .     S
C10    C12     1.402   .     A
C11    C13     1.399   .     A
C11    C24     1.520   .     S
C12    C25     1.520   .     S
C12    C14     1.399   .     A
C13    C15     1.415   .     A
C13    C20     1.401   .     A
C14    C21     1.401   .     A
C14    C16     1.415   .     A
C15    C17     1.422   .     A
C15    C538    1.405   1_554 S
C16    C19     1.422   .     A
C16    C537    1.405   .     S
C17    C27     1.415   .     A
C17    C32     1.403   .     A
C18    O52     1.297   .     A
C18    C29     1.407   .     S
C18    O50     1.280   .     A
C19    C26     1.415   .     A
C20    H33     1.081   .     S
C20    C548    1.381   1_554 S
C21    H39     1.081   .     S
C21    C549    1.381   .     S
C22    H41     1.109   .     S
C22    H40     1.109   .     S
C22    H42     1.108   .     S
C22    C32     1.517   .     S
C23    H45     1.109   .     S
C23    H43     1.109   .     S
C23    H44     1.108   .     S
C24    H35     1.110   .     S
C24    H34     1.103   .     S
C24    H46     1.107   .     S
C25    H38     1.102   .     S
C25    H36     1.107   .     S
C25    H37     1.110   .     S
C26    C542    1.381   .     S
C27    C543    1.381   1_554 S
C28    Br177   1.946   .     S
C28    C203    1.354   .     S
C29    C376    1.354   1_545 S
C29    Br352   1.946   1_545 S
C30    O55     1.291   .     A
C30    O53     1.289   .     A
C31    O56     1.291   .     A
C31    O54     1.289   .     A
N47    Zn58    2.031   .     S
N47    Br63    1.874   .     S
N47    N106    1.281   .     S
N48    Zn57    2.031   .     S
N48    N163    1.281   1_455 S
N48    Br122   1.874   1_455 S
O49    Zn57    1.981   .     S
O50    Zn58    1.981   .     S
O51    Zn58    1.993   .     S
O52    Zn57    1.993   .     S
O53    Zn57    2.006   .     S
O54    Zn58    2.006   .     S
O55    Zn58    2.017   .     S
O56    Zn57    2.017   .     S
Br59   C84     1.930   .     S
Br60   C85     1.930   .     S
Br61   C434    1.946   1_545 S
Br62   C261    1.946   .     S
Br64   N164    1.874   .     S
C65    C86     1.407   .     S
C65    O107    1.280   .     A
C65    O109    1.297   .     A
C66    C77     1.403   .     A
C66    C81     1.517   .     S
C66    C68     1.403   .     A
C67    C69     1.402   .     A
C67    C89     1.425   .     S
C67    C90     1.403   .     A
C68    C88     1.425   .     S
C68    C70     1.402   .     A
C69    C71     1.399   .     A
C69    C82     1.520   .     S
C70    C83     1.520   .     S
C70    C72     1.399   .     A
C71    C73     1.415   .     A
C71    C78     1.401   .     A
C72    C79     1.401   .     A
C72    C74     1.415   .     A
C73    C75     1.422   .     A
C73    C596    1.405   1_554 S
C74    C77     1.422   .     A
C74    C595    1.405   .     S
C75    C85     1.415   .     A
C75    C90     1.403   .     A
C76    O110    1.297   .     A
C76    C87     1.407   .     S
C76    O108    1.280   .     A
C77    C84     1.415   .     A
C78    H91     1.081   .     S
C78    C606    1.381   1_554 S
C79    H97     1.081   .     S
C79    C607    1.381   .     S
C80    H99     1.109   .     S
C80    H98     1.109   .     S
C80    H100    1.108   .     S
C80    C90     1.517   .     S
C81    H103    1.109   .     S
C81    H101    1.109   .     S
C81    H102    1.108   .     S
C82    H93     1.110   .     S
C82    H92     1.103   .     S
C82    H104    1.107   .     S
C83    H96     1.102   .     S
C83    H94     1.107   .     S
C83    H95     1.110   .     S
C84    C600    1.381   .     S
C85    C601    1.381   1_554 S
C86    Br235   1.946   .     S
C86    C261    1.354   .     S
C87    C434    1.354   1_545 S
C87    Br410   1.946   1_545 S
C88    O113    1.291   .     A
C88    O111    1.289   .     A
C89    O114    1.291   .     A
C89    O112    1.289   .     A
N105   Zn116   2.031   .     S
N105   Br121   1.874   .     S
N105   N164    1.281   .     S
N106   Zn115   2.031   .     S
O107   Zn115   1.981   .     S
O108   Zn116   1.981   .     S
O109   Zn116   1.993   .     S
O110   Zn115   1.993   .     S
O111   Zn115   2.006   .     S
O112   Zn116   2.006   .     S
O113   Zn116   2.017   .     S
O114   Zn115   2.017   .     S
Br117  C142    1.930   .     S
Br118  C143    1.930   .     S
Br119  C492    1.946   1_545 S
Br120  C319    1.946   .     S
Br122  N48     1.874   1_655 S
C123   C144    1.407   .     S
C123   O165    1.280   .     A
C123   O167    1.297   .     A
C124   C135    1.403   .     A
C124   C139    1.517   .     S
C124   C126    1.403   .     A
C125   C127    1.402   .     A
C125   C147    1.425   .     S
C125   C148    1.403   .     A
C126   C146    1.425   .     S
C126   C128    1.402   .     A
C127   C129    1.399   .     A
C127   C140    1.520   .     S
C128   C141    1.520   .     S
C128   C130    1.399   .     A
C129   C131    1.415   .     A
C129   C136    1.401   .     A
C130   C137    1.401   .     A
C130   C132    1.415   .     A
C131   C133    1.422   .     A
C131   C654    1.405   1_554 S
C132   C135    1.422   .     A
C132   C653    1.405   .     S
C133   C143    1.415   .     A
C133   C148    1.403   .     A
C134   O168    1.297   .     A
C134   C145    1.407   .     S
C134   O166    1.280   .     A
C135   C142    1.415   .     A
C136   H149    1.081   .     S
C136   C664    1.381   1_554 S
C137   H155    1.081   .     S
C137   C665    1.381   .     S
C138   H157    1.109   .     S
C138   H156    1.109   .     S
C138   H158    1.108   .     S
C138   C148    1.517   .     S
C139   H161    1.109   .     S
C139   H159    1.109   .     S
C139   H160    1.108   .     S
C140   H151    1.110   .     S
C140   H150    1.103   .     S
C140   H162    1.107   .     S
C141   H154    1.102   .     S
C141   H152    1.107   .     S
C141   H153    1.110   .     S
C142   C658    1.381   .     S
C143   C659    1.381   1_554 S
C144   Br293   1.946   .     S
C144   C319    1.354   .     S
C145   C492    1.354   1_545 S
C145   Br468   1.946   1_545 S
C146   O171    1.291   .     A
C146   O169    1.289   .     A
C147   O172    1.291   .     A
C147   O170    1.289   .     A
N163   Zn174   2.031   .     S
N163   Br5     1.874   1_655 S
N163   N48     1.281   1_655 S
N164   Zn173   2.031   .     S
O165   Zn173   1.981   .     S
O166   Zn174   1.981   .     S
O167   Zn174   1.993   .     S
O168   Zn173   1.993   .     S
O169   Zn173   2.006   .     S
O170   Zn174   2.006   .     S
O171   Zn174   2.017   .     S
O172   Zn173   2.017   .     S
Br175  C200    1.930   .     S
Br176  C201    1.930   .     S
Br178  C377    1.946   .     S
Br179  N337    1.874   1_455 S
Br180  N280    1.874   .     S
C181   C202    1.407   .     S
C181   O223    1.280   .     A
C181   O225    1.297   .     A
C182   C193    1.403   .     A
C182   C197    1.517   .     S
C182   C184    1.403   .     A
C183   C185    1.402   .     A
C183   C205    1.425   .     S
C183   C206    1.403   .     A
C184   C204    1.425   .     S
C184   C186    1.402   .     A
C185   C187    1.399   .     A
C185   C198    1.520   .     S
C186   C199    1.520   .     S
C186   C188    1.399   .     A
C187   C189    1.415   .     A
C187   C194    1.401   .     A
C188   C195    1.401   .     A
C188   C190    1.415   .     A
C189   C191    1.422   .     A
C189   C712    1.405   1_554 S
C190   C193    1.422   .     A
C190   C711    1.405   .     S
C191   C201    1.415   .     A
C191   C206    1.403   .     A
C192   O226    1.297   .     A
C192   C203    1.407   .     S
C192   O224    1.280   .     A
C193   C200    1.415   .     A
C194   H207    1.081   .     S
C194   C722    1.381   1_554 S
C195   H213    1.081   .     S
C195   C723    1.381   .     S
C196   H215    1.109   .     S
C196   H214    1.109   .     S
C196   H216    1.108   .     S
C196   C206    1.517   .     S
C197   H219    1.109   .     S
C197   H217    1.109   .     S
C197   H218    1.108   .     S
C198   H209    1.110   .     S
C198   H208    1.103   .     S
C198   H220    1.107   .     S
C199   H212    1.102   .     S
C199   H210    1.107   .     S
C199   H211    1.110   .     S
C200   C716    1.381   .     S
C201   C717    1.381   1_554 S
C202   Br351   1.946   .     S
C202   C377    1.354   .     S
C204   O229    1.291   .     A
C204   O227    1.289   .     A
C205   O230    1.291   .     A
C205   O228    1.289   .     A
N221   Zn232   2.031   .     S
N221   Br237   1.874   .     S
N221   N280    1.281   .     S
N222   Zn231   2.031   .     S
N222   N337    1.281   1_455 S
N222   Br296   1.874   1_455 S
O223   Zn231   1.981   .     S
O224   Zn232   1.981   .     S
O225   Zn232   1.993   .     S
O226   Zn231   1.993   .     S
O227   Zn231   2.006   .     S
O228   Zn232   2.006   .     S
O229   Zn232   2.017   .     S
O230   Zn231   2.017   .     S
Br233  C258    1.930   .     S
Br234  C259    1.930   .     S
Br236  C435    1.946   .     S
Br238  N338    1.874   .     S
C239   C260    1.407   .     S
C239   O281    1.280   .     A
C239   O283    1.297   .     A
C240   C251    1.403   .     A
C240   C255    1.517   .     S
C240   C242    1.403   .     A
C241   C243    1.402   .     A
C241   C263    1.425   .     S
C241   C264    1.403   .     A
C242   C262    1.425   .     S
C242   C244    1.402   .     A
C243   C245    1.399   .     A
C243   C256    1.520   .     S
C244   C257    1.520   .     S
C244   C246    1.399   .     A
C245   C247    1.415   .     A
C245   C252    1.401   .     A
C246   C253    1.401   .     A
C246   C248    1.415   .     A
C247   C249    1.422   .     A
C247   C770    1.405   1_554 S
C248   C251    1.422   .     A
C248   C769    1.405   .     S
C249   C259    1.415   .     A
C249   C264    1.403   .     A
C250   O284    1.297   .     A
C250   C261    1.407   .     S
C250   O282    1.280   .     A
C251   C258    1.415   .     A
C252   H265    1.081   .     S
C252   C780    1.381   1_554 S
C253   H271    1.081   .     S
C253   C781    1.381   .     S
C254   H273    1.109   .     S
C254   H272    1.109   .     S
C254   H274    1.108   .     S
C254   C264    1.517   .     S
C255   H277    1.109   .     S
C255   H275    1.109   .     S
C255   H276    1.108   .     S
C256   H267    1.110   .     S
C256   H266    1.103   .     S
C256   H278    1.107   .     S
C257   H270    1.102   .     S
C257   H268    1.107   .     S
C257   H269    1.110   .     S
C258   C774    1.381   .     S
C259   C775    1.381   1_554 S
C260   Br409   1.946   .     S
C260   C435    1.354   .     S
C262   O287    1.291   .     A
C262   O285    1.289   .     A
C263   O288    1.291   .     A
C263   O286    1.289   .     A
N279   Zn290   2.031   .     S
N279   Br295   1.874   .     S
N279   N338    1.281   .     S
N280   Zn289   2.031   .     S
O281   Zn289   1.981   .     S
O282   Zn290   1.981   .     S
O283   Zn290   1.993   .     S
O284   Zn289   1.993   .     S
O285   Zn289   2.006   .     S
O286   Zn290   2.006   .     S
O287   Zn290   2.017   .     S
O288   Zn289   2.017   .     S
Br291  C316    1.930   .     S
Br292  C317    1.930   .     S
Br294  C493    1.946   .     S
Br296  N222    1.874   1_655 S
C297   C318    1.407   .     S
C297   O339    1.280   .     A
C297   O341    1.297   .     A
C298   C309    1.403   .     A
C298   C313    1.517   .     S
C298   C300    1.403   .     A
C299   C301    1.402   .     A
C299   C321    1.425   .     S
C299   C322    1.403   .     A
C300   C320    1.425   .     S
C300   C302    1.402   .     A
C301   C303    1.399   .     A
C301   C314    1.520   .     S
C302   C315    1.520   .     S
C302   C304    1.399   .     A
C303   C305    1.415   .     A
C303   C310    1.401   .     A
C304   C311    1.401   .     A
C304   C306    1.415   .     A
C305   C307    1.422   .     A
C305   C828    1.405   1_554 S
C306   C309    1.422   .     A
C306   C827    1.405   .     S
C307   C317    1.415   .     A
C307   C322    1.403   .     A
C308   O342    1.297   .     A
C308   C319    1.407   .     S
C308   O340    1.280   .     A
C309   C316    1.415   .     A
C310   H323    1.081   .     S
C310   C838    1.381   1_554 S
C311   H329    1.081   .     S
C311   C839    1.381   .     S
C312   H331    1.109   .     S
C312   H330    1.109   .     S
C312   H332    1.108   .     S
C312   C322    1.517   .     S
C313   H335    1.109   .     S
C313   H333    1.109   .     S
C313   H334    1.108   .     S
C314   H325    1.110   .     S
C314   H324    1.103   .     S
C314   H336    1.107   .     S
C315   H328    1.102   .     S
C315   H326    1.107   .     S
C315   H327    1.110   .     S
C316   C832    1.381   .     S
C317   C833    1.381   1_554 S
C318   Br467   1.946   .     S
C318   C493    1.354   .     S
C320   O345    1.291   .     A
C320   O343    1.289   .     A
C321   O346    1.291   .     A
C321   O344    1.289   .     A
N337   Zn348   2.031   .     S
N337   Br179   1.874   1_655 S
N337   N222    1.281   1_655 S
N338   Zn347   2.031   .     S
O339   Zn347   1.981   .     S
O340   Zn348   1.981   .     S
O341   Zn348   1.993   .     S
O342   Zn347   1.993   .     S
O343   Zn347   2.006   .     S
O344   Zn348   2.006   .     S
O345   Zn348   2.017   .     S
O346   Zn347   2.017   .     S
Br349  C374    1.930   .     S
Br350  C375    1.930   .     S
Br352  C29     1.946   1_565 S
Br353  N511    1.874   1_455 S
Br354  N454    1.874   .     S
C355   C376    1.407   .     S
C355   O397    1.280   .     A
C355   O399    1.297   .     A
C356   C367    1.403   .     A
C356   C371    1.517   .     S
C356   C358    1.403   .     A
C357   C359    1.402   .     A
C357   C379    1.425   .     S
C357   C380    1.403   .     A
C358   C378    1.425   .     S
C358   C360    1.402   .     A
C359   C361    1.399   .     A
C359   C372    1.520   .     S
C360   C373    1.520   .     S
C360   C362    1.399   .     A
C361   C363    1.415   .     A
C361   C368    1.401   .     A
C362   C369    1.401   .     A
C362   C364    1.415   .     A
C363   C365    1.422   .     A
C363   C886    1.405   1_554 S
C364   C367    1.422   .     A
C364   C885    1.405   .     S
C365   C375    1.415   .     A
C365   C380    1.403   .     A
C366   O400    1.297   .     A
C366   C377    1.407   .     S
C366   O398    1.280   .     A
C367   C374    1.415   .     A
C368   H381    1.081   .     S
C368   C896    1.381   1_554 S
C369   H387    1.081   .     S
C369   C897    1.381   .     S
C370   H389    1.109   .     S
C370   H388    1.109   .     S
C370   H390    1.108   .     S
C370   C380    1.517   .     S
C371   H393    1.109   .     S
C371   H391    1.109   .     S
C371   H392    1.108   .     S
C372   H383    1.110   .     S
C372   H382    1.103   .     S
C372   H394    1.107   .     S
C373   H386    1.102   .     S
C373   H384    1.107   .     S
C373   H385    1.110   .     S
C374   C890    1.381   .     S
C375   C891    1.381   1_554 S
C376   Br3     1.946   1_565 S
C376   C29     1.354   1_565 S
C378   O403    1.291   .     A
C378   O401    1.289   .     A
C379   O404    1.291   .     A
C379   O402    1.289   .     A
N395   Zn406   2.031   .     S
N395   Br411   1.874   .     S
N395   N454    1.281   .     S
N396   Zn405   2.031   .     S
N396   N511    1.281   1_455 S
N396   Br470   1.874   1_455 S
O397   Zn405   1.981   .     S
O398   Zn406   1.981   .     S
O399   Zn406   1.993   .     S
O400   Zn405   1.993   .     S
O401   Zn405   2.006   .     S
O402   Zn406   2.006   .     S
O403   Zn406   2.017   .     S
O404   Zn405   2.017   .     S
Br407  C432    1.930   .     S
Br408  C433    1.930   .     S
Br410  C87     1.946   1_565 S
Br412  N512    1.874   .     S
C413   C434    1.407   .     S
C413   O455    1.280   .     A
C413   O457    1.297   .     A
C414   C425    1.403   .     A
C414   C429    1.517   .     S
C414   C416    1.403   .     A
C415   C417    1.402   .     A
C415   C437    1.425   .     S
C415   C438    1.403   .     A
C416   C436    1.425   .     S
C416   C418    1.402   .     A
C417   C419    1.399   .     A
C417   C430    1.520   .     S
C418   C431    1.520   .     S
C418   C420    1.399   .     A
C419   C421    1.415   .     A
C419   C426    1.401   .     A
C420   C427    1.401   .     A
C420   C422    1.415   .     A
C421   C423    1.422   .     A
C421   C944    1.405   1_554 S
C422   C425    1.422   .     A
C422   C943    1.405   .     S
C423   C433    1.415   .     A
C423   C438    1.403   .     A
C424   O458    1.297   .     A
C424   C435    1.407   .     S
C424   O456    1.280   .     A
C425   C432    1.415   .     A
C426   H439    1.081   .     S
C426   C954    1.381   1_554 S
C427   H445    1.081   .     S
C427   C955    1.381   .     S
C428   H447    1.109   .     S
C428   H446    1.109   .     S
C428   H448    1.108   .     S
C428   C438    1.517   .     S
C429   H451    1.109   .     S
C429   H449    1.109   .     S
C429   H450    1.108   .     S
C430   H441    1.110   .     S
C430   H440    1.103   .     S
C430   H452    1.107   .     S
C431   H444    1.102   .     S
C431   H442    1.107   .     S
C431   H443    1.110   .     S
C432   C948    1.381   .     S
C433   C949    1.381   1_554 S
C434   Br61    1.946   1_565 S
C434   C87     1.354   1_565 S
C436   O461    1.291   .     A
C436   O459    1.289   .     A
C437   O462    1.291   .     A
C437   O460    1.289   .     A
N453   Zn464   2.031   .     S
N453   Br469   1.874   .     S
N453   N512    1.281   .     S
N454   Zn463   2.031   .     S
O455   Zn463   1.981   .     S
O456   Zn464   1.981   .     S
O457   Zn464   1.993   .     S
O458   Zn463   1.993   .     S
O459   Zn463   2.006   .     S
O460   Zn464   2.006   .     S
O461   Zn464   2.017   .     S
O462   Zn463   2.017   .     S
Br465  C490    1.930   .     S
Br466  C491    1.930   .     S
Br468  C145    1.946   1_565 S
Br470  N396    1.874   1_655 S
C471   C492    1.407   .     S
C471   O513    1.280   .     A
C471   O515    1.297   .     A
C472   C483    1.403   .     A
C472   C487    1.517   .     S
C472   C474    1.403   .     A
C473   C475    1.402   .     A
C473   C495    1.425   .     S
C473   C496    1.403   .     A
C474   C494    1.425   .     S
C474   C476    1.402   .     A
C475   C477    1.399   .     A
C475   C488    1.520   .     S
C476   C489    1.520   .     S
C476   C478    1.399   .     A
C477   C479    1.415   .     A
C477   C484    1.401   .     A
C478   C485    1.401   .     A
C478   C480    1.415   .     A
C479   C481    1.422   .     A
C479   C1002   1.405   1_554 S
C480   C483    1.422   .     A
C480   C1001   1.405   .     S
C481   C491    1.415   .     A
C481   C496    1.403   .     A
C482   O516    1.297   .     A
C482   C493    1.407   .     S
C482   O514    1.280   .     A
C483   C490    1.415   .     A
C484   H497    1.081   .     S
C484   C1012   1.381   1_554 S
C485   H503    1.081   .     S
C485   C1013   1.381   .     S
C486   H505    1.109   .     S
C486   H504    1.109   .     S
C486   H506    1.108   .     S
C486   C496    1.517   .     S
C487   H509    1.109   .     S
C487   H507    1.109   .     S
C487   H508    1.108   .     S
C488   H499    1.110   .     S
C488   H498    1.103   .     S
C488   H510    1.107   .     S
C489   H502    1.102   .     S
C489   H500    1.107   .     S
C489   H501    1.110   .     S
C490   C1006   1.381   .     S
C491   C1007   1.381   1_554 S
C492   Br119   1.946   1_565 S
C492   C145    1.354   1_565 S
C494   O519    1.291   .     A
C494   O517    1.289   .     A
C495   O520    1.291   .     A
C495   O518    1.289   .     A
N511   Zn522   2.031   .     S
N511   Br353   1.874   1_655 S
N511   N396    1.281   1_655 S
N512   Zn521   2.031   .     S
O513   Zn521   1.981   .     S
O514   Zn522   1.981   .     S
O515   Zn522   1.993   .     S
O516   Zn521   1.993   .     S
O517   Zn521   2.006   .     S
O518   Zn522   2.006   .     S
O519   Zn522   2.017   .     S
O520   Zn521   2.017   .     S
Br523  C548    1.930   .     S
Br524  C549    1.930   .     S
Br525  C898    1.946   1_545 S
Br526  C725    1.946   .     S
Br527  N685    1.874   1_455 S
Br528  N628    1.874   .     S
C529   C550    1.407   .     S
C529   O571    1.280   .     A
C529   O573    1.297   .     A
C530   C541    1.403   .     A
C530   C545    1.517   .     S
C530   C532    1.403   .     A
C531   C533    1.402   .     A
C531   C553    1.425   .     S
C531   C554    1.403   .     A
C532   C552    1.425   .     S
C532   C534    1.402   .     A
C533   C535    1.399   .     A
C533   C546    1.520   .     S
C534   C547    1.520   .     S
C534   C536    1.399   .     A
C535   C537    1.415   .     A
C535   C542    1.401   .     A
C536   C543    1.401   .     A
C536   C538    1.415   .     A
C537   C539    1.422   .     A
C538   C541    1.422   .     A
C538   C15     1.405   1_556 S
C539   C549    1.415   .     A
C539   C554    1.403   .     A
C540   O574    1.297   .     A
C540   C551    1.407   .     S
C540   O572    1.280   .     A
C541   C548    1.415   .     A
C542   H555    1.081   .     S
C543   H561    1.081   .     S
C543   C27     1.381   1_556 S
C544   H563    1.109   .     S
C544   H562    1.109   .     S
C544   H564    1.108   .     S
C544   C554    1.517   .     S
C545   H567    1.109   .     S
C545   H565    1.109   .     S
C545   H566    1.108   .     S
C546   H557    1.110   .     S
C546   H556    1.103   .     S
C546   H568    1.107   .     S
C547   H560    1.102   .     S
C547   H558    1.107   .     S
C547   H559    1.110   .     S
C548   C20     1.381   1_556 S
C550   Br699   1.946   .     S
C550   C725    1.354   .     S
C551   C898    1.354   1_545 S
C551   Br874   1.946   1_545 S
C552   O577    1.291   .     A
C552   O575    1.289   .     A
C553   O578    1.291   .     A
C553   O576    1.289   .     A
N569   Zn580   2.031   .     S
N569   Br585   1.874   .     S
N569   N628    1.281   .     S
N570   Zn579   2.031   .     S
N570   N685    1.281   1_455 S
N570   Br644   1.874   1_455 S
O571   Zn579   1.981   .     S
O572   Zn580   1.981   .     S
O573   Zn580   1.993   .     S
O574   Zn579   1.993   .     S
O575   Zn579   2.006   .     S
O576   Zn580   2.006   .     S
O577   Zn580   2.017   .     S
O578   Zn579   2.017   .     S
Br581  C606    1.930   .     S
Br582  C607    1.930   .     S
Br583  C956    1.946   1_545 S
Br584  C783    1.946   .     S
Br586  N686    1.874   .     S
C587   C608    1.407   .     S
C587   O629    1.280   .     A
C587   O631    1.297   .     A
C588   C599    1.403   .     A
C588   C603    1.517   .     S
C588   C590    1.403   .     A
C589   C591    1.402   .     A
C589   C611    1.425   .     S
C589   C612    1.403   .     A
C590   C610    1.425   .     S
C590   C592    1.402   .     A
C591   C593    1.399   .     A
C591   C604    1.520   .     S
C592   C605    1.520   .     S
C592   C594    1.399   .     A
C593   C595    1.415   .     A
C593   C600    1.401   .     A
C594   C601    1.401   .     A
C594   C596    1.415   .     A
C595   C597    1.422   .     A
C596   C599    1.422   .     A
C596   C73     1.405   1_556 S
C597   C607    1.415   .     A
C597   C612    1.403   .     A
C598   O632    1.297   .     A
C598   C609    1.407   .     S
C598   O630    1.280   .     A
C599   C606    1.415   .     A
C600   H613    1.081   .     S
C601   H619    1.081   .     S
C601   C85     1.381   1_556 S
C602   H621    1.109   .     S
C602   H620    1.109   .     S
C602   H622    1.108   .     S
C602   C612    1.517   .     S
C603   H625    1.109   .     S
C603   H623    1.109   .     S
C603   H624    1.108   .     S
C604   H615    1.110   .     S
C604   H614    1.103   .     S
C604   H626    1.107   .     S
C605   H618    1.102   .     S
C605   H616    1.107   .     S
C605   H617    1.110   .     S
C606   C78     1.381   1_556 S
C608   Br757   1.946   .     S
C608   C783    1.354   .     S
C609   C956    1.354   1_545 S
C609   Br932   1.946   1_545 S
C610   O635    1.291   .     A
C610   O633    1.289   .     A
C611   O636    1.291   .     A
C611   O634    1.289   .     A
N627   Zn638   2.031   .     S
N627   Br643   1.874   .     S
N627   N686    1.281   .     S
N628   Zn637   2.031   .     S
O629   Zn637   1.981   .     S
O630   Zn638   1.981   .     S
O631   Zn638   1.993   .     S
O632   Zn637   1.993   .     S
O633   Zn637   2.006   .     S
O634   Zn638   2.006   .     S
O635   Zn638   2.017   .     S
O636   Zn637   2.017   .     S
Br639  C664    1.930   .     S
Br640  C665    1.930   .     S
Br641  C1014   1.946   1_545 S
Br642  C841    1.946   .     S
Br644  N570    1.874   1_655 S
C645   C666    1.407   .     S
C645   O687    1.280   .     A
C645   O689    1.297   .     A
C646   C657    1.403   .     A
C646   C661    1.517   .     S
C646   C648    1.403   .     A
C647   C649    1.402   .     A
C647   C669    1.425   .     S
C647   C670    1.403   .     A
C648   C668    1.425   .     S
C648   C650    1.402   .     A
C649   C651    1.399   .     A
C649   C662    1.520   .     S
C650   C663    1.520   .     S
C650   C652    1.399   .     A
C651   C653    1.415   .     A
C651   C658    1.401   .     A
C652   C659    1.401   .     A
C652   C654    1.415   .     A
C653   C655    1.422   .     A
C654   C657    1.422   .     A
C654   C131    1.405   1_556 S
C655   C665    1.415   .     A
C655   C670    1.403   .     A
C656   O690    1.297   .     A
C656   C667    1.407   .     S
C656   O688    1.280   .     A
C657   C664    1.415   .     A
C658   H671    1.081   .     S
C659   H677    1.081   .     S
C659   C143    1.381   1_556 S
C660   H679    1.109   .     S
C660   H678    1.109   .     S
C660   H680    1.108   .     S
C660   C670    1.517   .     S
C661   H683    1.109   .     S
C661   H681    1.109   .     S
C661   H682    1.108   .     S
C662   H673    1.110   .     S
C662   H672    1.103   .     S
C662   H684    1.107   .     S
C663   H676    1.102   .     S
C663   H674    1.107   .     S
C663   H675    1.110   .     S
C664   C136    1.381   1_556 S
C666   Br815   1.946   .     S
C666   C841    1.354   .     S
C667   C1014   1.354   1_545 S
C667   Br990   1.946   1_545 S
C668   O693    1.291   .     A
C668   O691    1.289   .     A
C669   O694    1.291   .     A
C669   O692    1.289   .     A
N685   Zn696   2.031   .     S
N685   Br527   1.874   1_655 S
N685   N570    1.281   1_655 S
N686   Zn695   2.031   .     S
O687   Zn695   1.981   .     S
O688   Zn696   1.981   .     S
O689   Zn696   1.993   .     S
O690   Zn695   1.993   .     S
O691   Zn695   2.006   .     S
O692   Zn696   2.006   .     S
O693   Zn696   2.017   .     S
O694   Zn695   2.017   .     S
Br697  C722    1.930   .     S
Br698  C723    1.930   .     S
Br700  C899    1.946   .     S
Br701  N859    1.874   1_455 S
Br702  N802    1.874   .     S
C703   C724    1.407   .     S
C703   O745    1.280   .     A
C703   O747    1.297   .     A
C704   C715    1.403   .     A
C704   C719    1.517   .     S
C704   C706    1.403   .     A
C705   C707    1.402   .     A
C705   C727    1.425   .     S
C705   C728    1.403   .     A
C706   C726    1.425   .     S
C706   C708    1.402   .     A
C707   C709    1.399   .     A
C707   C720    1.520   .     S
C708   C721    1.520   .     S
C708   C710    1.399   .     A
C709   C711    1.415   .     A
C709   C716    1.401   .     A
C710   C717    1.401   .     A
C710   C712    1.415   .     A
C711   C713    1.422   .     A
C712   C715    1.422   .     A
C712   C189    1.405   1_556 S
C713   C723    1.415   .     A
C713   C728    1.403   .     A
C714   O748    1.297   .     A
C714   C725    1.407   .     S
C714   O746    1.280   .     A
C715   C722    1.415   .     A
C716   H729    1.081   .     S
C717   H735    1.081   .     S
C717   C201    1.381   1_556 S
C718   H737    1.109   .     S
C718   H736    1.109   .     S
C718   H738    1.108   .     S
C718   C728    1.517   .     S
C719   H741    1.109   .     S
C719   H739    1.109   .     S
C719   H740    1.108   .     S
C720   H731    1.110   .     S
C720   H730    1.103   .     S
C720   H742    1.107   .     S
C721   H734    1.102   .     S
C721   H732    1.107   .     S
C721   H733    1.110   .     S
C722   C194    1.381   1_556 S
C724   Br873   1.946   .     S
C724   C899    1.354   .     S
C726   O751    1.291   .     A
C726   O749    1.289   .     A
C727   O752    1.291   .     A
C727   O750    1.289   .     A
N743   Zn754   2.031   .     S
N743   Br759   1.874   .     S
N743   N802    1.281   .     S
N744   Zn753   2.031   .     S
N744   N859    1.281   1_455 S
N744   Br818   1.874   1_455 S
O745   Zn753   1.981   .     S
O746   Zn754   1.981   .     S
O747   Zn754   1.993   .     S
O748   Zn753   1.993   .     S
O749   Zn753   2.006   .     S
O750   Zn754   2.006   .     S
O751   Zn754   2.017   .     S
O752   Zn753   2.017   .     S
Br755  C780    1.930   .     S
Br756  C781    1.930   .     S
Br758  C957    1.946   .     S
Br760  N860    1.874   .     S
C761   C782    1.407   .     S
C761   O803    1.280   .     A
C761   O805    1.297   .     A
C762   C773    1.403   .     A
C762   C777    1.517   .     S
C762   C764    1.403   .     A
C763   C765    1.402   .     A
C763   C785    1.425   .     S
C763   C786    1.403   .     A
C764   C784    1.425   .     S
C764   C766    1.402   .     A
C765   C767    1.399   .     A
C765   C778    1.520   .     S
C766   C779    1.520   .     S
C766   C768    1.399   .     A
C767   C769    1.415   .     A
C767   C774    1.401   .     A
C768   C775    1.401   .     A
C768   C770    1.415   .     A
C769   C771    1.422   .     A
C770   C773    1.422   .     A
C770   C247    1.405   1_556 S
C771   C781    1.415   .     A
C771   C786    1.403   .     A
C772   O806    1.297   .     A
C772   C783    1.407   .     S
C772   O804    1.280   .     A
C773   C780    1.415   .     A
C774   H787    1.081   .     S
C775   H793    1.081   .     S
C775   C259    1.381   1_556 S
C776   H795    1.109   .     S
C776   H794    1.109   .     S
C776   H796    1.108   .     S
C776   C786    1.517   .     S
C777   H799    1.109   .     S
C777   H797    1.109   .     S
C777   H798    1.108   .     S
C778   H789    1.110   .     S
C778   H788    1.103   .     S
C778   H800    1.107   .     S
C779   H792    1.102   .     S
C779   H790    1.107   .     S
C779   H791    1.110   .     S
C780   C252    1.381   1_556 S
C782   Br931   1.946   .     S
C782   C957    1.354   .     S
C784   O809    1.291   .     A
C784   O807    1.289   .     A
C785   O810    1.291   .     A
C785   O808    1.289   .     A
N801   Zn812   2.031   .     S
N801   Br817   1.874   .     S
N801   N860    1.281   .     S
N802   Zn811   2.031   .     S
O803   Zn811   1.981   .     S
O804   Zn812   1.981   .     S
O805   Zn812   1.993   .     S
O806   Zn811   1.993   .     S
O807   Zn811   2.006   .     S
O808   Zn812   2.006   .     S
O809   Zn812   2.017   .     S
O810   Zn811   2.017   .     S
Br813  C838    1.930   .     S
Br814  C839    1.930   .     S
Br816  C1015   1.946   .     S
Br818  N744    1.874   1_655 S
C819   C840    1.407   .     S
C819   O861    1.280   .     A
C819   O863    1.297   .     A
C820   C831    1.403   .     A
C820   C835    1.517   .     S
C820   C822    1.403   .     A
C821   C823    1.402   .     A
C821   C843    1.425   .     S
C821   C844    1.403   .     A
C822   C842    1.425   .     S
C822   C824    1.402   .     A
C823   C825    1.399   .     A
C823   C836    1.520   .     S
C824   C837    1.520   .     S
C824   C826    1.399   .     A
C825   C827    1.415   .     A
C825   C832    1.401   .     A
C826   C833    1.401   .     A
C826   C828    1.415   .     A
C827   C829    1.422   .     A
C828   C831    1.422   .     A
C828   C305    1.405   1_556 S
C829   C839    1.415   .     A
C829   C844    1.403   .     A
C830   O864    1.297   .     A
C830   C841    1.407   .     S
C830   O862    1.280   .     A
C831   C838    1.415   .     A
C832   H845    1.081   .     S
C833   H851    1.081   .     S
C833   C317    1.381   1_556 S
C834   H853    1.109   .     S
C834   H852    1.109   .     S
C834   H854    1.108   .     S
C834   C844    1.517   .     S
C835   H857    1.109   .     S
C835   H855    1.109   .     S
C835   H856    1.108   .     S
C836   H847    1.110   .     S
C836   H846    1.103   .     S
C836   H858    1.107   .     S
C837   H850    1.102   .     S
C837   H848    1.107   .     S
C837   H849    1.110   .     S
C838   C310    1.381   1_556 S
C840   Br989   1.946   .     S
C840   C1015   1.354   .     S
C842   O867    1.291   .     A
C842   O865    1.289   .     A
C843   O868    1.291   .     A
C843   O866    1.289   .     A
N859   Zn870   2.031   .     S
N859   Br701   1.874   1_655 S
N859   N744    1.281   1_655 S
N860   Zn869   2.031   .     S
O861   Zn869   1.981   .     S
O862   Zn870   1.981   .     S
O863   Zn870   1.993   .     S
O864   Zn869   1.993   .     S
O865   Zn869   2.006   .     S
O866   Zn870   2.006   .     S
O867   Zn870   2.017   .     S
O868   Zn869   2.017   .     S
Br871  C896    1.930   .     S
Br872  C897    1.930   .     S
Br874  C551    1.946   1_565 S
Br875  N1033   1.874   1_455 S
Br876  N976    1.874   .     S
C877   C898    1.407   .     S
C877   O919    1.280   .     A
C877   O921    1.297   .     A
C878   C889    1.403   .     A
C878   C893    1.517   .     S
C878   C880    1.403   .     A
C879   C881    1.402   .     A
C879   C901    1.425   .     S
C879   C902    1.403   .     A
C880   C900    1.425   .     S
C880   C882    1.402   .     A
C881   C883    1.399   .     A
C881   C894    1.520   .     S
C882   C895    1.520   .     S
C882   C884    1.399   .     A
C883   C885    1.415   .     A
C883   C890    1.401   .     A
C884   C891    1.401   .     A
C884   C886    1.415   .     A
C885   C887    1.422   .     A
C886   C889    1.422   .     A
C886   C363    1.405   1_556 S
C887   C897    1.415   .     A
C887   C902    1.403   .     A
C888   O922    1.297   .     A
C888   C899    1.407   .     S
C888   O920    1.280   .     A
C889   C896    1.415   .     A
C890   H903    1.081   .     S
C891   H909    1.081   .     S
C891   C375    1.381   1_556 S
C892   H911    1.109   .     S
C892   H910    1.109   .     S
C892   H912    1.108   .     S
C892   C902    1.517   .     S
C893   H915    1.109   .     S
C893   H913    1.109   .     S
C893   H914    1.108   .     S
C894   H905    1.110   .     S
C894   H904    1.103   .     S
C894   H916    1.107   .     S
C895   H908    1.102   .     S
C895   H906    1.107   .     S
C895   H907    1.110   .     S
C896   C368    1.381   1_556 S
C898   Br525   1.946   1_565 S
C898   C551    1.354   1_565 S
C900   O925    1.291   .     A
C900   O923    1.289   .     A
C901   O926    1.291   .     A
C901   O924    1.289   .     A
N917   Zn928   2.031   .     S
N917   Br933   1.874   .     S
N917   N976    1.281   .     S
N918   Zn927   2.031   .     S
N918   N1033   1.281   1_455 S
N918   Br992   1.874   1_455 S
O919   Zn927   1.981   .     S
O920   Zn928   1.981   .     S
O921   Zn928   1.993   .     S
O922   Zn927   1.993   .     S
O923   Zn927   2.006   .     S
O924   Zn928   2.006   .     S
O925   Zn928   2.017   .     S
O926   Zn927   2.017   .     S
Br929  C954    1.930   .     S
Br930  C955    1.930   .     S
Br932  C609    1.946   1_565 S
Br934  N1034   1.874   .     S
C935   C956    1.407   .     S
C935   O977    1.280   .     A
C935   O979    1.297   .     A
C936   C947    1.403   .     A
C936   C951    1.517   .     S
C936   C938    1.403   .     A
C937   C939    1.402   .     A
C937   C959    1.425   .     S
C937   C960    1.403   .     A
C938   C958    1.425   .     S
C938   C940    1.402   .     A
C939   C941    1.399   .     A
C939   C952    1.520   .     S
C940   C953    1.520   .     S
C940   C942    1.399   .     A
C941   C943    1.415   .     A
C941   C948    1.401   .     A
C942   C949    1.401   .     A
C942   C944    1.415   .     A
C943   C945    1.422   .     A
C944   C947    1.422   .     A
C944   C421    1.405   1_556 S
C945   C955    1.415   .     A
C945   C960    1.403   .     A
C946   O980    1.297   .     A
C946   C957    1.407   .     S
C946   O978    1.280   .     A
C947   C954    1.415   .     A
C948   H961    1.081   .     S
C949   H967    1.081   .     S
C949   C433    1.381   1_556 S
C950   H969    1.109   .     S
C950   H968    1.109   .     S
C950   H970    1.108   .     S
C950   C960    1.517   .     S
C951   H973    1.109   .     S
C951   H971    1.109   .     S
C951   H972    1.108   .     S
C952   H963    1.110   .     S
C952   H962    1.103   .     S
C952   H974    1.107   .     S
C953   H966    1.102   .     S
C953   H964    1.107   .     S
C953   H965    1.110   .     S
C954   C426    1.381   1_556 S
C956   Br583   1.946   1_565 S
C956   C609    1.354   1_565 S
C958   O983    1.291   .     A
C958   O981    1.289   .     A
C959   O984    1.291   .     A
C959   O982    1.289   .     A
N975   Zn986   2.031   .     S
N975   Br991   1.874   .     S
N975   N1034   1.281   .     S
N976   Zn985   2.031   .     S
O977   Zn985   1.981   .     S
O978   Zn986   1.981   .     S
O979   Zn986   1.993   .     S
O980   Zn985   1.993   .     S
O981   Zn985   2.006   .     S
O982   Zn986   2.006   .     S
O983   Zn986   2.017   .     S
O984   Zn985   2.017   .     S
Br987  C1012   1.930   .     S
Br988  C1013   1.930   .     S
Br990  C667    1.946   1_565 S
Br992  N918    1.874   1_655 S
C993   C1014   1.407   .     S
C993   O1035   1.280   .     A
C993   O1037   1.297   .     A
C994   C1005   1.403   .     A
C994   C1009   1.517   .     S
C994   C996    1.403   .     A
C995   C997    1.402   .     A
C995   C1017   1.425   .     S
C995   C1018   1.403   .     A
C996   C1016   1.425   .     S
C996   C998    1.402   .     A
C997   C999    1.399   .     A
C997   C1010   1.520   .     S
C998   C1011   1.520   .     S
C998   C1000   1.399   .     A
C999   C1001   1.415   .     A
C999   C1006   1.401   .     A
C1000  C1007   1.401   .     A
C1000  C1002   1.415   .     A
C1001  C1003   1.422   .     A
C1002  C1005   1.422   .     A
C1002  C479    1.405   1_556 S
C1003  C1013   1.415   .     A
C1003  C1018   1.403   .     A
C1004  O1038   1.297   .     A
C1004  C1015   1.407   .     S
C1004  O1036   1.280   .     A
C1005  C1012   1.415   .     A
C1006  H1019   1.081   .     S
C1007  H1025   1.081   .     S
C1007  C491    1.381   1_556 S
C1008  H1027   1.109   .     S
C1008  H1026   1.109   .     S
C1008  H1028   1.108   .     S
C1008  C1018   1.517   .     S
C1009  H1031   1.109   .     S
C1009  H1029   1.109   .     S
C1009  H1030   1.108   .     S
C1010  H1021   1.110   .     S
C1010  H1020   1.103   .     S
C1010  H1032   1.107   .     S
C1011  H1024   1.102   .     S
C1011  H1022   1.107   .     S
C1011  H1023   1.110   .     S
C1012  C484    1.381   1_556 S
C1014  Br641   1.946   1_565 S
C1014  C667    1.354   1_565 S
C1016  O1041   1.291   .     A
C1016  O1039   1.289   .     A
C1017  O1042   1.291   .     A
C1017  O1040   1.289   .     A
N1033  Zn1044  2.031   .     S
N1033  Br875   1.874   1_655 S
N1033  N918    1.281   1_655 S
N1034  Zn1043  2.031   .     S
O1035  Zn1043  1.981   .     S
O1036  Zn1044  1.981   .     S
O1037  Zn1044  1.993   .     S
O1038  Zn1043  1.993   .     S
O1039  Zn1043  2.006   .     S
O1040  Zn1044  2.006   .     S
O1041  Zn1044  2.017   .     S
O1042  Zn1043  2.017   .     S
