data_str_m2_o10_o17_pcu_sym.187
_audit_creation_date              2020-01-03
_audit_creation_method            'Materials Studio'
_symmetry_space_group_name_H-M    'P1'
_symmetry_Int_Tables_number       1
_symmetry_cell_setting            triclinic
loop_
_symmetry_equiv_pos_as_xyz
  x,y,z
_cell_length_a                    30.0749
_cell_length_b                    26.0898
_cell_length_c                    22.3358
_cell_angle_alpha                 102.9551
_cell_angle_beta                  93.6436
_cell_angle_gamma                 92.7340
loop_
_atom_site_label
_atom_site_type_symbol
_atom_site_fract_x
_atom_site_fract_y
_atom_site_fract_z
_atom_site_U_iso_or_equiv
_atom_site_adp_type
_atom_site_occupancy
C1     C     0.24819   0.06656   0.15111   0.00000  Uiso   1.00
C2     C     0.25181   0.26677   0.18222   0.00000  Uiso   1.00
C3     C     0.01712   0.07090   0.12551   0.00000  Uiso   1.00
C4     C     0.48289   0.26246   0.20782   0.00000  Uiso   1.00
C5     C     0.24757   0.01060   0.14237   0.00000  Uiso   1.00
C6     C     0.25243   0.32274   0.19096   0.00000  Uiso   1.00
C7     C     0.16470   0.16606   0.16770   0.00000  Uiso   1.00
C8     C     0.33530   0.16727   0.16564   0.00000  Uiso   1.00
C9     C     0.40865   0.21498   0.17272   0.00000  Uiso   1.00
C10    C     0.09135   0.11837   0.16063   0.00000  Uiso   1.00
C11    C     0.38332   0.16670   0.16299   0.00000  Uiso   1.00
C12    C     0.11668   0.16665   0.17035   0.00000  Uiso   1.00
C13    C     0.40355   0.11832   0.15155   0.00000  Uiso   1.00
C14    C     0.09645   0.21503   0.18177   0.00000  Uiso   1.00
C15    C     0.45021   0.11870   0.14859   0.00000  Uiso   1.00
C16    C     0.04979   0.21465   0.18473   0.00000  Uiso   1.00
C17    C     0.47645   0.16694   0.16601   0.00000  Uiso   1.00
C18    C     0.02355   0.16641   0.16732   0.00000  Uiso   1.00
C19    C     0.45569   0.21555   0.18237   0.00000  Uiso   1.00
C20    C     0.04431   0.11781   0.15097   0.00000  Uiso   1.00
C21    C     0.47101   0.07175   0.12751   0.00000  Uiso   1.00
C22    C     0.02899   0.26160   0.20582   0.00000  Uiso   1.00
Cu23   Cu    0.25500   0.17246   0.22813   0.00000  Uiso   1.00
Cu24   Cu    0.24499   0.16087   0.10521   0.00000  Uiso   1.00
H25    H     0.45138   0.03502   0.10990   0.00000  Uiso   1.00
H26    H     0.04863   0.29833   0.22341   0.00000  Uiso   1.00
H27    H     0.24327   0.32006   0.09551   0.00000  Uiso   1.00
H28    H     0.25673   0.01328   0.23782   0.00000  Uiso   1.00
H29    H     0.21502   0.12604   0.31628   0.00000  Uiso   1.00
H30    H     0.28498   0.20729   0.01705   0.00000  Uiso   1.00
N31    N     0.23744   0.15214   0.01284   0.00000  Uiso   1.00
N32    N     0.26255   0.18119   0.32049   0.00000  Uiso   1.00
O33    O     0.25325   0.09538   0.20659   0.00000  Uiso   1.00
O34    O     0.24674   0.23796   0.12674   0.00000  Uiso   1.00
O35    O     0.24480   0.08559   0.10279   0.00000  Uiso   1.00
O36    O     0.25520   0.24774   0.23055   0.00000  Uiso   1.00
O37    O     0.18935   0.17155   0.21857   0.00000  Uiso   1.00
O38    O     0.31064   0.16179   0.11476   0.00000  Uiso   1.00
O39    O     0.18090   0.16176   0.11477   0.00000  Uiso   1.00
O40    O     0.31910   0.17157   0.21857   0.00000  Uiso   1.00
C41    C     0.38554   0.26342   0.16352   0.00000  Uiso   1.00
H42    H     0.35510   0.25294   0.13148   0.00000  Uiso   1.00
H43    H     0.37552   0.28680   0.20788   0.00000  Uiso   1.00
H44    H     0.40731   0.28726   0.14047   0.00000  Uiso   1.00
C45    C     0.11445   0.06995   0.16988   0.00000  Uiso   1.00
H46    H     0.14481   0.08045   0.20207   0.00000  Uiso   1.00
H47    H     0.09264   0.04603   0.19277   0.00000  Uiso   1.00
H48    H     0.12459   0.04663   0.12555   0.00000  Uiso   1.00
C49    C     0.37579   0.06647   0.14213   0.00000  Uiso   1.00
H50    H     0.38894   0.04397   0.17521   0.00000  Uiso   1.00
H51    H     0.34023   0.07094   0.15039   0.00000  Uiso   1.00
H52    H     0.37698   0.04324   0.09416   0.00000  Uiso   1.00
C53    C     0.12422   0.26687   0.19115   0.00000  Uiso   1.00
H54    H     0.11106   0.28936   0.15805   0.00000  Uiso   1.00
H55    H     0.12303   0.29012   0.23911   0.00000  Uiso   1.00
H56    H     0.15977   0.26239   0.18290   0.00000  Uiso   1.00
C57    C     0.03461   0.02116   0.08821   0.00000  Uiso   1.00
H58    H     0.00806   0.33083   0.05528   0.00000  Uiso   1.00
H59    H     0.06125   0.03094   0.05969   0.00000  Uiso   1.00
H60    H     0.04646   0.32887   0.11841   0.00000  Uiso   1.00
C61    C     0.46540   0.31221   0.24511   0.00000  Uiso   1.00
H62    H     0.49198   0.00262   0.27791   0.00000  Uiso   1.00
H63    H     0.45345   0.00443   0.21488   0.00000  Uiso   1.00
H64    H     0.43885   0.30244   0.27376   0.00000  Uiso   1.00
C65    C     0.74819   0.06656   0.15111   0.00000  Uiso   1.00
C66    C     0.75181   0.26677   0.18222   0.00000  Uiso   1.00
C67    C     0.51712   0.07090   0.12551   0.00000  Uiso   1.00
C68    C     0.98289   0.26246   0.20782   0.00000  Uiso   1.00
C69    C     0.74757   0.01060   0.14237   0.00000  Uiso   1.00
C70    C     0.75243   0.32274   0.19096   0.00000  Uiso   1.00
C71    C     0.66470   0.16606   0.16770   0.00000  Uiso   1.00
C72    C     0.83530   0.16727   0.16564   0.00000  Uiso   1.00
C73    C     0.90865   0.21498   0.17272   0.00000  Uiso   1.00
C74    C     0.59135   0.11837   0.16063   0.00000  Uiso   1.00
C75    C     0.88332   0.16670   0.16299   0.00000  Uiso   1.00
C76    C     0.61668   0.16665   0.17035   0.00000  Uiso   1.00
C77    C     0.90355   0.11832   0.15155   0.00000  Uiso   1.00
C78    C     0.59645   0.21503   0.18177   0.00000  Uiso   1.00
C79    C     0.95021   0.11870   0.14859   0.00000  Uiso   1.00
C80    C     0.54979   0.21465   0.18473   0.00000  Uiso   1.00
C81    C     0.97645   0.16694   0.16601   0.00000  Uiso   1.00
C82    C     0.52355   0.16641   0.16732   0.00000  Uiso   1.00
C83    C     0.95569   0.21555   0.18237   0.00000  Uiso   1.00
C84    C     0.54431   0.11781   0.15097   0.00000  Uiso   1.00
C85    C     0.97101   0.07175   0.12751   0.00000  Uiso   1.00
C86    C     0.52899   0.26160   0.20582   0.00000  Uiso   1.00
Cu87   Cu    0.75500   0.17246   0.22813   0.00000  Uiso   1.00
Cu88   Cu    0.74499   0.16087   0.10521   0.00000  Uiso   1.00
H89    H     0.95138   0.03502   0.10990   0.00000  Uiso   1.00
H90    H     0.54863   0.29833   0.22341   0.00000  Uiso   1.00
H91    H     0.74327   0.32006   0.09551   0.00000  Uiso   1.00
H92    H     0.75673   0.01328   0.23782   0.00000  Uiso   1.00
H93    H     0.71502   0.12604   0.31628   0.00000  Uiso   1.00
H94    H     0.78498   0.20729   0.01705   0.00000  Uiso   1.00
N95    N     0.73744   0.15214   0.01284   0.00000  Uiso   1.00
N96    N     0.76255   0.18119   0.32049   0.00000  Uiso   1.00
O97    O     0.75325   0.09538   0.20659   0.00000  Uiso   1.00
O98    O     0.74674   0.23796   0.12674   0.00000  Uiso   1.00
O99    O     0.74480   0.08559   0.10279   0.00000  Uiso   1.00
O100   O     0.75520   0.24774   0.23055   0.00000  Uiso   1.00
O101   O     0.68935   0.17155   0.21857   0.00000  Uiso   1.00
O102   O     0.81064   0.16179   0.11476   0.00000  Uiso   1.00
O103   O     0.68090   0.16176   0.11477   0.00000  Uiso   1.00
O104   O     0.81910   0.17157   0.21857   0.00000  Uiso   1.00
C105   C     0.88554   0.26342   0.16352   0.00000  Uiso   1.00
H106   H     0.85510   0.25294   0.13148   0.00000  Uiso   1.00
H107   H     0.87552   0.28680   0.20788   0.00000  Uiso   1.00
H108   H     0.90731   0.28726   0.14047   0.00000  Uiso   1.00
C109   C     0.61445   0.06995   0.16988   0.00000  Uiso   1.00
H110   H     0.64481   0.08045   0.20207   0.00000  Uiso   1.00
H111   H     0.59264   0.04603   0.19277   0.00000  Uiso   1.00
H112   H     0.62459   0.04663   0.12555   0.00000  Uiso   1.00
C113   C     0.87579   0.06647   0.14213   0.00000  Uiso   1.00
H114   H     0.88894   0.04397   0.17521   0.00000  Uiso   1.00
H115   H     0.84023   0.07094   0.15039   0.00000  Uiso   1.00
H116   H     0.87698   0.04324   0.09416   0.00000  Uiso   1.00
C117   C     0.62422   0.26687   0.19115   0.00000  Uiso   1.00
H118   H     0.61106   0.28936   0.15805   0.00000  Uiso   1.00
H119   H     0.62303   0.29012   0.23911   0.00000  Uiso   1.00
H120   H     0.65977   0.26239   0.18290   0.00000  Uiso   1.00
C121   C     0.53461   0.02116   0.08821   0.00000  Uiso   1.00
H122   H     0.50806   0.33083   0.05528   0.00000  Uiso   1.00
H123   H     0.56125   0.03094   0.05969   0.00000  Uiso   1.00
H124   H     0.54646   0.32887   0.11841   0.00000  Uiso   1.00
C125   C     0.96540   0.31221   0.24511   0.00000  Uiso   1.00
H126   H     0.99198   0.00262   0.27791   0.00000  Uiso   1.00
H127   H     0.95345   0.00443   0.21488   0.00000  Uiso   1.00
H128   H     0.93885   0.30244   0.27376   0.00000  Uiso   1.00
C129   C     0.24819   0.39989   0.15111   0.00000  Uiso   1.00
C130   C     0.25181   0.60011   0.18222   0.00000  Uiso   1.00
C131   C     0.01712   0.40423   0.12551   0.00000  Uiso   1.00
C132   C     0.48289   0.59579   0.20782   0.00000  Uiso   1.00
C133   C     0.24757   0.34393   0.14237   0.00000  Uiso   1.00
C134   C     0.25243   0.65607   0.19096   0.00000  Uiso   1.00
C135   C     0.16470   0.49940   0.16770   0.00000  Uiso   1.00
C136   C     0.33530   0.50061   0.16564   0.00000  Uiso   1.00
C137   C     0.40865   0.54831   0.17272   0.00000  Uiso   1.00
C138   C     0.09135   0.45171   0.16063   0.00000  Uiso   1.00
C139   C     0.38332   0.50003   0.16299   0.00000  Uiso   1.00
C140   C     0.11668   0.49998   0.17035   0.00000  Uiso   1.00
C141   C     0.40355   0.45165   0.15155   0.00000  Uiso   1.00
C142   C     0.09645   0.54836   0.18177   0.00000  Uiso   1.00
C143   C     0.45021   0.45204   0.14859   0.00000  Uiso   1.00
C144   C     0.04979   0.54798   0.18473   0.00000  Uiso   1.00
C145   C     0.47645   0.50028   0.16601   0.00000  Uiso   1.00
C146   C     0.02355   0.49975   0.16732   0.00000  Uiso   1.00
C147   C     0.45569   0.54888   0.18237   0.00000  Uiso   1.00
C148   C     0.04431   0.45114   0.15097   0.00000  Uiso   1.00
C149   C     0.47101   0.40509   0.12751   0.00000  Uiso   1.00
C150   C     0.02899   0.59493   0.20582   0.00000  Uiso   1.00
Cu151  Cu    0.25500   0.50579   0.22813   0.00000  Uiso   1.00
Cu152  Cu    0.24499   0.49421   0.10521   0.00000  Uiso   1.00
H153   H     0.45138   0.36836   0.10990   0.00000  Uiso   1.00
H154   H     0.04863   0.63166   0.22341   0.00000  Uiso   1.00
H155   H     0.24327   0.65339   0.09551   0.00000  Uiso   1.00
H156   H     0.25673   0.34661   0.23782   0.00000  Uiso   1.00
H157   H     0.21502   0.45938   0.31628   0.00000  Uiso   1.00
H158   H     0.28498   0.54062   0.01705   0.00000  Uiso   1.00
N159   N     0.23744   0.48547   0.01284   0.00000  Uiso   1.00
N160   N     0.26255   0.51453   0.32049   0.00000  Uiso   1.00
O161   O     0.25325   0.42871   0.20659   0.00000  Uiso   1.00
O162   O     0.24674   0.57129   0.12674   0.00000  Uiso   1.00
O163   O     0.24480   0.41892   0.10279   0.00000  Uiso   1.00
O164   O     0.25520   0.58108   0.23055   0.00000  Uiso   1.00
O165   O     0.18935   0.50488   0.21857   0.00000  Uiso   1.00
O166   O     0.31064   0.49512   0.11476   0.00000  Uiso   1.00
O167   O     0.18090   0.49510   0.11477   0.00000  Uiso   1.00
O168   O     0.31910   0.50490   0.21857   0.00000  Uiso   1.00
C169   C     0.38554   0.59675   0.16352   0.00000  Uiso   1.00
H170   H     0.35510   0.58627   0.13148   0.00000  Uiso   1.00
H171   H     0.37552   0.62013   0.20788   0.00000  Uiso   1.00
H172   H     0.40731   0.62059   0.14047   0.00000  Uiso   1.00
C173   C     0.11445   0.40328   0.16988   0.00000  Uiso   1.00
H174   H     0.14481   0.41378   0.20207   0.00000  Uiso   1.00
H175   H     0.09264   0.37936   0.19277   0.00000  Uiso   1.00
H176   H     0.12459   0.37996   0.12555   0.00000  Uiso   1.00
C177   C     0.37579   0.39981   0.14213   0.00000  Uiso   1.00
H178   H     0.38894   0.37730   0.17521   0.00000  Uiso   1.00
H179   H     0.34023   0.40428   0.15039   0.00000  Uiso   1.00
H180   H     0.37698   0.37657   0.09416   0.00000  Uiso   1.00
C181   C     0.12422   0.60020   0.19115   0.00000  Uiso   1.00
H182   H     0.11106   0.62269   0.15805   0.00000  Uiso   1.00
H183   H     0.12303   0.62346   0.23911   0.00000  Uiso   1.00
H184   H     0.15977   0.59573   0.18290   0.00000  Uiso   1.00
C185   C     0.03461   0.35449   0.08821   0.00000  Uiso   1.00
H186   H     0.00806   0.66416   0.05528   0.00000  Uiso   1.00
H187   H     0.06125   0.36427   0.05969   0.00000  Uiso   1.00
H188   H     0.04646   0.66220   0.11841   0.00000  Uiso   1.00
C189   C     0.46540   0.64554   0.24511   0.00000  Uiso   1.00
H190   H     0.49198   0.33596   0.27791   0.00000  Uiso   1.00
H191   H     0.45345   0.33776   0.21488   0.00000  Uiso   1.00
H192   H     0.43885   0.63577   0.27376   0.00000  Uiso   1.00
C193   C     0.74819   0.39989   0.15111   0.00000  Uiso   1.00
C194   C     0.75181   0.60011   0.18222   0.00000  Uiso   1.00
C195   C     0.51712   0.40423   0.12551   0.00000  Uiso   1.00
C196   C     0.98289   0.59579   0.20782   0.00000  Uiso   1.00
C197   C     0.74757   0.34393   0.14237   0.00000  Uiso   1.00
C198   C     0.75243   0.65607   0.19096   0.00000  Uiso   1.00
C199   C     0.66470   0.49940   0.16770   0.00000  Uiso   1.00
C200   C     0.83530   0.50061   0.16564   0.00000  Uiso   1.00
C201   C     0.90865   0.54831   0.17272   0.00000  Uiso   1.00
C202   C     0.59135   0.45171   0.16063   0.00000  Uiso   1.00
C203   C     0.88332   0.50003   0.16299   0.00000  Uiso   1.00
C204   C     0.61668   0.49998   0.17035   0.00000  Uiso   1.00
C205   C     0.90355   0.45165   0.15155   0.00000  Uiso   1.00
C206   C     0.59645   0.54836   0.18177   0.00000  Uiso   1.00
C207   C     0.95021   0.45204   0.14859   0.00000  Uiso   1.00
C208   C     0.54979   0.54798   0.18473   0.00000  Uiso   1.00
C209   C     0.97645   0.50028   0.16601   0.00000  Uiso   1.00
C210   C     0.52355   0.49975   0.16732   0.00000  Uiso   1.00
C211   C     0.95569   0.54888   0.18237   0.00000  Uiso   1.00
C212   C     0.54431   0.45114   0.15097   0.00000  Uiso   1.00
C213   C     0.97101   0.40509   0.12751   0.00000  Uiso   1.00
C214   C     0.52899   0.59493   0.20582   0.00000  Uiso   1.00
Cu215  Cu    0.75500   0.50579   0.22813   0.00000  Uiso   1.00
Cu216  Cu    0.74499   0.49421   0.10521   0.00000  Uiso   1.00
H217   H     0.95138   0.36836   0.10990   0.00000  Uiso   1.00
H218   H     0.54863   0.63166   0.22341   0.00000  Uiso   1.00
H219   H     0.74327   0.65339   0.09551   0.00000  Uiso   1.00
H220   H     0.75673   0.34661   0.23782   0.00000  Uiso   1.00
H221   H     0.71502   0.45938   0.31628   0.00000  Uiso   1.00
H222   H     0.78498   0.54062   0.01705   0.00000  Uiso   1.00
N223   N     0.73744   0.48547   0.01284   0.00000  Uiso   1.00
N224   N     0.76255   0.51453   0.32049   0.00000  Uiso   1.00
O225   O     0.75325   0.42871   0.20659   0.00000  Uiso   1.00
O226   O     0.74674   0.57129   0.12674   0.00000  Uiso   1.00
O227   O     0.74480   0.41892   0.10279   0.00000  Uiso   1.00
O228   O     0.75520   0.58108   0.23055   0.00000  Uiso   1.00
O229   O     0.68935   0.50488   0.21857   0.00000  Uiso   1.00
O230   O     0.81064   0.49512   0.11476   0.00000  Uiso   1.00
O231   O     0.68090   0.49510   0.11477   0.00000  Uiso   1.00
O232   O     0.81910   0.50490   0.21857   0.00000  Uiso   1.00
C233   C     0.88554   0.59675   0.16352   0.00000  Uiso   1.00
H234   H     0.85510   0.58627   0.13148   0.00000  Uiso   1.00
H235   H     0.87552   0.62013   0.20788   0.00000  Uiso   1.00
H236   H     0.90731   0.62059   0.14047   0.00000  Uiso   1.00
C237   C     0.61445   0.40328   0.16988   0.00000  Uiso   1.00
H238   H     0.64481   0.41378   0.20207   0.00000  Uiso   1.00
H239   H     0.59264   0.37936   0.19277   0.00000  Uiso   1.00
H240   H     0.62459   0.37996   0.12555   0.00000  Uiso   1.00
C241   C     0.87579   0.39981   0.14213   0.00000  Uiso   1.00
H242   H     0.88894   0.37730   0.17521   0.00000  Uiso   1.00
H243   H     0.84023   0.40428   0.15039   0.00000  Uiso   1.00
H244   H     0.87698   0.37657   0.09416   0.00000  Uiso   1.00
C245   C     0.62422   0.60020   0.19115   0.00000  Uiso   1.00
H246   H     0.61106   0.62269   0.15805   0.00000  Uiso   1.00
H247   H     0.62303   0.62346   0.23911   0.00000  Uiso   1.00
H248   H     0.65977   0.59573   0.18290   0.00000  Uiso   1.00
C249   C     0.53461   0.35449   0.08821   0.00000  Uiso   1.00
H250   H     0.50806   0.66416   0.05528   0.00000  Uiso   1.00
H251   H     0.56125   0.36427   0.05969   0.00000  Uiso   1.00
H252   H     0.54646   0.66220   0.11841   0.00000  Uiso   1.00
C253   C     0.96540   0.64554   0.24511   0.00000  Uiso   1.00
H254   H     0.99198   0.33596   0.27791   0.00000  Uiso   1.00
H255   H     0.95345   0.33776   0.21488   0.00000  Uiso   1.00
H256   H     0.93885   0.63577   0.27376   0.00000  Uiso   1.00
C257   C     0.24819   0.73323   0.15111   0.00000  Uiso   1.00
C258   C     0.25181   0.93344   0.18222   0.00000  Uiso   1.00
C259   C     0.01712   0.73756   0.12551   0.00000  Uiso   1.00
C260   C     0.48289   0.92913   0.20782   0.00000  Uiso   1.00
C261   C     0.24757   0.67726   0.14237   0.00000  Uiso   1.00
C262   C     0.25243   0.98940   0.19096   0.00000  Uiso   1.00
C263   C     0.16470   0.83273   0.16770   0.00000  Uiso   1.00
C264   C     0.33530   0.83394   0.16564   0.00000  Uiso   1.00
C265   C     0.40865   0.88165   0.17272   0.00000  Uiso   1.00
C266   C     0.09135   0.78504   0.16063   0.00000  Uiso   1.00
C267   C     0.38332   0.83337   0.16299   0.00000  Uiso   1.00
C268   C     0.11668   0.83331   0.17035   0.00000  Uiso   1.00
C269   C     0.40355   0.78499   0.15155   0.00000  Uiso   1.00
C270   C     0.09645   0.88170   0.18177   0.00000  Uiso   1.00
C271   C     0.45021   0.78537   0.14859   0.00000  Uiso   1.00
C272   C     0.04979   0.88131   0.18473   0.00000  Uiso   1.00
C273   C     0.47645   0.83361   0.16601   0.00000  Uiso   1.00
C274   C     0.02355   0.83308   0.16732   0.00000  Uiso   1.00
C275   C     0.45569   0.88222   0.18237   0.00000  Uiso   1.00
C276   C     0.04431   0.78447   0.15097   0.00000  Uiso   1.00
C277   C     0.47101   0.73842   0.12751   0.00000  Uiso   1.00
C278   C     0.02899   0.92826   0.20582   0.00000  Uiso   1.00
Cu279  Cu    0.25500   0.83913   0.22813   0.00000  Uiso   1.00
Cu280  Cu    0.24499   0.82754   0.10521   0.00000  Uiso   1.00
H281   H     0.45138   0.70169   0.10990   0.00000  Uiso   1.00
H282   H     0.04863   0.96499   0.22341   0.00000  Uiso   1.00
H283   H     0.24327   0.98672   0.09551   0.00000  Uiso   1.00
H284   H     0.25673   0.67994   0.23782   0.00000  Uiso   1.00
H285   H     0.21502   0.79271   0.31628   0.00000  Uiso   1.00
H286   H     0.28498   0.87396   0.01705   0.00000  Uiso   1.00
N287   N     0.23744   0.81881   0.01284   0.00000  Uiso   1.00
N288   N     0.26255   0.84786   0.32049   0.00000  Uiso   1.00
O289   O     0.25325   0.76204   0.20659   0.00000  Uiso   1.00
O290   O     0.24674   0.90462   0.12674   0.00000  Uiso   1.00
O291   O     0.24480   0.75226   0.10279   0.00000  Uiso   1.00
O292   O     0.25520   0.91441   0.23055   0.00000  Uiso   1.00
O293   O     0.18935   0.83821   0.21857   0.00000  Uiso   1.00
O294   O     0.31064   0.82845   0.11476   0.00000  Uiso   1.00
O295   O     0.18090   0.82843   0.11477   0.00000  Uiso   1.00
O296   O     0.31910   0.83824   0.21857   0.00000  Uiso   1.00
C297   C     0.38554   0.93008   0.16352   0.00000  Uiso   1.00
H298   H     0.35510   0.91961   0.13148   0.00000  Uiso   1.00
H299   H     0.37552   0.95346   0.20788   0.00000  Uiso   1.00
H300   H     0.40731   0.95393   0.14047   0.00000  Uiso   1.00
C301   C     0.11445   0.73661   0.16988   0.00000  Uiso   1.00
H302   H     0.14481   0.74712   0.20207   0.00000  Uiso   1.00
H303   H     0.09264   0.71270   0.19277   0.00000  Uiso   1.00
H304   H     0.12459   0.71330   0.12555   0.00000  Uiso   1.00
C305   C     0.37579   0.73314   0.14213   0.00000  Uiso   1.00
H306   H     0.38894   0.71063   0.17521   0.00000  Uiso   1.00
H307   H     0.34023   0.73761   0.15039   0.00000  Uiso   1.00
H308   H     0.37698   0.70991   0.09416   0.00000  Uiso   1.00
C309   C     0.12422   0.93354   0.19115   0.00000  Uiso   1.00
H310   H     0.11106   0.95603   0.15805   0.00000  Uiso   1.00
H311   H     0.12303   0.95679   0.23911   0.00000  Uiso   1.00
H312   H     0.15977   0.92906   0.18290   0.00000  Uiso   1.00
C313   C     0.03461   0.68783   0.08821   0.00000  Uiso   1.00
H314   H     0.00806   0.99750   0.05528   0.00000  Uiso   1.00
H315   H     0.06125   0.69760   0.05969   0.00000  Uiso   1.00
H316   H     0.04646   0.99554   0.11841   0.00000  Uiso   1.00
C317   C     0.46540   0.97888   0.24511   0.00000  Uiso   1.00
H318   H     0.49198   0.66929   0.27791   0.00000  Uiso   1.00
H319   H     0.45345   0.67109   0.21488   0.00000  Uiso   1.00
H320   H     0.43885   0.96910   0.27376   0.00000  Uiso   1.00
C321   C     0.74819   0.73323   0.15111   0.00000  Uiso   1.00
C322   C     0.75181   0.93344   0.18222   0.00000  Uiso   1.00
C323   C     0.51712   0.73756   0.12551   0.00000  Uiso   1.00
C324   C     0.98289   0.92913   0.20782   0.00000  Uiso   1.00
C325   C     0.74757   0.67726   0.14237   0.00000  Uiso   1.00
C326   C     0.75243   0.98940   0.19096   0.00000  Uiso   1.00
C327   C     0.66470   0.83273   0.16770   0.00000  Uiso   1.00
C328   C     0.83530   0.83394   0.16564   0.00000  Uiso   1.00
C329   C     0.90865   0.88165   0.17272   0.00000  Uiso   1.00
C330   C     0.59135   0.78504   0.16063   0.00000  Uiso   1.00
C331   C     0.88332   0.83337   0.16299   0.00000  Uiso   1.00
C332   C     0.61668   0.83331   0.17035   0.00000  Uiso   1.00
C333   C     0.90355   0.78499   0.15155   0.00000  Uiso   1.00
C334   C     0.59645   0.88170   0.18177   0.00000  Uiso   1.00
C335   C     0.95021   0.78537   0.14859   0.00000  Uiso   1.00
C336   C     0.54979   0.88131   0.18473   0.00000  Uiso   1.00
C337   C     0.97645   0.83361   0.16601   0.00000  Uiso   1.00
C338   C     0.52355   0.83308   0.16732   0.00000  Uiso   1.00
C339   C     0.95569   0.88222   0.18237   0.00000  Uiso   1.00
C340   C     0.54431   0.78447   0.15097   0.00000  Uiso   1.00
C341   C     0.97101   0.73842   0.12751   0.00000  Uiso   1.00
C342   C     0.52899   0.92826   0.20582   0.00000  Uiso   1.00
Cu343  Cu    0.75500   0.83913   0.22813   0.00000  Uiso   1.00
Cu344  Cu    0.74499   0.82754   0.10521   0.00000  Uiso   1.00
H345   H     0.95138   0.70169   0.10990   0.00000  Uiso   1.00
H346   H     0.54863   0.96499   0.22341   0.00000  Uiso   1.00
H347   H     0.74327   0.98672   0.09551   0.00000  Uiso   1.00
H348   H     0.75673   0.67994   0.23782   0.00000  Uiso   1.00
H349   H     0.71502   0.79271   0.31628   0.00000  Uiso   1.00
H350   H     0.78498   0.87396   0.01705   0.00000  Uiso   1.00
N351   N     0.73744   0.81881   0.01284   0.00000  Uiso   1.00
N352   N     0.76255   0.84786   0.32049   0.00000  Uiso   1.00
O353   O     0.75325   0.76204   0.20659   0.00000  Uiso   1.00
O354   O     0.74674   0.90462   0.12674   0.00000  Uiso   1.00
O355   O     0.74480   0.75226   0.10279   0.00000  Uiso   1.00
O356   O     0.75520   0.91441   0.23055   0.00000  Uiso   1.00
O357   O     0.68935   0.83821   0.21857   0.00000  Uiso   1.00
O358   O     0.81064   0.82845   0.11476   0.00000  Uiso   1.00
O359   O     0.68090   0.82843   0.11477   0.00000  Uiso   1.00
O360   O     0.81910   0.83824   0.21857   0.00000  Uiso   1.00
C361   C     0.88554   0.93008   0.16352   0.00000  Uiso   1.00
H362   H     0.85510   0.91961   0.13148   0.00000  Uiso   1.00
H363   H     0.87552   0.95346   0.20788   0.00000  Uiso   1.00
H364   H     0.90731   0.95393   0.14047   0.00000  Uiso   1.00
C365   C     0.61445   0.73661   0.16988   0.00000  Uiso   1.00
H366   H     0.64481   0.74712   0.20207   0.00000  Uiso   1.00
H367   H     0.59264   0.71270   0.19277   0.00000  Uiso   1.00
H368   H     0.62459   0.71330   0.12555   0.00000  Uiso   1.00
C369   C     0.87579   0.73314   0.14213   0.00000  Uiso   1.00
H370   H     0.88894   0.71063   0.17521   0.00000  Uiso   1.00
H371   H     0.84023   0.73761   0.15039   0.00000  Uiso   1.00
H372   H     0.87698   0.70991   0.09416   0.00000  Uiso   1.00
C373   C     0.62422   0.93354   0.19115   0.00000  Uiso   1.00
H374   H     0.61106   0.95603   0.15805   0.00000  Uiso   1.00
H375   H     0.62303   0.95679   0.23911   0.00000  Uiso   1.00
H376   H     0.65977   0.92906   0.18290   0.00000  Uiso   1.00
C377   C     0.53461   0.68783   0.08821   0.00000  Uiso   1.00
H378   H     0.50806   0.99750   0.05528   0.00000  Uiso   1.00
H379   H     0.56125   0.69760   0.05969   0.00000  Uiso   1.00
H380   H     0.54646   0.99554   0.11841   0.00000  Uiso   1.00
C381   C     0.96540   0.97888   0.24511   0.00000  Uiso   1.00
H382   H     0.99198   0.66929   0.27791   0.00000  Uiso   1.00
H383   H     0.95345   0.67109   0.21488   0.00000  Uiso   1.00
H384   H     0.93885   0.96910   0.27376   0.00000  Uiso   1.00
C385   C     0.24819   0.06656   0.48445   0.00000  Uiso   1.00
C386   C     0.25181   0.26677   0.51555   0.00000  Uiso   1.00
C387   C     0.01712   0.07090   0.45884   0.00000  Uiso   1.00
C388   C     0.48289   0.26246   0.54115   0.00000  Uiso   1.00
C389   C     0.24757   0.01060   0.47570   0.00000  Uiso   1.00
C390   C     0.25243   0.32274   0.52430   0.00000  Uiso   1.00
C391   C     0.16470   0.16606   0.50103   0.00000  Uiso   1.00
C392   C     0.33530   0.16727   0.49897   0.00000  Uiso   1.00
C393   C     0.40865   0.21498   0.50606   0.00000  Uiso   1.00
C394   C     0.09135   0.11837   0.49397   0.00000  Uiso   1.00
C395   C     0.38332   0.16670   0.49632   0.00000  Uiso   1.00
C396   C     0.11668   0.16665   0.50368   0.00000  Uiso   1.00
C397   C     0.40355   0.11832   0.48488   0.00000  Uiso   1.00
C398   C     0.09645   0.21503   0.51510   0.00000  Uiso   1.00
C399   C     0.45021   0.11870   0.48193   0.00000  Uiso   1.00
C400   C     0.04979   0.21465   0.51806   0.00000  Uiso   1.00
C401   C     0.47645   0.16694   0.49935   0.00000  Uiso   1.00
C402   C     0.02355   0.16641   0.50066   0.00000  Uiso   1.00
C403   C     0.45569   0.21555   0.51570   0.00000  Uiso   1.00
C404   C     0.04431   0.11781   0.48431   0.00000  Uiso   1.00
C405   C     0.47101   0.07175   0.46084   0.00000  Uiso   1.00
C406   C     0.02899   0.26160   0.53915   0.00000  Uiso   1.00
Cu407  Cu    0.25500   0.17246   0.56146   0.00000  Uiso   1.00
Cu408  Cu    0.24499   0.16087   0.43854   0.00000  Uiso   1.00
H409   H     0.45138   0.03502   0.44323   0.00000  Uiso   1.00
H410   H     0.04863   0.29833   0.55674   0.00000  Uiso   1.00
H411   H     0.24327   0.32006   0.42885   0.00000  Uiso   1.00
H412   H     0.25673   0.01328   0.57115   0.00000  Uiso   1.00
H413   H     0.21502   0.12604   0.64961   0.00000  Uiso   1.00
H414   H     0.28498   0.20729   0.35039   0.00000  Uiso   1.00
N415   N     0.23744   0.15214   0.34617   0.00000  Uiso   1.00
N416   N     0.26255   0.18119   0.65383   0.00000  Uiso   1.00
O417   O     0.25325   0.09538   0.53992   0.00000  Uiso   1.00
O418   O     0.24674   0.23796   0.46008   0.00000  Uiso   1.00
O419   O     0.24480   0.08559   0.43612   0.00000  Uiso   1.00
O420   O     0.25520   0.24774   0.56388   0.00000  Uiso   1.00
O421   O     0.18935   0.17155   0.55191   0.00000  Uiso   1.00
O422   O     0.31064   0.16179   0.44809   0.00000  Uiso   1.00
O423   O     0.18090   0.16176   0.44810   0.00000  Uiso   1.00
O424   O     0.31910   0.17157   0.55190   0.00000  Uiso   1.00
C425   C     0.38554   0.26342   0.49685   0.00000  Uiso   1.00
H426   H     0.35510   0.25294   0.46481   0.00000  Uiso   1.00
H427   H     0.37552   0.28680   0.54122   0.00000  Uiso   1.00
H428   H     0.40731   0.28726   0.47380   0.00000  Uiso   1.00
C429   C     0.11445   0.06995   0.50321   0.00000  Uiso   1.00
H430   H     0.14481   0.08045   0.53540   0.00000  Uiso   1.00
H431   H     0.09264   0.04603   0.52611   0.00000  Uiso   1.00
H432   H     0.12459   0.04663   0.45889   0.00000  Uiso   1.00
C433   C     0.37579   0.06647   0.47546   0.00000  Uiso   1.00
H434   H     0.38894   0.04397   0.50855   0.00000  Uiso   1.00
H435   H     0.34023   0.07094   0.48372   0.00000  Uiso   1.00
H436   H     0.37698   0.04324   0.42750   0.00000  Uiso   1.00
C437   C     0.12422   0.26687   0.52449   0.00000  Uiso   1.00
H438   H     0.11106   0.28936   0.49138   0.00000  Uiso   1.00
H439   H     0.12303   0.29012   0.57244   0.00000  Uiso   1.00
H440   H     0.15977   0.26239   0.51623   0.00000  Uiso   1.00
C441   C     0.03461   0.02116   0.42154   0.00000  Uiso   1.00
H442   H     0.00806   0.33083   0.38861   0.00000  Uiso   1.00
H443   H     0.06125   0.03094   0.39302   0.00000  Uiso   1.00
H444   H     0.04646   0.32887   0.45174   0.00000  Uiso   1.00
C445   C     0.46540   0.31221   0.57844   0.00000  Uiso   1.00
H446   H     0.49198   0.00262   0.61124   0.00000  Uiso   1.00
H447   H     0.45345   0.00443   0.54821   0.00000  Uiso   1.00
H448   H     0.43885   0.30244   0.60709   0.00000  Uiso   1.00
C449   C     0.74819   0.06656   0.48445   0.00000  Uiso   1.00
C450   C     0.75181   0.26677   0.51555   0.00000  Uiso   1.00
C451   C     0.51712   0.07090   0.45884   0.00000  Uiso   1.00
C452   C     0.98289   0.26246   0.54115   0.00000  Uiso   1.00
C453   C     0.74757   0.01060   0.47570   0.00000  Uiso   1.00
C454   C     0.75243   0.32274   0.52430   0.00000  Uiso   1.00
C455   C     0.66470   0.16606   0.50103   0.00000  Uiso   1.00
C456   C     0.83530   0.16727   0.49897   0.00000  Uiso   1.00
C457   C     0.90865   0.21498   0.50606   0.00000  Uiso   1.00
C458   C     0.59135   0.11837   0.49397   0.00000  Uiso   1.00
C459   C     0.88332   0.16670   0.49632   0.00000  Uiso   1.00
C460   C     0.61668   0.16665   0.50368   0.00000  Uiso   1.00
C461   C     0.90355   0.11832   0.48488   0.00000  Uiso   1.00
C462   C     0.59645   0.21503   0.51510   0.00000  Uiso   1.00
C463   C     0.95021   0.11870   0.48193   0.00000  Uiso   1.00
C464   C     0.54979   0.21465   0.51806   0.00000  Uiso   1.00
C465   C     0.97645   0.16694   0.49935   0.00000  Uiso   1.00
C466   C     0.52355   0.16641   0.50066   0.00000  Uiso   1.00
C467   C     0.95569   0.21555   0.51570   0.00000  Uiso   1.00
C468   C     0.54431   0.11781   0.48431   0.00000  Uiso   1.00
C469   C     0.97101   0.07175   0.46084   0.00000  Uiso   1.00
C470   C     0.52899   0.26160   0.53915   0.00000  Uiso   1.00
Cu471  Cu    0.75500   0.17246   0.56146   0.00000  Uiso   1.00
Cu472  Cu    0.74499   0.16087   0.43854   0.00000  Uiso   1.00
H473   H     0.95138   0.03502   0.44323   0.00000  Uiso   1.00
H474   H     0.54863   0.29833   0.55674   0.00000  Uiso   1.00
H475   H     0.74327   0.32006   0.42885   0.00000  Uiso   1.00
H476   H     0.75673   0.01328   0.57115   0.00000  Uiso   1.00
H477   H     0.71502   0.12604   0.64961   0.00000  Uiso   1.00
H478   H     0.78498   0.20729   0.35039   0.00000  Uiso   1.00
N479   N     0.73744   0.15214   0.34617   0.00000  Uiso   1.00
N480   N     0.76255   0.18119   0.65383   0.00000  Uiso   1.00
O481   O     0.75325   0.09538   0.53992   0.00000  Uiso   1.00
O482   O     0.74674   0.23796   0.46008   0.00000  Uiso   1.00
O483   O     0.74480   0.08559   0.43612   0.00000  Uiso   1.00
O484   O     0.75520   0.24774   0.56388   0.00000  Uiso   1.00
O485   O     0.68935   0.17155   0.55191   0.00000  Uiso   1.00
O486   O     0.81064   0.16179   0.44809   0.00000  Uiso   1.00
O487   O     0.68090   0.16176   0.44810   0.00000  Uiso   1.00
O488   O     0.81910   0.17157   0.55190   0.00000  Uiso   1.00
C489   C     0.88554   0.26342   0.49685   0.00000  Uiso   1.00
H490   H     0.85510   0.25294   0.46481   0.00000  Uiso   1.00
H491   H     0.87552   0.28680   0.54122   0.00000  Uiso   1.00
H492   H     0.90731   0.28726   0.47380   0.00000  Uiso   1.00
C493   C     0.61445   0.06995   0.50321   0.00000  Uiso   1.00
H494   H     0.64481   0.08045   0.53540   0.00000  Uiso   1.00
H495   H     0.59264   0.04603   0.52611   0.00000  Uiso   1.00
H496   H     0.62459   0.04663   0.45889   0.00000  Uiso   1.00
C497   C     0.87579   0.06647   0.47546   0.00000  Uiso   1.00
H498   H     0.88894   0.04397   0.50855   0.00000  Uiso   1.00
H499   H     0.84023   0.07094   0.48372   0.00000  Uiso   1.00
H500   H     0.87698   0.04324   0.42750   0.00000  Uiso   1.00
C501   C     0.62422   0.26687   0.52449   0.00000  Uiso   1.00
H502   H     0.61106   0.28936   0.49138   0.00000  Uiso   1.00
H503   H     0.62303   0.29012   0.57244   0.00000  Uiso   1.00
H504   H     0.65977   0.26239   0.51623   0.00000  Uiso   1.00
C505   C     0.53461   0.02116   0.42154   0.00000  Uiso   1.00
H506   H     0.50806   0.33083   0.38861   0.00000  Uiso   1.00
H507   H     0.56125   0.03094   0.39302   0.00000  Uiso   1.00
H508   H     0.54646   0.32887   0.45174   0.00000  Uiso   1.00
C509   C     0.96540   0.31221   0.57844   0.00000  Uiso   1.00
H510   H     0.99198   0.00262   0.61124   0.00000  Uiso   1.00
H511   H     0.95345   0.00443   0.54821   0.00000  Uiso   1.00
H512   H     0.93885   0.30244   0.60709   0.00000  Uiso   1.00
C513   C     0.24819   0.39989   0.48445   0.00000  Uiso   1.00
C514   C     0.25181   0.60011   0.51555   0.00000  Uiso   1.00
C515   C     0.01712   0.40423   0.45884   0.00000  Uiso   1.00
C516   C     0.48289   0.59579   0.54115   0.00000  Uiso   1.00
C517   C     0.24757   0.34393   0.47570   0.00000  Uiso   1.00
C518   C     0.25243   0.65607   0.52430   0.00000  Uiso   1.00
C519   C     0.16470   0.49940   0.50103   0.00000  Uiso   1.00
C520   C     0.33530   0.50061   0.49897   0.00000  Uiso   1.00
C521   C     0.40865   0.54831   0.50606   0.00000  Uiso   1.00
C522   C     0.09135   0.45171   0.49397   0.00000  Uiso   1.00
C523   C     0.38332   0.50003   0.49632   0.00000  Uiso   1.00
C524   C     0.11668   0.49998   0.50368   0.00000  Uiso   1.00
C525   C     0.40355   0.45165   0.48488   0.00000  Uiso   1.00
C526   C     0.09645   0.54836   0.51510   0.00000  Uiso   1.00
C527   C     0.45021   0.45204   0.48193   0.00000  Uiso   1.00
C528   C     0.04979   0.54798   0.51806   0.00000  Uiso   1.00
C529   C     0.47645   0.50028   0.49935   0.00000  Uiso   1.00
C530   C     0.02355   0.49975   0.50066   0.00000  Uiso   1.00
C531   C     0.45569   0.54888   0.51570   0.00000  Uiso   1.00
C532   C     0.04431   0.45114   0.48431   0.00000  Uiso   1.00
C533   C     0.47101   0.40509   0.46084   0.00000  Uiso   1.00
C534   C     0.02899   0.59493   0.53915   0.00000  Uiso   1.00
Cu535  Cu    0.25500   0.50579   0.56146   0.00000  Uiso   1.00
Cu536  Cu    0.24499   0.49421   0.43854   0.00000  Uiso   1.00
H537   H     0.45138   0.36836   0.44323   0.00000  Uiso   1.00
H538   H     0.04863   0.63166   0.55674   0.00000  Uiso   1.00
H539   H     0.24327   0.65339   0.42885   0.00000  Uiso   1.00
H540   H     0.25673   0.34661   0.57115   0.00000  Uiso   1.00
H541   H     0.21502   0.45938   0.64961   0.00000  Uiso   1.00
H542   H     0.28498   0.54062   0.35039   0.00000  Uiso   1.00
N543   N     0.23744   0.48547   0.34617   0.00000  Uiso   1.00
N544   N     0.26255   0.51453   0.65383   0.00000  Uiso   1.00
O545   O     0.25325   0.42871   0.53992   0.00000  Uiso   1.00
O546   O     0.24674   0.57129   0.46008   0.00000  Uiso   1.00
O547   O     0.24480   0.41892   0.43612   0.00000  Uiso   1.00
O548   O     0.25520   0.58108   0.56388   0.00000  Uiso   1.00
O549   O     0.18935   0.50488   0.55191   0.00000  Uiso   1.00
O550   O     0.31064   0.49512   0.44809   0.00000  Uiso   1.00
O551   O     0.18090   0.49510   0.44810   0.00000  Uiso   1.00
O552   O     0.31910   0.50490   0.55190   0.00000  Uiso   1.00
C553   C     0.38554   0.59675   0.49685   0.00000  Uiso   1.00
H554   H     0.35510   0.58627   0.46481   0.00000  Uiso   1.00
H555   H     0.37552   0.62013   0.54122   0.00000  Uiso   1.00
H556   H     0.40731   0.62059   0.47380   0.00000  Uiso   1.00
C557   C     0.11445   0.40328   0.50321   0.00000  Uiso   1.00
H558   H     0.14481   0.41378   0.53540   0.00000  Uiso   1.00
H559   H     0.09264   0.37936   0.52611   0.00000  Uiso   1.00
H560   H     0.12459   0.37996   0.45889   0.00000  Uiso   1.00
C561   C     0.37579   0.39981   0.47546   0.00000  Uiso   1.00
H562   H     0.38894   0.37730   0.50855   0.00000  Uiso   1.00
H563   H     0.34023   0.40428   0.48372   0.00000  Uiso   1.00
H564   H     0.37698   0.37657   0.42750   0.00000  Uiso   1.00
C565   C     0.12422   0.60020   0.52449   0.00000  Uiso   1.00
H566   H     0.11106   0.62269   0.49138   0.00000  Uiso   1.00
H567   H     0.12303   0.62346   0.57244   0.00000  Uiso   1.00
H568   H     0.15977   0.59573   0.51623   0.00000  Uiso   1.00
C569   C     0.03461   0.35449   0.42154   0.00000  Uiso   1.00
H570   H     0.00806   0.66416   0.38861   0.00000  Uiso   1.00
H571   H     0.06125   0.36427   0.39302   0.00000  Uiso   1.00
H572   H     0.04646   0.66220   0.45174   0.00000  Uiso   1.00
C573   C     0.46540   0.64554   0.57844   0.00000  Uiso   1.00
H574   H     0.49198   0.33596   0.61124   0.00000  Uiso   1.00
H575   H     0.45345   0.33776   0.54821   0.00000  Uiso   1.00
H576   H     0.43885   0.63577   0.60709   0.00000  Uiso   1.00
C577   C     0.74819   0.39989   0.48445   0.00000  Uiso   1.00
C578   C     0.75181   0.60011   0.51555   0.00000  Uiso   1.00
C579   C     0.51712   0.40423   0.45884   0.00000  Uiso   1.00
C580   C     0.98289   0.59579   0.54115   0.00000  Uiso   1.00
C581   C     0.74757   0.34393   0.47570   0.00000  Uiso   1.00
C582   C     0.75243   0.65607   0.52430   0.00000  Uiso   1.00
C583   C     0.66470   0.49940   0.50103   0.00000  Uiso   1.00
C584   C     0.83530   0.50061   0.49897   0.00000  Uiso   1.00
C585   C     0.90865   0.54831   0.50606   0.00000  Uiso   1.00
C586   C     0.59135   0.45171   0.49397   0.00000  Uiso   1.00
C587   C     0.88332   0.50003   0.49632   0.00000  Uiso   1.00
C588   C     0.61668   0.49998   0.50368   0.00000  Uiso   1.00
C589   C     0.90355   0.45165   0.48488   0.00000  Uiso   1.00
C590   C     0.59645   0.54836   0.51510   0.00000  Uiso   1.00
C591   C     0.95021   0.45204   0.48193   0.00000  Uiso   1.00
C592   C     0.54979   0.54798   0.51806   0.00000  Uiso   1.00
C593   C     0.97645   0.50028   0.49935   0.00000  Uiso   1.00
C594   C     0.52355   0.49975   0.50066   0.00000  Uiso   1.00
C595   C     0.95569   0.54888   0.51570   0.00000  Uiso   1.00
C596   C     0.54431   0.45114   0.48431   0.00000  Uiso   1.00
C597   C     0.97101   0.40509   0.46084   0.00000  Uiso   1.00
C598   C     0.52899   0.59493   0.53915   0.00000  Uiso   1.00
Cu599  Cu    0.75500   0.50579   0.56146   0.00000  Uiso   1.00
Cu600  Cu    0.74499   0.49421   0.43854   0.00000  Uiso   1.00
H601   H     0.95138   0.36836   0.44323   0.00000  Uiso   1.00
H602   H     0.54863   0.63166   0.55674   0.00000  Uiso   1.00
H603   H     0.74327   0.65339   0.42885   0.00000  Uiso   1.00
H604   H     0.75673   0.34661   0.57115   0.00000  Uiso   1.00
H605   H     0.71502   0.45938   0.64961   0.00000  Uiso   1.00
H606   H     0.78498   0.54062   0.35039   0.00000  Uiso   1.00
N607   N     0.73744   0.48547   0.34617   0.00000  Uiso   1.00
N608   N     0.76255   0.51453   0.65383   0.00000  Uiso   1.00
O609   O     0.75325   0.42871   0.53992   0.00000  Uiso   1.00
O610   O     0.74674   0.57129   0.46008   0.00000  Uiso   1.00
O611   O     0.74480   0.41892   0.43612   0.00000  Uiso   1.00
O612   O     0.75520   0.58108   0.56388   0.00000  Uiso   1.00
O613   O     0.68935   0.50488   0.55191   0.00000  Uiso   1.00
O614   O     0.81064   0.49512   0.44809   0.00000  Uiso   1.00
O615   O     0.68090   0.49510   0.44810   0.00000  Uiso   1.00
O616   O     0.81910   0.50490   0.55190   0.00000  Uiso   1.00
C617   C     0.88554   0.59675   0.49685   0.00000  Uiso   1.00
H618   H     0.85510   0.58627   0.46481   0.00000  Uiso   1.00
H619   H     0.87552   0.62013   0.54122   0.00000  Uiso   1.00
H620   H     0.90731   0.62059   0.47380   0.00000  Uiso   1.00
C621   C     0.61445   0.40328   0.50321   0.00000  Uiso   1.00
H622   H     0.64481   0.41378   0.53540   0.00000  Uiso   1.00
H623   H     0.59264   0.37936   0.52611   0.00000  Uiso   1.00
H624   H     0.62459   0.37996   0.45889   0.00000  Uiso   1.00
C625   C     0.87579   0.39981   0.47546   0.00000  Uiso   1.00
H626   H     0.88894   0.37730   0.50855   0.00000  Uiso   1.00
H627   H     0.84023   0.40428   0.48372   0.00000  Uiso   1.00
H628   H     0.87698   0.37657   0.42750   0.00000  Uiso   1.00
C629   C     0.62422   0.60020   0.52449   0.00000  Uiso   1.00
H630   H     0.61106   0.62269   0.49138   0.00000  Uiso   1.00
H631   H     0.62303   0.62346   0.57244   0.00000  Uiso   1.00
H632   H     0.65977   0.59573   0.51623   0.00000  Uiso   1.00
C633   C     0.53461   0.35449   0.42154   0.00000  Uiso   1.00
H634   H     0.50806   0.66416   0.38861   0.00000  Uiso   1.00
H635   H     0.56125   0.36427   0.39302   0.00000  Uiso   1.00
H636   H     0.54646   0.66220   0.45174   0.00000  Uiso   1.00
C637   C     0.96540   0.64554   0.57844   0.00000  Uiso   1.00
H638   H     0.99198   0.33596   0.61124   0.00000  Uiso   1.00
H639   H     0.95345   0.33776   0.54821   0.00000  Uiso   1.00
H640   H     0.93885   0.63577   0.60709   0.00000  Uiso   1.00
C641   C     0.24819   0.73323   0.48445   0.00000  Uiso   1.00
C642   C     0.25181   0.93344   0.51555   0.00000  Uiso   1.00
C643   C     0.01712   0.73756   0.45884   0.00000  Uiso   1.00
C644   C     0.48289   0.92913   0.54115   0.00000  Uiso   1.00
C645   C     0.24757   0.67726   0.47570   0.00000  Uiso   1.00
C646   C     0.25243   0.98940   0.52430   0.00000  Uiso   1.00
C647   C     0.16470   0.83273   0.50103   0.00000  Uiso   1.00
C648   C     0.33530   0.83394   0.49897   0.00000  Uiso   1.00
C649   C     0.40865   0.88165   0.50606   0.00000  Uiso   1.00
C650   C     0.09135   0.78504   0.49397   0.00000  Uiso   1.00
C651   C     0.38332   0.83337   0.49632   0.00000  Uiso   1.00
C652   C     0.11668   0.83331   0.50368   0.00000  Uiso   1.00
C653   C     0.40355   0.78499   0.48488   0.00000  Uiso   1.00
C654   C     0.09645   0.88170   0.51510   0.00000  Uiso   1.00
C655   C     0.45021   0.78537   0.48193   0.00000  Uiso   1.00
C656   C     0.04979   0.88131   0.51806   0.00000  Uiso   1.00
C657   C     0.47645   0.83361   0.49935   0.00000  Uiso   1.00
C658   C     0.02355   0.83308   0.50066   0.00000  Uiso   1.00
C659   C     0.45569   0.88222   0.51570   0.00000  Uiso   1.00
C660   C     0.04431   0.78447   0.48431   0.00000  Uiso   1.00
C661   C     0.47101   0.73842   0.46084   0.00000  Uiso   1.00
C662   C     0.02899   0.92826   0.53915   0.00000  Uiso   1.00
Cu663  Cu    0.25500   0.83913   0.56146   0.00000  Uiso   1.00
Cu664  Cu    0.24499   0.82754   0.43854   0.00000  Uiso   1.00
H665   H     0.45138   0.70169   0.44323   0.00000  Uiso   1.00
H666   H     0.04863   0.96499   0.55674   0.00000  Uiso   1.00
H667   H     0.24327   0.98672   0.42885   0.00000  Uiso   1.00
H668   H     0.25673   0.67994   0.57115   0.00000  Uiso   1.00
H669   H     0.21502   0.79271   0.64961   0.00000  Uiso   1.00
H670   H     0.28498   0.87396   0.35039   0.00000  Uiso   1.00
N671   N     0.23744   0.81881   0.34617   0.00000  Uiso   1.00
N672   N     0.26255   0.84786   0.65383   0.00000  Uiso   1.00
O673   O     0.25325   0.76204   0.53992   0.00000  Uiso   1.00
O674   O     0.24674   0.90462   0.46008   0.00000  Uiso   1.00
O675   O     0.24480   0.75226   0.43612   0.00000  Uiso   1.00
O676   O     0.25520   0.91441   0.56388   0.00000  Uiso   1.00
O677   O     0.18935   0.83821   0.55191   0.00000  Uiso   1.00
O678   O     0.31064   0.82845   0.44809   0.00000  Uiso   1.00
O679   O     0.18090   0.82843   0.44810   0.00000  Uiso   1.00
O680   O     0.31910   0.83824   0.55190   0.00000  Uiso   1.00
C681   C     0.38554   0.93008   0.49685   0.00000  Uiso   1.00
H682   H     0.35510   0.91961   0.46481   0.00000  Uiso   1.00
H683   H     0.37552   0.95346   0.54122   0.00000  Uiso   1.00
H684   H     0.40731   0.95393   0.47380   0.00000  Uiso   1.00
C685   C     0.11445   0.73661   0.50321   0.00000  Uiso   1.00
H686   H     0.14481   0.74712   0.53540   0.00000  Uiso   1.00
H687   H     0.09264   0.71270   0.52611   0.00000  Uiso   1.00
H688   H     0.12459   0.71330   0.45889   0.00000  Uiso   1.00
C689   C     0.37579   0.73314   0.47546   0.00000  Uiso   1.00
H690   H     0.38894   0.71063   0.50855   0.00000  Uiso   1.00
H691   H     0.34023   0.73761   0.48372   0.00000  Uiso   1.00
H692   H     0.37698   0.70991   0.42750   0.00000  Uiso   1.00
C693   C     0.12422   0.93354   0.52449   0.00000  Uiso   1.00
H694   H     0.11106   0.95603   0.49138   0.00000  Uiso   1.00
H695   H     0.12303   0.95679   0.57244   0.00000  Uiso   1.00
H696   H     0.15977   0.92906   0.51623   0.00000  Uiso   1.00
C697   C     0.03461   0.68783   0.42154   0.00000  Uiso   1.00
H698   H     0.00806   0.99750   0.38861   0.00000  Uiso   1.00
H699   H     0.06125   0.69760   0.39302   0.00000  Uiso   1.00
H700   H     0.04646   0.99554   0.45174   0.00000  Uiso   1.00
C701   C     0.46540   0.97888   0.57844   0.00000  Uiso   1.00
H702   H     0.49198   0.66929   0.61124   0.00000  Uiso   1.00
H703   H     0.45345   0.67109   0.54821   0.00000  Uiso   1.00
H704   H     0.43885   0.96910   0.60709   0.00000  Uiso   1.00
C705   C     0.74819   0.73323   0.48445   0.00000  Uiso   1.00
C706   C     0.75181   0.93344   0.51555   0.00000  Uiso   1.00
C707   C     0.51712   0.73756   0.45884   0.00000  Uiso   1.00
C708   C     0.98289   0.92913   0.54115   0.00000  Uiso   1.00
C709   C     0.74757   0.67726   0.47570   0.00000  Uiso   1.00
C710   C     0.75243   0.98940   0.52430   0.00000  Uiso   1.00
C711   C     0.66470   0.83273   0.50103   0.00000  Uiso   1.00
C712   C     0.83530   0.83394   0.49897   0.00000  Uiso   1.00
C713   C     0.90865   0.88165   0.50606   0.00000  Uiso   1.00
C714   C     0.59135   0.78504   0.49397   0.00000  Uiso   1.00
C715   C     0.88332   0.83337   0.49632   0.00000  Uiso   1.00
C716   C     0.61668   0.83331   0.50368   0.00000  Uiso   1.00
C717   C     0.90355   0.78499   0.48488   0.00000  Uiso   1.00
C718   C     0.59645   0.88170   0.51510   0.00000  Uiso   1.00
C719   C     0.95021   0.78537   0.48193   0.00000  Uiso   1.00
C720   C     0.54979   0.88131   0.51806   0.00000  Uiso   1.00
C721   C     0.97645   0.83361   0.49935   0.00000  Uiso   1.00
C722   C     0.52355   0.83308   0.50066   0.00000  Uiso   1.00
C723   C     0.95569   0.88222   0.51570   0.00000  Uiso   1.00
C724   C     0.54431   0.78447   0.48431   0.00000  Uiso   1.00
C725   C     0.97101   0.73842   0.46084   0.00000  Uiso   1.00
C726   C     0.52899   0.92826   0.53915   0.00000  Uiso   1.00
Cu727  Cu    0.75500   0.83913   0.56146   0.00000  Uiso   1.00
Cu728  Cu    0.74499   0.82754   0.43854   0.00000  Uiso   1.00
H729   H     0.95138   0.70169   0.44323   0.00000  Uiso   1.00
H730   H     0.54863   0.96499   0.55674   0.00000  Uiso   1.00
H731   H     0.74327   0.98672   0.42885   0.00000  Uiso   1.00
H732   H     0.75673   0.67994   0.57115   0.00000  Uiso   1.00
H733   H     0.71502   0.79271   0.64961   0.00000  Uiso   1.00
H734   H     0.78498   0.87396   0.35039   0.00000  Uiso   1.00
N735   N     0.73744   0.81881   0.34617   0.00000  Uiso   1.00
N736   N     0.76255   0.84786   0.65383   0.00000  Uiso   1.00
O737   O     0.75325   0.76204   0.53992   0.00000  Uiso   1.00
O738   O     0.74674   0.90462   0.46008   0.00000  Uiso   1.00
O739   O     0.74480   0.75226   0.43612   0.00000  Uiso   1.00
O740   O     0.75520   0.91441   0.56388   0.00000  Uiso   1.00
O741   O     0.68935   0.83821   0.55191   0.00000  Uiso   1.00
O742   O     0.81064   0.82845   0.44809   0.00000  Uiso   1.00
O743   O     0.68090   0.82843   0.44810   0.00000  Uiso   1.00
O744   O     0.81910   0.83824   0.55190   0.00000  Uiso   1.00
C745   C     0.88554   0.93008   0.49685   0.00000  Uiso   1.00
H746   H     0.85510   0.91961   0.46481   0.00000  Uiso   1.00
H747   H     0.87552   0.95346   0.54122   0.00000  Uiso   1.00
H748   H     0.90731   0.95393   0.47380   0.00000  Uiso   1.00
C749   C     0.61445   0.73661   0.50321   0.00000  Uiso   1.00
H750   H     0.64481   0.74712   0.53540   0.00000  Uiso   1.00
H751   H     0.59264   0.71270   0.52611   0.00000  Uiso   1.00
H752   H     0.62459   0.71330   0.45889   0.00000  Uiso   1.00
C753   C     0.87579   0.73314   0.47546   0.00000  Uiso   1.00
H754   H     0.88894   0.71063   0.50855   0.00000  Uiso   1.00
H755   H     0.84023   0.73761   0.48372   0.00000  Uiso   1.00
H756   H     0.87698   0.70991   0.42750   0.00000  Uiso   1.00
C757   C     0.62422   0.93354   0.52449   0.00000  Uiso   1.00
H758   H     0.61106   0.95603   0.49138   0.00000  Uiso   1.00
H759   H     0.62303   0.95679   0.57244   0.00000  Uiso   1.00
H760   H     0.65977   0.92906   0.51623   0.00000  Uiso   1.00
C761   C     0.53461   0.68783   0.42154   0.00000  Uiso   1.00
H762   H     0.50806   0.99750   0.38861   0.00000  Uiso   1.00
H763   H     0.56125   0.69760   0.39302   0.00000  Uiso   1.00
H764   H     0.54646   0.99554   0.45174   0.00000  Uiso   1.00
C765   C     0.96540   0.97888   0.57844   0.00000  Uiso   1.00
H766   H     0.99198   0.66929   0.61124   0.00000  Uiso   1.00
H767   H     0.95345   0.67109   0.54821   0.00000  Uiso   1.00
H768   H     0.93885   0.96910   0.60709   0.00000  Uiso   1.00
C769   C     0.24819   0.06656   0.81778   0.00000  Uiso   1.00
C770   C     0.25181   0.26677   0.84889   0.00000  Uiso   1.00
C771   C     0.01712   0.07090   0.79218   0.00000  Uiso   1.00
C772   C     0.48289   0.26246   0.87449   0.00000  Uiso   1.00
C773   C     0.24757   0.01060   0.80904   0.00000  Uiso   1.00
C774   C     0.25243   0.32274   0.85763   0.00000  Uiso   1.00
C775   C     0.16470   0.16606   0.83436   0.00000  Uiso   1.00
C776   C     0.33530   0.16727   0.83230   0.00000  Uiso   1.00
C777   C     0.40865   0.21498   0.83939   0.00000  Uiso   1.00
C778   C     0.09135   0.11837   0.82730   0.00000  Uiso   1.00
C779   C     0.38332   0.16670   0.82965   0.00000  Uiso   1.00
C780   C     0.11668   0.16665   0.83701   0.00000  Uiso   1.00
C781   C     0.40355   0.11832   0.81821   0.00000  Uiso   1.00
C782   C     0.09645   0.21503   0.84843   0.00000  Uiso   1.00
C783   C     0.45021   0.11870   0.81526   0.00000  Uiso   1.00
C784   C     0.04979   0.21465   0.85140   0.00000  Uiso   1.00
C785   C     0.47645   0.16694   0.83268   0.00000  Uiso   1.00
C786   C     0.02355   0.16641   0.83399   0.00000  Uiso   1.00
C787   C     0.45569   0.21555   0.84904   0.00000  Uiso   1.00
C788   C     0.04431   0.11781   0.81764   0.00000  Uiso   1.00
C789   C     0.47101   0.07175   0.79417   0.00000  Uiso   1.00
C790   C     0.02899   0.26160   0.87248   0.00000  Uiso   1.00
Cu791  Cu    0.25500   0.17246   0.89479   0.00000  Uiso   1.00
Cu792  Cu    0.24499   0.16087   0.77187   0.00000  Uiso   1.00
H793   H     0.45138   0.03502   0.77657   0.00000  Uiso   1.00
H794   H     0.04863   0.29833   0.89008   0.00000  Uiso   1.00
H795   H     0.24327   0.32006   0.76218   0.00000  Uiso   1.00
H796   H     0.25673   0.01328   0.90449   0.00000  Uiso   1.00
H797   H     0.21502   0.12604   0.98295   0.00000  Uiso   1.00
H798   H     0.28498   0.20729   0.68372   0.00000  Uiso   1.00
N799   N     0.23744   0.15214   0.67951   0.00000  Uiso   1.00
N800   N     0.26255   0.18119   0.98716   0.00000  Uiso   1.00
O801   O     0.25325   0.09538   0.87326   0.00000  Uiso   1.00
O802   O     0.24674   0.23796   0.79341   0.00000  Uiso   1.00
O803   O     0.24480   0.08559   0.76945   0.00000  Uiso   1.00
O804   O     0.25520   0.24774   0.89721   0.00000  Uiso   1.00
O805   O     0.18935   0.17155   0.88524   0.00000  Uiso   1.00
O806   O     0.31064   0.16179   0.78143   0.00000  Uiso   1.00
O807   O     0.18090   0.16176   0.78143   0.00000  Uiso   1.00
O808   O     0.31910   0.17157   0.88523   0.00000  Uiso   1.00
C809   C     0.38554   0.26342   0.83018   0.00000  Uiso   1.00
H810   H     0.35510   0.25294   0.79815   0.00000  Uiso   1.00
H811   H     0.37552   0.28680   0.87455   0.00000  Uiso   1.00
H812   H     0.40731   0.28726   0.80714   0.00000  Uiso   1.00
C813   C     0.11445   0.06995   0.83655   0.00000  Uiso   1.00
H814   H     0.14481   0.08045   0.86874   0.00000  Uiso   1.00
H815   H     0.09264   0.04603   0.85944   0.00000  Uiso   1.00
H816   H     0.12459   0.04663   0.79222   0.00000  Uiso   1.00
C817   C     0.37579   0.06647   0.80880   0.00000  Uiso   1.00
H818   H     0.38894   0.04397   0.84188   0.00000  Uiso   1.00
H819   H     0.34023   0.07094   0.81706   0.00000  Uiso   1.00
H820   H     0.37698   0.04324   0.76083   0.00000  Uiso   1.00
C821   C     0.12422   0.26687   0.85782   0.00000  Uiso   1.00
H822   H     0.11106   0.28936   0.82472   0.00000  Uiso   1.00
H823   H     0.12303   0.29012   0.90578   0.00000  Uiso   1.00
H824   H     0.15977   0.26239   0.84956   0.00000  Uiso   1.00
C825   C     0.03461   0.02116   0.75487   0.00000  Uiso   1.00
H826   H     0.00806   0.33083   0.72194   0.00000  Uiso   1.00
H827   H     0.06125   0.03094   0.72635   0.00000  Uiso   1.00
H828   H     0.04646   0.32887   0.78508   0.00000  Uiso   1.00
C829   C     0.46540   0.31221   0.91177   0.00000  Uiso   1.00
H830   H     0.49198   0.00262   0.94458   0.00000  Uiso   1.00
H831   H     0.45345   0.00443   0.88155   0.00000  Uiso   1.00
H832   H     0.43885   0.30244   0.94042   0.00000  Uiso   1.00
C833   C     0.74819   0.06656   0.81778   0.00000  Uiso   1.00
C834   C     0.75181   0.26677   0.84889   0.00000  Uiso   1.00
C835   C     0.51712   0.07090   0.79218   0.00000  Uiso   1.00
C836   C     0.98289   0.26246   0.87449   0.00000  Uiso   1.00
C837   C     0.74757   0.01060   0.80904   0.00000  Uiso   1.00
C838   C     0.75243   0.32274   0.85763   0.00000  Uiso   1.00
C839   C     0.66470   0.16606   0.83436   0.00000  Uiso   1.00
C840   C     0.83530   0.16727   0.83230   0.00000  Uiso   1.00
C841   C     0.90865   0.21498   0.83939   0.00000  Uiso   1.00
C842   C     0.59135   0.11837   0.82730   0.00000  Uiso   1.00
C843   C     0.88332   0.16670   0.82965   0.00000  Uiso   1.00
C844   C     0.61668   0.16665   0.83701   0.00000  Uiso   1.00
C845   C     0.90355   0.11832   0.81821   0.00000  Uiso   1.00
C846   C     0.59645   0.21503   0.84843   0.00000  Uiso   1.00
C847   C     0.95021   0.11870   0.81526   0.00000  Uiso   1.00
C848   C     0.54979   0.21465   0.85140   0.00000  Uiso   1.00
C849   C     0.97645   0.16694   0.83268   0.00000  Uiso   1.00
C850   C     0.52355   0.16641   0.83399   0.00000  Uiso   1.00
C851   C     0.95569   0.21555   0.84904   0.00000  Uiso   1.00
C852   C     0.54431   0.11781   0.81764   0.00000  Uiso   1.00
C853   C     0.97101   0.07175   0.79417   0.00000  Uiso   1.00
C854   C     0.52899   0.26160   0.87248   0.00000  Uiso   1.00
Cu855  Cu    0.75500   0.17246   0.89479   0.00000  Uiso   1.00
Cu856  Cu    0.74499   0.16087   0.77187   0.00000  Uiso   1.00
H857   H     0.95138   0.03502   0.77657   0.00000  Uiso   1.00
H858   H     0.54863   0.29833   0.89008   0.00000  Uiso   1.00
H859   H     0.74327   0.32006   0.76218   0.00000  Uiso   1.00
H860   H     0.75673   0.01328   0.90449   0.00000  Uiso   1.00
H861   H     0.71502   0.12604   0.98295   0.00000  Uiso   1.00
H862   H     0.78498   0.20729   0.68372   0.00000  Uiso   1.00
N863   N     0.73744   0.15214   0.67951   0.00000  Uiso   1.00
N864   N     0.76255   0.18119   0.98716   0.00000  Uiso   1.00
O865   O     0.75325   0.09538   0.87326   0.00000  Uiso   1.00
O866   O     0.74674   0.23796   0.79341   0.00000  Uiso   1.00
O867   O     0.74480   0.08559   0.76945   0.00000  Uiso   1.00
O868   O     0.75520   0.24774   0.89721   0.00000  Uiso   1.00
O869   O     0.68935   0.17155   0.88524   0.00000  Uiso   1.00
O870   O     0.81064   0.16179   0.78143   0.00000  Uiso   1.00
O871   O     0.68090   0.16176   0.78143   0.00000  Uiso   1.00
O872   O     0.81910   0.17157   0.88523   0.00000  Uiso   1.00
C873   C     0.88554   0.26342   0.83018   0.00000  Uiso   1.00
H874   H     0.85510   0.25294   0.79815   0.00000  Uiso   1.00
H875   H     0.87552   0.28680   0.87455   0.00000  Uiso   1.00
H876   H     0.90731   0.28726   0.80714   0.00000  Uiso   1.00
C877   C     0.61445   0.06995   0.83655   0.00000  Uiso   1.00
H878   H     0.64481   0.08045   0.86874   0.00000  Uiso   1.00
H879   H     0.59264   0.04603   0.85944   0.00000  Uiso   1.00
H880   H     0.62459   0.04663   0.79222   0.00000  Uiso   1.00
C881   C     0.87579   0.06647   0.80880   0.00000  Uiso   1.00
H882   H     0.88894   0.04397   0.84188   0.00000  Uiso   1.00
H883   H     0.84023   0.07094   0.81706   0.00000  Uiso   1.00
H884   H     0.87698   0.04324   0.76083   0.00000  Uiso   1.00
C885   C     0.62422   0.26687   0.85782   0.00000  Uiso   1.00
H886   H     0.61106   0.28936   0.82472   0.00000  Uiso   1.00
H887   H     0.62303   0.29012   0.90578   0.00000  Uiso   1.00
H888   H     0.65977   0.26239   0.84956   0.00000  Uiso   1.00
C889   C     0.53461   0.02116   0.75487   0.00000  Uiso   1.00
H890   H     0.50806   0.33083   0.72194   0.00000  Uiso   1.00
H891   H     0.56125   0.03094   0.72635   0.00000  Uiso   1.00
H892   H     0.54646   0.32887   0.78508   0.00000  Uiso   1.00
C893   C     0.96540   0.31221   0.91177   0.00000  Uiso   1.00
H894   H     0.99198   0.00262   0.94458   0.00000  Uiso   1.00
H895   H     0.95345   0.00443   0.88155   0.00000  Uiso   1.00
H896   H     0.93885   0.30244   0.94042   0.00000  Uiso   1.00
C897   C     0.24819   0.39989   0.81778   0.00000  Uiso   1.00
C898   C     0.25181   0.60011   0.84889   0.00000  Uiso   1.00
C899   C     0.01712   0.40423   0.79218   0.00000  Uiso   1.00
C900   C     0.48289   0.59579   0.87449   0.00000  Uiso   1.00
C901   C     0.24757   0.34393   0.80904   0.00000  Uiso   1.00
C902   C     0.25243   0.65607   0.85763   0.00000  Uiso   1.00
C903   C     0.16470   0.49940   0.83436   0.00000  Uiso   1.00
C904   C     0.33530   0.50061   0.83230   0.00000  Uiso   1.00
C905   C     0.40865   0.54831   0.83939   0.00000  Uiso   1.00
C906   C     0.09135   0.45171   0.82730   0.00000  Uiso   1.00
C907   C     0.38332   0.50003   0.82965   0.00000  Uiso   1.00
C908   C     0.11668   0.49998   0.83701   0.00000  Uiso   1.00
C909   C     0.40355   0.45165   0.81821   0.00000  Uiso   1.00
C910   C     0.09645   0.54836   0.84843   0.00000  Uiso   1.00
C911   C     0.45021   0.45204   0.81526   0.00000  Uiso   1.00
C912   C     0.04979   0.54798   0.85140   0.00000  Uiso   1.00
C913   C     0.47645   0.50028   0.83268   0.00000  Uiso   1.00
C914   C     0.02355   0.49975   0.83399   0.00000  Uiso   1.00
C915   C     0.45569   0.54888   0.84904   0.00000  Uiso   1.00
C916   C     0.04431   0.45114   0.81764   0.00000  Uiso   1.00
C917   C     0.47101   0.40509   0.79417   0.00000  Uiso   1.00
C918   C     0.02899   0.59493   0.87248   0.00000  Uiso   1.00
Cu919  Cu    0.25500   0.50579   0.89479   0.00000  Uiso   1.00
Cu920  Cu    0.24499   0.49421   0.77187   0.00000  Uiso   1.00
H921   H     0.45138   0.36836   0.77657   0.00000  Uiso   1.00
H922   H     0.04863   0.63166   0.89008   0.00000  Uiso   1.00
H923   H     0.24327   0.65339   0.76218   0.00000  Uiso   1.00
H924   H     0.25673   0.34661   0.90449   0.00000  Uiso   1.00
H925   H     0.21502   0.45938   0.98295   0.00000  Uiso   1.00
H926   H     0.28498   0.54062   0.68372   0.00000  Uiso   1.00
N927   N     0.23744   0.48547   0.67951   0.00000  Uiso   1.00
N928   N     0.26255   0.51453   0.98716   0.00000  Uiso   1.00
O929   O     0.25325   0.42871   0.87326   0.00000  Uiso   1.00
O930   O     0.24674   0.57129   0.79341   0.00000  Uiso   1.00
O931   O     0.24480   0.41892   0.76945   0.00000  Uiso   1.00
O932   O     0.25520   0.58108   0.89721   0.00000  Uiso   1.00
O933   O     0.18935   0.50488   0.88524   0.00000  Uiso   1.00
O934   O     0.31064   0.49512   0.78143   0.00000  Uiso   1.00
O935   O     0.18090   0.49510   0.78143   0.00000  Uiso   1.00
O936   O     0.31910   0.50490   0.88523   0.00000  Uiso   1.00
C937   C     0.38554   0.59675   0.83018   0.00000  Uiso   1.00
H938   H     0.35510   0.58627   0.79815   0.00000  Uiso   1.00
H939   H     0.37552   0.62013   0.87455   0.00000  Uiso   1.00
H940   H     0.40731   0.62059   0.80714   0.00000  Uiso   1.00
C941   C     0.11445   0.40328   0.83655   0.00000  Uiso   1.00
H942   H     0.14481   0.41378   0.86874   0.00000  Uiso   1.00
H943   H     0.09264   0.37936   0.85944   0.00000  Uiso   1.00
H944   H     0.12459   0.37996   0.79222   0.00000  Uiso   1.00
C945   C     0.37579   0.39981   0.80880   0.00000  Uiso   1.00
H946   H     0.38894   0.37730   0.84188   0.00000  Uiso   1.00
H947   H     0.34023   0.40428   0.81706   0.00000  Uiso   1.00
H948   H     0.37698   0.37657   0.76083   0.00000  Uiso   1.00
C949   C     0.12422   0.60020   0.85782   0.00000  Uiso   1.00
H950   H     0.11106   0.62269   0.82472   0.00000  Uiso   1.00
H951   H     0.12303   0.62346   0.90578   0.00000  Uiso   1.00
H952   H     0.15977   0.59573   0.84956   0.00000  Uiso   1.00
C953   C     0.03461   0.35449   0.75487   0.00000  Uiso   1.00
H954   H     0.00806   0.66416   0.72194   0.00000  Uiso   1.00
H955   H     0.06125   0.36427   0.72635   0.00000  Uiso   1.00
H956   H     0.04646   0.66220   0.78508   0.00000  Uiso   1.00
C957   C     0.46540   0.64554   0.91177   0.00000  Uiso   1.00
H958   H     0.49198   0.33596   0.94458   0.00000  Uiso   1.00
H959   H     0.45345   0.33776   0.88155   0.00000  Uiso   1.00
H960   H     0.43885   0.63577   0.94042   0.00000  Uiso   1.00
C961   C     0.74819   0.39989   0.81778   0.00000  Uiso   1.00
C962   C     0.75181   0.60011   0.84889   0.00000  Uiso   1.00
C963   C     0.51712   0.40423   0.79218   0.00000  Uiso   1.00
C964   C     0.98289   0.59579   0.87449   0.00000  Uiso   1.00
C965   C     0.74757   0.34393   0.80904   0.00000  Uiso   1.00
C966   C     0.75243   0.65607   0.85763   0.00000  Uiso   1.00
C967   C     0.66470   0.49940   0.83436   0.00000  Uiso   1.00
C968   C     0.83530   0.50061   0.83230   0.00000  Uiso   1.00
C969   C     0.90865   0.54831   0.83939   0.00000  Uiso   1.00
C970   C     0.59135   0.45171   0.82730   0.00000  Uiso   1.00
C971   C     0.88332   0.50003   0.82965   0.00000  Uiso   1.00
C972   C     0.61668   0.49998   0.83701   0.00000  Uiso   1.00
C973   C     0.90355   0.45165   0.81821   0.00000  Uiso   1.00
C974   C     0.59645   0.54836   0.84843   0.00000  Uiso   1.00
C975   C     0.95021   0.45204   0.81526   0.00000  Uiso   1.00
C976   C     0.54979   0.54798   0.85140   0.00000  Uiso   1.00
C977   C     0.97645   0.50028   0.83268   0.00000  Uiso   1.00
C978   C     0.52355   0.49975   0.83399   0.00000  Uiso   1.00
C979   C     0.95569   0.54888   0.84904   0.00000  Uiso   1.00
C980   C     0.54431   0.45114   0.81764   0.00000  Uiso   1.00
C981   C     0.97101   0.40509   0.79417   0.00000  Uiso   1.00
C982   C     0.52899   0.59493   0.87248   0.00000  Uiso   1.00
Cu983  Cu    0.75500   0.50579   0.89479   0.00000  Uiso   1.00
Cu984  Cu    0.74499   0.49421   0.77187   0.00000  Uiso   1.00
H985   H     0.95138   0.36836   0.77657   0.00000  Uiso   1.00
H986   H     0.54863   0.63166   0.89008   0.00000  Uiso   1.00
H987   H     0.74327   0.65339   0.76218   0.00000  Uiso   1.00
H988   H     0.75673   0.34661   0.90449   0.00000  Uiso   1.00
H989   H     0.71502   0.45938   0.98295   0.00000  Uiso   1.00
H990   H     0.78498   0.54062   0.68372   0.00000  Uiso   1.00
N991   N     0.73744   0.48547   0.67951   0.00000  Uiso   1.00
N992   N     0.76255   0.51453   0.98716   0.00000  Uiso   1.00
O993   O     0.75325   0.42871   0.87326   0.00000  Uiso   1.00
O994   O     0.74674   0.57129   0.79341   0.00000  Uiso   1.00
O995   O     0.74480   0.41892   0.76945   0.00000  Uiso   1.00
O996   O     0.75520   0.58108   0.89721   0.00000  Uiso   1.00
O997   O     0.68935   0.50488   0.88524   0.00000  Uiso   1.00
O998   O     0.81064   0.49512   0.78143   0.00000  Uiso   1.00
O999   O     0.68090   0.49510   0.78143   0.00000  Uiso   1.00
O1000  O     0.81910   0.50490   0.88523   0.00000  Uiso   1.00
C1001  C     0.88554   0.59675   0.83018   0.00000  Uiso   1.00
H1002  H     0.85510   0.58627   0.79815   0.00000  Uiso   1.00
H1003  H     0.87552   0.62013   0.87455   0.00000  Uiso   1.00
H1004  H     0.90731   0.62059   0.80714   0.00000  Uiso   1.00
C1005  C     0.61445   0.40328   0.83655   0.00000  Uiso   1.00
H1006  H     0.64481   0.41378   0.86874   0.00000  Uiso   1.00
H1007  H     0.59264   0.37936   0.85944   0.00000  Uiso   1.00
H1008  H     0.62459   0.37996   0.79222   0.00000  Uiso   1.00
C1009  C     0.87579   0.39981   0.80880   0.00000  Uiso   1.00
H1010  H     0.88894   0.37730   0.84188   0.00000  Uiso   1.00
H1011  H     0.84023   0.40428   0.81706   0.00000  Uiso   1.00
H1012  H     0.87698   0.37657   0.76083   0.00000  Uiso   1.00
C1013  C     0.62422   0.60020   0.85782   0.00000  Uiso   1.00
H1014  H     0.61106   0.62269   0.82472   0.00000  Uiso   1.00
H1015  H     0.62303   0.62346   0.90578   0.00000  Uiso   1.00
H1016  H     0.65977   0.59573   0.84956   0.00000  Uiso   1.00
C1017  C     0.53461   0.35449   0.75487   0.00000  Uiso   1.00
H1018  H     0.50806   0.66416   0.72194   0.00000  Uiso   1.00
H1019  H     0.56125   0.36427   0.72635   0.00000  Uiso   1.00
H1020  H     0.54646   0.66220   0.78508   0.00000  Uiso   1.00
C1021  C     0.96540   0.64554   0.91177   0.00000  Uiso   1.00
H1022  H     0.99198   0.33596   0.94458   0.00000  Uiso   1.00
H1023  H     0.95345   0.33776   0.88155   0.00000  Uiso   1.00
H1024  H     0.93885   0.63577   0.94042   0.00000  Uiso   1.00
C1025  C     0.24819   0.73323   0.81778   0.00000  Uiso   1.00
C1026  C     0.25181   0.93344   0.84889   0.00000  Uiso   1.00
C1027  C     0.01712   0.73756   0.79218   0.00000  Uiso   1.00
C1028  C     0.48289   0.92913   0.87449   0.00000  Uiso   1.00
C1029  C     0.24757   0.67726   0.80904   0.00000  Uiso   1.00
C1030  C     0.25243   0.98940   0.85763   0.00000  Uiso   1.00
C1031  C     0.16470   0.83273   0.83436   0.00000  Uiso   1.00
C1032  C     0.33530   0.83394   0.83230   0.00000  Uiso   1.00
C1033  C     0.40865   0.88165   0.83939   0.00000  Uiso   1.00
C1034  C     0.09135   0.78504   0.82730   0.00000  Uiso   1.00
C1035  C     0.38332   0.83337   0.82965   0.00000  Uiso   1.00
C1036  C     0.11668   0.83331   0.83701   0.00000  Uiso   1.00
C1037  C     0.40355   0.78499   0.81821   0.00000  Uiso   1.00
C1038  C     0.09645   0.88170   0.84843   0.00000  Uiso   1.00
C1039  C     0.45021   0.78537   0.81526   0.00000  Uiso   1.00
C1040  C     0.04979   0.88131   0.85140   0.00000  Uiso   1.00
C1041  C     0.47645   0.83361   0.83268   0.00000  Uiso   1.00
C1042  C     0.02355   0.83308   0.83399   0.00000  Uiso   1.00
C1043  C     0.45569   0.88222   0.84904   0.00000  Uiso   1.00
C1044  C     0.04431   0.78447   0.81764   0.00000  Uiso   1.00
C1045  C     0.47101   0.73842   0.79417   0.00000  Uiso   1.00
C1046  C     0.02899   0.92826   0.87248   0.00000  Uiso   1.00
Cu1047 Cu    0.25500   0.83913   0.89479   0.00000  Uiso   1.00
Cu1048 Cu    0.24499   0.82754   0.77187   0.00000  Uiso   1.00
H1049  H     0.45138   0.70169   0.77657   0.00000  Uiso   1.00
H1050  H     0.04863   0.96499   0.89008   0.00000  Uiso   1.00
H1051  H     0.24327   0.98672   0.76218   0.00000  Uiso   1.00
H1052  H     0.25673   0.67994   0.90449   0.00000  Uiso   1.00
H1053  H     0.21502   0.79271   0.98295   0.00000  Uiso   1.00
H1054  H     0.28498   0.87396   0.68372   0.00000  Uiso   1.00
N1055  N     0.23744   0.81881   0.67951   0.00000  Uiso   1.00
N1056  N     0.26255   0.84786   0.98716   0.00000  Uiso   1.00
O1057  O     0.25325   0.76204   0.87326   0.00000  Uiso   1.00
O1058  O     0.24674   0.90462   0.79341   0.00000  Uiso   1.00
O1059  O     0.24480   0.75226   0.76945   0.00000  Uiso   1.00
O1060  O     0.25520   0.91441   0.89721   0.00000  Uiso   1.00
O1061  O     0.18935   0.83821   0.88524   0.00000  Uiso   1.00
O1062  O     0.31064   0.82845   0.78143   0.00000  Uiso   1.00
O1063  O     0.18090   0.82843   0.78143   0.00000  Uiso   1.00
O1064  O     0.31910   0.83824   0.88523   0.00000  Uiso   1.00
C1065  C     0.38554   0.93008   0.83018   0.00000  Uiso   1.00
H1066  H     0.35510   0.91961   0.79815   0.00000  Uiso   1.00
H1067  H     0.37552   0.95346   0.87455   0.00000  Uiso   1.00
H1068  H     0.40731   0.95393   0.80714   0.00000  Uiso   1.00
C1069  C     0.11445   0.73661   0.83655   0.00000  Uiso   1.00
H1070  H     0.14481   0.74712   0.86874   0.00000  Uiso   1.00
H1071  H     0.09264   0.71270   0.85944   0.00000  Uiso   1.00
H1072  H     0.12459   0.71330   0.79222   0.00000  Uiso   1.00
C1073  C     0.37579   0.73314   0.80880   0.00000  Uiso   1.00
H1074  H     0.38894   0.71063   0.84188   0.00000  Uiso   1.00
H1075  H     0.34023   0.73761   0.81706   0.00000  Uiso   1.00
H1076  H     0.37698   0.70991   0.76083   0.00000  Uiso   1.00
C1077  C     0.12422   0.93354   0.85782   0.00000  Uiso   1.00
H1078  H     0.11106   0.95603   0.82472   0.00000  Uiso   1.00
H1079  H     0.12303   0.95679   0.90578   0.00000  Uiso   1.00
H1080  H     0.15977   0.92906   0.84956   0.00000  Uiso   1.00
C1081  C     0.03461   0.68783   0.75487   0.00000  Uiso   1.00
H1082  H     0.00806   0.99750   0.72194   0.00000  Uiso   1.00
H1083  H     0.06125   0.69760   0.72635   0.00000  Uiso   1.00
H1084  H     0.04646   0.99554   0.78508   0.00000  Uiso   1.00
C1085  C     0.46540   0.97888   0.91177   0.00000  Uiso   1.00
H1086  H     0.49198   0.66929   0.94458   0.00000  Uiso   1.00
H1087  H     0.45345   0.67109   0.88155   0.00000  Uiso   1.00
H1088  H     0.43885   0.96910   0.94042   0.00000  Uiso   1.00
C1089  C     0.74819   0.73323   0.81778   0.00000  Uiso   1.00
C1090  C     0.75181   0.93344   0.84889   0.00000  Uiso   1.00
C1091  C     0.51712   0.73756   0.79218   0.00000  Uiso   1.00
C1092  C     0.98289   0.92913   0.87449   0.00000  Uiso   1.00
C1093  C     0.74757   0.67726   0.80904   0.00000  Uiso   1.00
C1094  C     0.75243   0.98940   0.85763   0.00000  Uiso   1.00
C1095  C     0.66470   0.83273   0.83436   0.00000  Uiso   1.00
C1096  C     0.83530   0.83394   0.83230   0.00000  Uiso   1.00
C1097  C     0.90865   0.88165   0.83939   0.00000  Uiso   1.00
C1098  C     0.59135   0.78504   0.82730   0.00000  Uiso   1.00
C1099  C     0.88332   0.83337   0.82965   0.00000  Uiso   1.00
C1100  C     0.61668   0.83331   0.83701   0.00000  Uiso   1.00
C1101  C     0.90355   0.78499   0.81821   0.00000  Uiso   1.00
C1102  C     0.59645   0.88170   0.84843   0.00000  Uiso   1.00
C1103  C     0.95021   0.78537   0.81526   0.00000  Uiso   1.00
C1104  C     0.54979   0.88131   0.85140   0.00000  Uiso   1.00
C1105  C     0.97645   0.83361   0.83268   0.00000  Uiso   1.00
C1106  C     0.52355   0.83308   0.83399   0.00000  Uiso   1.00
C1107  C     0.95569   0.88222   0.84904   0.00000  Uiso   1.00
C1108  C     0.54431   0.78447   0.81764   0.00000  Uiso   1.00
C1109  C     0.97101   0.73842   0.79417   0.00000  Uiso   1.00
C1110  C     0.52899   0.92826   0.87248   0.00000  Uiso   1.00
Cu1111 Cu    0.75500   0.83913   0.89479   0.00000  Uiso   1.00
Cu1112 Cu    0.74499   0.82754   0.77187   0.00000  Uiso   1.00
H1113  H     0.95138   0.70169   0.77657   0.00000  Uiso   1.00
H1114  H     0.54863   0.96499   0.89008   0.00000  Uiso   1.00
H1115  H     0.74327   0.98672   0.76218   0.00000  Uiso   1.00
H1116  H     0.75673   0.67994   0.90449   0.00000  Uiso   1.00
H1117  H     0.71502   0.79271   0.98295   0.00000  Uiso   1.00
H1118  H     0.78498   0.87396   0.68372   0.00000  Uiso   1.00
N1119  N     0.73744   0.81881   0.67951   0.00000  Uiso   1.00
N1120  N     0.76255   0.84786   0.98716   0.00000  Uiso   1.00
O1121  O     0.75325   0.76204   0.87326   0.00000  Uiso   1.00
O1122  O     0.74674   0.90462   0.79341   0.00000  Uiso   1.00
O1123  O     0.74480   0.75226   0.76945   0.00000  Uiso   1.00
O1124  O     0.75520   0.91441   0.89721   0.00000  Uiso   1.00
O1125  O     0.68935   0.83821   0.88524   0.00000  Uiso   1.00
O1126  O     0.81064   0.82845   0.78143   0.00000  Uiso   1.00
O1127  O     0.68090   0.82843   0.78143   0.00000  Uiso   1.00
O1128  O     0.81910   0.83824   0.88523   0.00000  Uiso   1.00
C1129  C     0.88554   0.93008   0.83018   0.00000  Uiso   1.00
H1130  H     0.85510   0.91961   0.79815   0.00000  Uiso   1.00
H1131  H     0.87552   0.95346   0.87455   0.00000  Uiso   1.00
H1132  H     0.90731   0.95393   0.80714   0.00000  Uiso   1.00
C1133  C     0.61445   0.73661   0.83655   0.00000  Uiso   1.00
H1134  H     0.64481   0.74712   0.86874   0.00000  Uiso   1.00
H1135  H     0.59264   0.71270   0.85944   0.00000  Uiso   1.00
H1136  H     0.62459   0.71330   0.79222   0.00000  Uiso   1.00
C1137  C     0.87579   0.73314   0.80880   0.00000  Uiso   1.00
H1138  H     0.88894   0.71063   0.84188   0.00000  Uiso   1.00
H1139  H     0.84023   0.73761   0.81706   0.00000  Uiso   1.00
H1140  H     0.87698   0.70991   0.76083   0.00000  Uiso   1.00
C1141  C     0.62422   0.93354   0.85782   0.00000  Uiso   1.00
H1142  H     0.61106   0.95603   0.82472   0.00000  Uiso   1.00
H1143  H     0.62303   0.95679   0.90578   0.00000  Uiso   1.00
H1144  H     0.65977   0.92906   0.84956   0.00000  Uiso   1.00
C1145  C     0.53461   0.68783   0.75487   0.00000  Uiso   1.00
H1146  H     0.50806   0.99750   0.72194   0.00000  Uiso   1.00
H1147  H     0.56125   0.69760   0.72635   0.00000  Uiso   1.00
H1148  H     0.54646   0.99554   0.78508   0.00000  Uiso   1.00
C1149  C     0.96540   0.97888   0.91177   0.00000  Uiso   1.00
H1150  H     0.99198   0.66929   0.94458   0.00000  Uiso   1.00
H1151  H     0.95345   0.67109   0.88155   0.00000  Uiso   1.00
H1152  H     0.93885   0.96910   0.94042   0.00000  Uiso   1.00
loop_
_geom_bond_atom_site_label_1
_geom_bond_atom_site_label_2
_geom_bond_distance
_geom_bond_site_symmetry_2
_ccdc_geom_bond_type
C1     O33     1.293   .     A
C1     C5      1.428   .     S
C1     O35     1.286   .     A
C2     O34     1.293   .     A
C2     C6      1.428   .     S
C2     O36     1.286   .     A
C3     C20     1.422   .     A
C3     C57     1.514   .     S
C3     C85     1.391   1_455 S
C4     C61     1.514   .     S
C4     C19     1.423   .     A
C4     C86     1.391   .     S
C5     C262    1.327   1_545 S
C5     H283    1.088   1_545 S
C6     C133    1.327   .     S
C6     H156    1.088   .     S
C7     O37     1.293   .     A
C7     C12     1.450   .     S
C7     O39     1.291   .     A
C8     O38     1.293   .     A
C8     C11     1.450   .     S
C8     O40     1.291   .     A
C9     C41     1.518   .     S
C9     C11     1.407   .     A
C9     C19     1.416   .     A
C10    C20     1.416   .     A
C10    C45     1.518   .     S
C10    C12     1.407   .     A
C11    C13     1.406   .     A
C12    C14     1.406   .     A
C13    C49     1.521   .     S
C13    C15     1.409   .     A
C14    C16     1.409   .     A
C14    C53     1.521   .     S
C15    C21     1.402   .     A
C15    C17     1.416   .     A
C16    C18     1.416   .     A
C16    C22     1.402   .     A
C17    C19     1.424   .     A
C17    C82     1.416   .     S
C18    C20     1.424   .     A
C18    C81     1.416   1_455 S
C21    H25     1.081   .     S
C21    C67     1.391   .     S
C22    H26     1.081   .     S
C22    C68     1.391   1_455 S
Cu23   Cu24    2.690   .     S
Cu23   N32     2.021   .     S
Cu23   O37     1.971   .     S
Cu23   O40     1.954   .     S
Cu23   O36     1.952   .     S
Cu23   O33     1.957   .     S
Cu24   O38     1.971   .     S
Cu24   N31     2.021   .     S
Cu24   O35     1.952   .     S
Cu24   O39     1.954   .     S
Cu24   O34     1.957   .     S
H27    C133    1.088   .     S
H28    C262    1.088   1_545 S
H29    N415    1.029   .     S
H30    N800    1.029   1_554 S
N31    H797    1.029   1_554 S
N31    N800    1.292   1_554 S
N32    N415    1.292   .     S
N32    H414    1.029   .     S
C41    H42     1.109   .     S
C41    H43     1.109   .     S
C41    H44     1.108   .     S
C45    H46     1.109   .     S
C45    H47     1.108   .     S
C45    H48     1.109   .     S
C49    H52     1.110   .     S
C49    H50     1.108   .     S
C49    H51     1.104   .     S
C53    H55     1.110   .     S
C53    H54     1.108   .     S
C53    H56     1.104   .     S
C57    H59     1.109   .     S
C57    H314    1.111   1_545 S
C57    H316    1.106   1_545 S
H58    C185    1.111   .     S
H60    C185    1.106   .     S
C61    H64     1.109   .     S
C61    H190    1.111   .     S
C61    H191    1.106   .     S
H62    C317    1.111   1_545 S
H63    C317    1.106   1_545 S
C65    O97     1.293   .     A
C65    C69     1.428   .     S
C65    O99     1.286   .     A
C66    O98     1.293   .     A
C66    C70     1.428   .     S
C66    O100    1.286   .     A
C67    C84     1.422   .     A
C67    C121    1.514   .     S
C68    C125    1.514   .     S
C68    C83     1.423   .     A
C68    C22     1.391   1_655 S
C69    C326    1.327   1_545 S
C69    H347    1.088   1_545 S
C70    C197    1.327   .     S
C70    H220    1.088   .     S
C71    O101    1.293   .     A
C71    C76     1.450   .     S
C71    O103    1.291   .     A
C72    O102    1.293   .     A
C72    C75     1.450   .     S
C72    O104    1.291   .     A
C73    C105    1.518   .     S
C73    C75     1.407   .     A
C73    C83     1.416   .     A
C74    C84     1.416   .     A
C74    C109    1.518   .     S
C74    C76     1.407   .     A
C75    C77     1.406   .     A
C76    C78     1.406   .     A
C77    C113    1.521   .     S
C77    C79     1.409   .     A
C78    C80     1.409   .     A
C78    C117    1.521   .     S
C79    C85     1.402   .     A
C79    C81     1.416   .     A
C80    C82     1.416   .     A
C80    C86     1.402   .     A
C81    C83     1.424   .     A
C81    C18     1.416   1_655 S
C82    C84     1.424   .     A
C85    H89     1.081   .     S
C85    C3      1.391   1_655 S
C86    H90     1.081   .     S
Cu87   Cu88    2.690   .     S
Cu87   N96     2.021   .     S
Cu87   O101    1.971   .     S
Cu87   O104    1.954   .     S
Cu87   O100    1.952   .     S
Cu87   O97     1.957   .     S
Cu88   O102    1.971   .     S
Cu88   N95     2.021   .     S
Cu88   O99     1.952   .     S
Cu88   O103    1.954   .     S
Cu88   O98     1.957   .     S
H91    C197    1.088   .     S
H92    C326    1.088   1_545 S
H93    N479    1.029   .     S
H94    N864    1.029   1_554 S
N95    H861    1.029   1_554 S
N95    N864    1.292   1_554 S
N96    N479    1.292   .     S
N96    H478    1.029   .     S
C105   H106    1.109   .     S
C105   H107    1.109   .     S
C105   H108    1.108   .     S
C109   H110    1.109   .     S
C109   H111    1.108   .     S
C109   H112    1.109   .     S
C113   H116    1.110   .     S
C113   H114    1.108   .     S
C113   H115    1.104   .     S
C117   H119    1.110   .     S
C117   H118    1.108   .     S
C117   H120    1.104   .     S
C121   H123    1.109   .     S
C121   H378    1.111   1_545 S
C121   H380    1.106   1_545 S
H122   C249    1.111   .     S
H124   C249    1.106   .     S
C125   H128    1.109   .     S
C125   H254    1.111   .     S
C125   H255    1.106   .     S
H126   C381    1.111   1_545 S
H127   C381    1.106   1_545 S
C129   O161    1.293   .     A
C129   C133    1.428   .     S
C129   O163    1.286   .     A
C130   O162    1.293   .     A
C130   C134    1.428   .     S
C130   O164    1.286   .     A
C131   C148    1.422   .     A
C131   C185    1.514   .     S
C131   C213    1.391   1_455 S
C132   C189    1.514   .     S
C132   C147    1.423   .     A
C132   C214    1.391   .     S
C134   C261    1.327   .     S
C134   H284    1.088   .     S
C135   O165    1.293   .     A
C135   C140    1.450   .     S
C135   O167    1.291   .     A
C136   O166    1.293   .     A
C136   C139    1.450   .     S
C136   O168    1.291   .     A
C137   C169    1.518   .     S
C137   C139    1.407   .     A
C137   C147    1.416   .     A
C138   C148    1.416   .     A
C138   C173    1.518   .     S
C138   C140    1.407   .     A
C139   C141    1.406   .     A
C140   C142    1.406   .     A
C141   C177    1.521   .     S
C141   C143    1.409   .     A
C142   C144    1.409   .     A
C142   C181    1.521   .     S
C143   C149    1.402   .     A
C143   C145    1.416   .     A
C144   C146    1.416   .     A
C144   C150    1.402   .     A
C145   C147    1.424   .     A
C145   C210    1.416   .     S
C146   C148    1.424   .     A
C146   C209    1.416   1_455 S
C149   H153    1.081   .     S
C149   C195    1.391   .     S
C150   H154    1.081   .     S
C150   C196    1.391   1_455 S
Cu151  Cu152   2.690   .     S
Cu151  N160    2.021   .     S
Cu151  O165    1.971   .     S
Cu151  O168    1.954   .     S
Cu151  O164    1.952   .     S
Cu151  O161    1.957   .     S
Cu152  O166    1.971   .     S
Cu152  N159    2.021   .     S
Cu152  O163    1.952   .     S
Cu152  O167    1.954   .     S
Cu152  O162    1.957   .     S
H155   C261    1.088   .     S
H157   N543    1.029   .     S
H158   N928    1.029   1_554 S
N159   H925    1.029   1_554 S
N159   N928    1.292   1_554 S
N160   N543    1.292   .     S
N160   H542    1.029   .     S
C169   H170    1.109   .     S
C169   H171    1.109   .     S
C169   H172    1.108   .     S
C173   H174    1.109   .     S
C173   H175    1.108   .     S
C173   H176    1.109   .     S
C177   H180    1.110   .     S
C177   H178    1.108   .     S
C177   H179    1.104   .     S
C181   H183    1.110   .     S
C181   H182    1.108   .     S
C181   H184    1.104   .     S
C185   H187    1.109   .     S
H186   C313    1.111   .     S
H188   C313    1.106   .     S
C189   H192    1.109   .     S
C189   H318    1.111   .     S
C189   H319    1.106   .     S
C193   O225    1.293   .     A
C193   C197    1.428   .     S
C193   O227    1.286   .     A
C194   O226    1.293   .     A
C194   C198    1.428   .     S
C194   O228    1.286   .     A
C195   C212    1.422   .     A
C195   C249    1.514   .     S
C196   C253    1.514   .     S
C196   C211    1.423   .     A
C196   C150    1.391   1_655 S
C198   C325    1.327   .     S
C198   H348    1.088   .     S
C199   O229    1.293   .     A
C199   C204    1.450   .     S
C199   O231    1.291   .     A
C200   O230    1.293   .     A
C200   C203    1.450   .     S
C200   O232    1.291   .     A
C201   C233    1.518   .     S
C201   C203    1.407   .     A
C201   C211    1.416   .     A
C202   C212    1.416   .     A
C202   C237    1.518   .     S
C202   C204    1.407   .     A
C203   C205    1.406   .     A
C204   C206    1.406   .     A
C205   C241    1.521   .     S
C205   C207    1.409   .     A
C206   C208    1.409   .     A
C206   C245    1.521   .     S
C207   C213    1.402   .     A
C207   C209    1.416   .     A
C208   C210    1.416   .     A
C208   C214    1.402   .     A
C209   C211    1.424   .     A
C209   C146    1.416   1_655 S
C210   C212    1.424   .     A
C213   H217    1.081   .     S
C213   C131    1.391   1_655 S
C214   H218    1.081   .     S
Cu215  Cu216   2.690   .     S
Cu215  N224    2.021   .     S
Cu215  O229    1.971   .     S
Cu215  O232    1.954   .     S
Cu215  O228    1.952   .     S
Cu215  O225    1.957   .     S
Cu216  O230    1.971   .     S
Cu216  N223    2.021   .     S
Cu216  O227    1.952   .     S
Cu216  O231    1.954   .     S
Cu216  O226    1.957   .     S
H219   C325    1.088   .     S
H221   N607    1.029   .     S
H222   N992    1.029   1_554 S
N223   H989    1.029   1_554 S
N223   N992    1.292   1_554 S
N224   N607    1.292   .     S
N224   H606    1.029   .     S
C233   H234    1.109   .     S
C233   H235    1.109   .     S
C233   H236    1.108   .     S
C237   H238    1.109   .     S
C237   H239    1.108   .     S
C237   H240    1.109   .     S
C241   H244    1.110   .     S
C241   H242    1.108   .     S
C241   H243    1.104   .     S
C245   H247    1.110   .     S
C245   H246    1.108   .     S
C245   H248    1.104   .     S
C249   H251    1.109   .     S
H250   C377    1.111   .     S
H252   C377    1.106   .     S
C253   H256    1.109   .     S
C253   H382    1.111   .     S
C253   H383    1.106   .     S
C257   O289    1.293   .     A
C257   C261    1.428   .     S
C257   O291    1.286   .     A
C258   O290    1.293   .     A
C258   C262    1.428   .     S
C258   O292    1.286   .     A
C259   C276    1.422   .     A
C259   C313    1.514   .     S
C259   C341    1.391   1_455 S
C260   C317    1.514   .     S
C260   C275    1.423   .     A
C260   C342    1.391   .     S
C262   C5      1.327   1_565 S
C262   H28     1.088   1_565 S
C263   O293    1.293   .     A
C263   C268    1.450   .     S
C263   O295    1.291   .     A
C264   O294    1.293   .     A
C264   C267    1.450   .     S
C264   O296    1.291   .     A
C265   C297    1.518   .     S
C265   C267    1.407   .     A
C265   C275    1.416   .     A
C266   C276    1.416   .     A
C266   C301    1.518   .     S
C266   C268    1.407   .     A
C267   C269    1.406   .     A
C268   C270    1.406   .     A
C269   C305    1.521   .     S
C269   C271    1.409   .     A
C270   C272    1.409   .     A
C270   C309    1.521   .     S
C271   C277    1.402   .     A
C271   C273    1.416   .     A
C272   C274    1.416   .     A
C272   C278    1.402   .     A
C273   C275    1.424   .     A
C273   C338    1.416   .     S
C274   C276    1.424   .     A
C274   C337    1.416   1_455 S
C277   H281    1.081   .     S
C277   C323    1.391   .     S
C278   H282    1.081   .     S
C278   C324    1.391   1_455 S
Cu279  Cu280   2.690   .     S
Cu279  N288    2.021   .     S
Cu279  O293    1.971   .     S
Cu279  O296    1.954   .     S
Cu279  O292    1.952   .     S
Cu279  O289    1.957   .     S
Cu280  O294    1.971   .     S
Cu280  N287    2.021   .     S
Cu280  O291    1.952   .     S
Cu280  O295    1.954   .     S
Cu280  O290    1.957   .     S
H283   C5      1.088   1_565 S
H285   N671    1.029   .     S
H286   N1056   1.029   1_554 S
N287   H1053   1.029   1_554 S
N287   N1056   1.292   1_554 S
N288   N671    1.292   .     S
N288   H670    1.029   .     S
C297   H298    1.109   .     S
C297   H299    1.109   .     S
C297   H300    1.108   .     S
C301   H302    1.109   .     S
C301   H303    1.108   .     S
C301   H304    1.109   .     S
C305   H308    1.110   .     S
C305   H306    1.108   .     S
C305   H307    1.104   .     S
C309   H311    1.110   .     S
C309   H310    1.108   .     S
C309   H312    1.104   .     S
C313   H315    1.109   .     S
H314   C57     1.111   1_565 S
H316   C57     1.106   1_565 S
C317   H320    1.109   .     S
C317   H62     1.111   1_565 S
C317   H63     1.106   1_565 S
C321   O353    1.293   .     A
C321   C325    1.428   .     S
C321   O355    1.286   .     A
C322   O354    1.293   .     A
C322   C326    1.428   .     S
C322   O356    1.286   .     A
C323   C340    1.422   .     A
C323   C377    1.514   .     S
C324   C381    1.514   .     S
C324   C339    1.423   .     A
C324   C278    1.391   1_655 S
C326   C69     1.327   1_565 S
C326   H92     1.088   1_565 S
C327   O357    1.293   .     A
C327   C332    1.450   .     S
C327   O359    1.291   .     A
C328   O358    1.293   .     A
C328   C331    1.450   .     S
C328   O360    1.291   .     A
C329   C361    1.518   .     S
C329   C331    1.407   .     A
C329   C339    1.416   .     A
C330   C340    1.416   .     A
C330   C365    1.518   .     S
C330   C332    1.407   .     A
C331   C333    1.406   .     A
C332   C334    1.406   .     A
C333   C369    1.521   .     S
C333   C335    1.409   .     A
C334   C336    1.409   .     A
C334   C373    1.521   .     S
C335   C341    1.402   .     A
C335   C337    1.416   .     A
C336   C338    1.416   .     A
C336   C342    1.402   .     A
C337   C339    1.424   .     A
C337   C274    1.416   1_655 S
C338   C340    1.424   .     A
C341   H345    1.081   .     S
C341   C259    1.391   1_655 S
C342   H346    1.081   .     S
Cu343  Cu344   2.690   .     S
Cu343  N352    2.021   .     S
Cu343  O357    1.971   .     S
Cu343  O360    1.954   .     S
Cu343  O356    1.952   .     S
Cu343  O353    1.957   .     S
Cu344  O358    1.971   .     S
Cu344  N351    2.021   .     S
Cu344  O355    1.952   .     S
Cu344  O359    1.954   .     S
Cu344  O354    1.957   .     S
H347   C69     1.088   1_565 S
H349   N735    1.029   .     S
H350   N1120   1.029   1_554 S
N351   H1117   1.029   1_554 S
N351   N1120   1.292   1_554 S
N352   N735    1.292   .     S
N352   H734    1.029   .     S
C361   H362    1.109   .     S
C361   H363    1.109   .     S
C361   H364    1.108   .     S
C365   H366    1.109   .     S
C365   H367    1.108   .     S
C365   H368    1.109   .     S
C369   H372    1.110   .     S
C369   H370    1.108   .     S
C369   H371    1.104   .     S
C373   H375    1.110   .     S
C373   H374    1.108   .     S
C373   H376    1.104   .     S
C377   H379    1.109   .     S
H378   C121    1.111   1_565 S
H380   C121    1.106   1_565 S
C381   H384    1.109   .     S
C381   H126    1.111   1_565 S
C381   H127    1.106   1_565 S
C385   O417    1.293   .     A
C385   C389    1.428   .     S
C385   O419    1.286   .     A
C386   O418    1.293   .     A
C386   C390    1.428   .     S
C386   O420    1.286   .     A
C387   C404    1.422   .     A
C387   C441    1.514   .     S
C387   C469    1.391   1_455 S
C388   C445    1.514   .     S
C388   C403    1.423   .     A
C388   C470    1.391   .     S
C389   C646    1.327   1_545 S
C389   H667    1.088   1_545 S
C390   C517    1.327   .     S
C390   H540    1.088   .     S
C391   O421    1.293   .     A
C391   C396    1.450   .     S
C391   O423    1.291   .     A
C392   O422    1.293   .     A
C392   C395    1.450   .     S
C392   O424    1.291   .     A
C393   C425    1.518   .     S
C393   C395    1.407   .     A
C393   C403    1.416   .     A
C394   C404    1.416   .     A
C394   C429    1.518   .     S
C394   C396    1.407   .     A
C395   C397    1.406   .     A
C396   C398    1.406   .     A
C397   C433    1.521   .     S
C397   C399    1.409   .     A
C398   C400    1.409   .     A
C398   C437    1.521   .     S
C399   C405    1.402   .     A
C399   C401    1.416   .     A
C400   C402    1.416   .     A
C400   C406    1.402   .     A
C401   C403    1.424   .     A
C401   C466    1.416   .     S
C402   C404    1.424   .     A
C402   C465    1.416   1_455 S
C405   H409    1.081   .     S
C405   C451    1.391   .     S
C406   H410    1.081   .     S
C406   C452    1.391   1_455 S
Cu407  Cu408   2.690   .     S
Cu407  N416    2.021   .     S
Cu407  O421    1.971   .     S
Cu407  O424    1.954   .     S
Cu407  O420    1.952   .     S
Cu407  O417    1.957   .     S
Cu408  O422    1.971   .     S
Cu408  N415    2.021   .     S
Cu408  O419    1.952   .     S
Cu408  O423    1.954   .     S
Cu408  O418    1.957   .     S
H411   C517    1.088   .     S
H412   C646    1.088   1_545 S
H413   N799    1.029   .     S
N416   N799    1.292   .     S
N416   H798    1.029   .     S
C425   H426    1.109   .     S
C425   H427    1.109   .     S
C425   H428    1.108   .     S
C429   H430    1.109   .     S
C429   H431    1.108   .     S
C429   H432    1.109   .     S
C433   H436    1.110   .     S
C433   H434    1.108   .     S
C433   H435    1.104   .     S
C437   H439    1.110   .     S
C437   H438    1.108   .     S
C437   H440    1.104   .     S
C441   H443    1.109   .     S
C441   H698    1.111   1_545 S
C441   H700    1.106   1_545 S
H442   C569    1.111   .     S
H444   C569    1.106   .     S
C445   H448    1.109   .     S
C445   H574    1.111   .     S
C445   H575    1.106   .     S
H446   C701    1.111   1_545 S
H447   C701    1.106   1_545 S
C449   O481    1.293   .     A
C449   C453    1.428   .     S
C449   O483    1.286   .     A
C450   O482    1.293   .     A
C450   C454    1.428   .     S
C450   O484    1.286   .     A
C451   C468    1.422   .     A
C451   C505    1.514   .     S
C452   C509    1.514   .     S
C452   C467    1.423   .     A
C452   C406    1.391   1_655 S
C453   C710    1.327   1_545 S
C453   H731    1.088   1_545 S
C454   C581    1.327   .     S
C454   H604    1.088   .     S
C455   O485    1.293   .     A
C455   C460    1.450   .     S
C455   O487    1.291   .     A
C456   O486    1.293   .     A
C456   C459    1.450   .     S
C456   O488    1.291   .     A
C457   C489    1.518   .     S
C457   C459    1.407   .     A
C457   C467    1.416   .     A
C458   C468    1.416   .     A
C458   C493    1.518   .     S
C458   C460    1.407   .     A
C459   C461    1.406   .     A
C460   C462    1.406   .     A
C461   C497    1.521   .     S
C461   C463    1.409   .     A
C462   C464    1.409   .     A
C462   C501    1.521   .     S
C463   C469    1.402   .     A
C463   C465    1.416   .     A
C464   C466    1.416   .     A
C464   C470    1.402   .     A
C465   C467    1.424   .     A
C465   C402    1.416   1_655 S
C466   C468    1.424   .     A
C469   H473    1.081   .     S
C469   C387    1.391   1_655 S
C470   H474    1.081   .     S
Cu471  Cu472   2.690   .     S
Cu471  N480    2.021   .     S
Cu471  O485    1.971   .     S
Cu471  O488    1.954   .     S
Cu471  O484    1.952   .     S
Cu471  O481    1.957   .     S
Cu472  O486    1.971   .     S
Cu472  N479    2.021   .     S
Cu472  O483    1.952   .     S
Cu472  O487    1.954   .     S
Cu472  O482    1.957   .     S
H475   C581    1.088   .     S
H476   C710    1.088   1_545 S
H477   N863    1.029   .     S
N480   N863    1.292   .     S
N480   H862    1.029   .     S
C489   H490    1.109   .     S
C489   H491    1.109   .     S
C489   H492    1.108   .     S
C493   H494    1.109   .     S
C493   H495    1.108   .     S
C493   H496    1.109   .     S
C497   H500    1.110   .     S
C497   H498    1.108   .     S
C497   H499    1.104   .     S
C501   H503    1.110   .     S
C501   H502    1.108   .     S
C501   H504    1.104   .     S
C505   H507    1.109   .     S
C505   H762    1.111   1_545 S
C505   H764    1.106   1_545 S
H506   C633    1.111   .     S
H508   C633    1.106   .     S
C509   H512    1.109   .     S
C509   H638    1.111   .     S
C509   H639    1.106   .     S
H510   C765    1.111   1_545 S
H511   C765    1.106   1_545 S
C513   O545    1.293   .     A
C513   C517    1.428   .     S
C513   O547    1.286   .     A
C514   O546    1.293   .     A
C514   C518    1.428   .     S
C514   O548    1.286   .     A
C515   C532    1.422   .     A
C515   C569    1.514   .     S
C515   C597    1.391   1_455 S
C516   C573    1.514   .     S
C516   C531    1.423   .     A
C516   C598    1.391   .     S
C518   C645    1.327   .     S
C518   H668    1.088   .     S
C519   O549    1.293   .     A
C519   C524    1.450   .     S
C519   O551    1.291   .     A
C520   O550    1.293   .     A
C520   C523    1.450   .     S
C520   O552    1.291   .     A
C521   C553    1.518   .     S
C521   C523    1.407   .     A
C521   C531    1.416   .     A
C522   C532    1.416   .     A
C522   C557    1.518   .     S
C522   C524    1.407   .     A
C523   C525    1.406   .     A
C524   C526    1.406   .     A
C525   C561    1.521   .     S
C525   C527    1.409   .     A
C526   C528    1.409   .     A
C526   C565    1.521   .     S
C527   C533    1.402   .     A
C527   C529    1.416   .     A
C528   C530    1.416   .     A
C528   C534    1.402   .     A
C529   C531    1.424   .     A
C529   C594    1.416   .     S
C530   C532    1.424   .     A
C530   C593    1.416   1_455 S
C533   H537    1.081   .     S
C533   C579    1.391   .     S
C534   H538    1.081   .     S
C534   C580    1.391   1_455 S
Cu535  Cu536   2.690   .     S
Cu535  N544    2.021   .     S
Cu535  O549    1.971   .     S
Cu535  O552    1.954   .     S
Cu535  O548    1.952   .     S
Cu535  O545    1.957   .     S
Cu536  O550    1.971   .     S
Cu536  N543    2.021   .     S
Cu536  O547    1.952   .     S
Cu536  O551    1.954   .     S
Cu536  O546    1.957   .     S
H539   C645    1.088   .     S
H541   N927    1.029   .     S
N544   N927    1.292   .     S
N544   H926    1.029   .     S
C553   H554    1.109   .     S
C553   H555    1.109   .     S
C553   H556    1.108   .     S
C557   H558    1.109   .     S
C557   H559    1.108   .     S
C557   H560    1.109   .     S
C561   H564    1.110   .     S
C561   H562    1.108   .     S
C561   H563    1.104   .     S
C565   H567    1.110   .     S
C565   H566    1.108   .     S
C565   H568    1.104   .     S
C569   H571    1.109   .     S
H570   C697    1.111   .     S
H572   C697    1.106   .     S
C573   H576    1.109   .     S
C573   H702    1.111   .     S
C573   H703    1.106   .     S
C577   O609    1.293   .     A
C577   C581    1.428   .     S
C577   O611    1.286   .     A
C578   O610    1.293   .     A
C578   C582    1.428   .     S
C578   O612    1.286   .     A
C579   C596    1.422   .     A
C579   C633    1.514   .     S
C580   C637    1.514   .     S
C580   C595    1.423   .     A
C580   C534    1.391   1_655 S
C582   C709    1.327   .     S
C582   H732    1.088   .     S
C583   O613    1.293   .     A
C583   C588    1.450   .     S
C583   O615    1.291   .     A
C584   O614    1.293   .     A
C584   C587    1.450   .     S
C584   O616    1.291   .     A
C585   C617    1.518   .     S
C585   C587    1.407   .     A
C585   C595    1.416   .     A
C586   C596    1.416   .     A
C586   C621    1.518   .     S
C586   C588    1.407   .     A
C587   C589    1.406   .     A
C588   C590    1.406   .     A
C589   C625    1.521   .     S
C589   C591    1.409   .     A
C590   C592    1.409   .     A
C590   C629    1.521   .     S
C591   C597    1.402   .     A
C591   C593    1.416   .     A
C592   C594    1.416   .     A
C592   C598    1.402   .     A
C593   C595    1.424   .     A
C593   C530    1.416   1_655 S
C594   C596    1.424   .     A
C597   H601    1.081   .     S
C597   C515    1.391   1_655 S
C598   H602    1.081   .     S
Cu599  Cu600   2.690   .     S
Cu599  N608    2.021   .     S
Cu599  O613    1.971   .     S
Cu599  O616    1.954   .     S
Cu599  O612    1.952   .     S
Cu599  O609    1.957   .     S
Cu600  O614    1.971   .     S
Cu600  N607    2.021   .     S
Cu600  O611    1.952   .     S
Cu600  O615    1.954   .     S
Cu600  O610    1.957   .     S
H603   C709    1.088   .     S
H605   N991    1.029   .     S
N608   N991    1.292   .     S
N608   H990    1.029   .     S
C617   H618    1.109   .     S
C617   H619    1.109   .     S
C617   H620    1.108   .     S
C621   H622    1.109   .     S
C621   H623    1.108   .     S
C621   H624    1.109   .     S
C625   H628    1.110   .     S
C625   H626    1.108   .     S
C625   H627    1.104   .     S
C629   H631    1.110   .     S
C629   H630    1.108   .     S
C629   H632    1.104   .     S
C633   H635    1.109   .     S
H634   C761    1.111   .     S
H636   C761    1.106   .     S
C637   H640    1.109   .     S
C637   H766    1.111   .     S
C637   H767    1.106   .     S
C641   O673    1.293   .     A
C641   C645    1.428   .     S
C641   O675    1.286   .     A
C642   O674    1.293   .     A
C642   C646    1.428   .     S
C642   O676    1.286   .     A
C643   C660    1.422   .     A
C643   C697    1.514   .     S
C643   C725    1.391   1_455 S
C644   C701    1.514   .     S
C644   C659    1.423   .     A
C644   C726    1.391   .     S
C646   C389    1.327   1_565 S
C646   H412    1.088   1_565 S
C647   O677    1.293   .     A
C647   C652    1.450   .     S
C647   O679    1.291   .     A
C648   O678    1.293   .     A
C648   C651    1.450   .     S
C648   O680    1.291   .     A
C649   C681    1.518   .     S
C649   C651    1.407   .     A
C649   C659    1.416   .     A
C650   C660    1.416   .     A
C650   C685    1.518   .     S
C650   C652    1.407   .     A
C651   C653    1.406   .     A
C652   C654    1.406   .     A
C653   C689    1.521   .     S
C653   C655    1.409   .     A
C654   C656    1.409   .     A
C654   C693    1.521   .     S
C655   C661    1.402   .     A
C655   C657    1.416   .     A
C656   C658    1.416   .     A
C656   C662    1.402   .     A
C657   C659    1.424   .     A
C657   C722    1.416   .     S
C658   C660    1.424   .     A
C658   C721    1.416   1_455 S
C661   H665    1.081   .     S
C661   C707    1.391   .     S
C662   H666    1.081   .     S
C662   C708    1.391   1_455 S
Cu663  Cu664   2.690   .     S
Cu663  N672    2.021   .     S
Cu663  O677    1.971   .     S
Cu663  O680    1.954   .     S
Cu663  O676    1.952   .     S
Cu663  O673    1.957   .     S
Cu664  O678    1.971   .     S
Cu664  N671    2.021   .     S
Cu664  O675    1.952   .     S
Cu664  O679    1.954   .     S
Cu664  O674    1.957   .     S
H667   C389    1.088   1_565 S
H669   N1055   1.029   .     S
N672   N1055   1.292   .     S
N672   H1054   1.029   .     S
C681   H682    1.109   .     S
C681   H683    1.109   .     S
C681   H684    1.108   .     S
C685   H686    1.109   .     S
C685   H687    1.108   .     S
C685   H688    1.109   .     S
C689   H692    1.110   .     S
C689   H690    1.108   .     S
C689   H691    1.104   .     S
C693   H695    1.110   .     S
C693   H694    1.108   .     S
C693   H696    1.104   .     S
C697   H699    1.109   .     S
H698   C441    1.111   1_565 S
H700   C441    1.106   1_565 S
C701   H704    1.109   .     S
C701   H446    1.111   1_565 S
C701   H447    1.106   1_565 S
C705   O737    1.293   .     A
C705   C709    1.428   .     S
C705   O739    1.286   .     A
C706   O738    1.293   .     A
C706   C710    1.428   .     S
C706   O740    1.286   .     A
C707   C724    1.422   .     A
C707   C761    1.514   .     S
C708   C765    1.514   .     S
C708   C723    1.423   .     A
C708   C662    1.391   1_655 S
C710   C453    1.327   1_565 S
C710   H476    1.088   1_565 S
C711   O741    1.293   .     A
C711   C716    1.450   .     S
C711   O743    1.291   .     A
C712   O742    1.293   .     A
C712   C715    1.450   .     S
C712   O744    1.291   .     A
C713   C745    1.518   .     S
C713   C715    1.407   .     A
C713   C723    1.416   .     A
C714   C724    1.416   .     A
C714   C749    1.518   .     S
C714   C716    1.407   .     A
C715   C717    1.406   .     A
C716   C718    1.406   .     A
C717   C753    1.521   .     S
C717   C719    1.409   .     A
C718   C720    1.409   .     A
C718   C757    1.521   .     S
C719   C725    1.402   .     A
C719   C721    1.416   .     A
C720   C722    1.416   .     A
C720   C726    1.402   .     A
C721   C723    1.424   .     A
C721   C658    1.416   1_655 S
C722   C724    1.424   .     A
C725   H729    1.081   .     S
C725   C643    1.391   1_655 S
C726   H730    1.081   .     S
Cu727  Cu728   2.690   .     S
Cu727  N736    2.021   .     S
Cu727  O741    1.971   .     S
Cu727  O744    1.954   .     S
Cu727  O740    1.952   .     S
Cu727  O737    1.957   .     S
Cu728  O742    1.971   .     S
Cu728  N735    2.021   .     S
Cu728  O739    1.952   .     S
Cu728  O743    1.954   .     S
Cu728  O738    1.957   .     S
H731   C453    1.088   1_565 S
H733   N1119   1.029   .     S
N736   N1119   1.292   .     S
N736   H1118   1.029   .     S
C745   H746    1.109   .     S
C745   H747    1.109   .     S
C745   H748    1.108   .     S
C749   H750    1.109   .     S
C749   H751    1.108   .     S
C749   H752    1.109   .     S
C753   H756    1.110   .     S
C753   H754    1.108   .     S
C753   H755    1.104   .     S
C757   H759    1.110   .     S
C757   H758    1.108   .     S
C757   H760    1.104   .     S
C761   H763    1.109   .     S
H762   C505    1.111   1_565 S
H764   C505    1.106   1_565 S
C765   H768    1.109   .     S
C765   H510    1.111   1_565 S
C765   H511    1.106   1_565 S
C769   O801    1.293   .     A
C769   C773    1.428   .     S
C769   O803    1.286   .     A
C770   O802    1.293   .     A
C770   C774    1.428   .     S
C770   O804    1.286   .     A
C771   C788    1.422   .     A
C771   C825    1.514   .     S
C771   C853    1.391   1_455 S
C772   C829    1.514   .     S
C772   C787    1.423   .     A
C772   C854    1.391   .     S
C773   C1030   1.327   1_545 S
C773   H1051   1.088   1_545 S
C774   C901    1.327   .     S
C774   H924    1.088   .     S
C775   O805    1.293   .     A
C775   C780    1.450   .     S
C775   O807    1.291   .     A
C776   O806    1.293   .     A
C776   C779    1.450   .     S
C776   O808    1.291   .     A
C777   C809    1.518   .     S
C777   C779    1.407   .     A
C777   C787    1.416   .     A
C778   C788    1.416   .     A
C778   C813    1.518   .     S
C778   C780    1.407   .     A
C779   C781    1.406   .     A
C780   C782    1.406   .     A
C781   C817    1.521   .     S
C781   C783    1.409   .     A
C782   C784    1.409   .     A
C782   C821    1.521   .     S
C783   C789    1.402   .     A
C783   C785    1.416   .     A
C784   C786    1.416   .     A
C784   C790    1.402   .     A
C785   C787    1.424   .     A
C785   C850    1.416   .     S
C786   C788    1.424   .     A
C786   C849    1.416   1_455 S
C789   H793    1.081   .     S
C789   C835    1.391   .     S
C790   H794    1.081   .     S
C790   C836    1.391   1_455 S
Cu791  Cu792   2.690   .     S
Cu791  N800    2.021   .     S
Cu791  O805    1.971   .     S
Cu791  O808    1.954   .     S
Cu791  O804    1.952   .     S
Cu791  O801    1.957   .     S
Cu792  O806    1.971   .     S
Cu792  N799    2.021   .     S
Cu792  O803    1.952   .     S
Cu792  O807    1.954   .     S
Cu792  O802    1.957   .     S
H795   C901    1.088   .     S
H796   C1030   1.088   1_545 S
H797   N31     1.029   1_556 S
N800   N31     1.292   1_556 S
N800   H30     1.029   1_556 S
C809   H810    1.109   .     S
C809   H811    1.109   .     S
C809   H812    1.108   .     S
C813   H814    1.109   .     S
C813   H815    1.108   .     S
C813   H816    1.109   .     S
C817   H820    1.110   .     S
C817   H818    1.108   .     S
C817   H819    1.104   .     S
C821   H823    1.110   .     S
C821   H822    1.108   .     S
C821   H824    1.104   .     S
C825   H827    1.109   .     S
C825   H1082   1.111   1_545 S
C825   H1084   1.106   1_545 S
H826   C953    1.111   .     S
H828   C953    1.106   .     S
C829   H832    1.109   .     S
C829   H958    1.111   .     S
C829   H959    1.106   .     S
H830   C1085   1.111   1_545 S
H831   C1085   1.106   1_545 S
C833   O865    1.293   .     A
C833   C837    1.428   .     S
C833   O867    1.286   .     A
C834   O866    1.293   .     A
C834   C838    1.428   .     S
C834   O868    1.286   .     A
C835   C852    1.422   .     A
C835   C889    1.514   .     S
C836   C893    1.514   .     S
C836   C851    1.423   .     A
C836   C790    1.391   1_655 S
C837   C1094   1.327   1_545 S
C837   H1115   1.088   1_545 S
C838   C965    1.327   .     S
C838   H988    1.088   .     S
C839   O869    1.293   .     A
C839   C844    1.450   .     S
C839   O871    1.291   .     A
C840   O870    1.293   .     A
C840   C843    1.450   .     S
C840   O872    1.291   .     A
C841   C873    1.518   .     S
C841   C843    1.407   .     A
C841   C851    1.416   .     A
C842   C852    1.416   .     A
C842   C877    1.518   .     S
C842   C844    1.407   .     A
C843   C845    1.406   .     A
C844   C846    1.406   .     A
C845   C881    1.521   .     S
C845   C847    1.409   .     A
C846   C848    1.409   .     A
C846   C885    1.521   .     S
C847   C853    1.402   .     A
C847   C849    1.416   .     A
C848   C850    1.416   .     A
C848   C854    1.402   .     A
C849   C851    1.424   .     A
C849   C786    1.416   1_655 S
C850   C852    1.424   .     A
C853   H857    1.081   .     S
C853   C771    1.391   1_655 S
C854   H858    1.081   .     S
Cu855  Cu856   2.690   .     S
Cu855  N864    2.021   .     S
Cu855  O869    1.971   .     S
Cu855  O872    1.954   .     S
Cu855  O868    1.952   .     S
Cu855  O865    1.957   .     S
Cu856  O870    1.971   .     S
Cu856  N863    2.021   .     S
Cu856  O867    1.952   .     S
Cu856  O871    1.954   .     S
Cu856  O866    1.957   .     S
H859   C965    1.088   .     S
H860   C1094   1.088   1_545 S
H861   N95     1.029   1_556 S
N864   N95     1.292   1_556 S
N864   H94     1.029   1_556 S
C873   H874    1.109   .     S
C873   H875    1.109   .     S
C873   H876    1.108   .     S
C877   H878    1.109   .     S
C877   H879    1.108   .     S
C877   H880    1.109   .     S
C881   H884    1.110   .     S
C881   H882    1.108   .     S
C881   H883    1.104   .     S
C885   H887    1.110   .     S
C885   H886    1.108   .     S
C885   H888    1.104   .     S
C889   H891    1.109   .     S
C889   H1146   1.111   1_545 S
C889   H1148   1.106   1_545 S
H890   C1017   1.111   .     S
H892   C1017   1.106   .     S
C893   H896    1.109   .     S
C893   H1022   1.111   .     S
C893   H1023   1.106   .     S
H894   C1149   1.111   1_545 S
H895   C1149   1.106   1_545 S
C897   O929    1.293   .     A
C897   C901    1.428   .     S
C897   O931    1.286   .     A
C898   O930    1.293   .     A
C898   C902    1.428   .     S
C898   O932    1.286   .     A
C899   C916    1.422   .     A
C899   C953    1.514   .     S
C899   C981    1.391   1_455 S
C900   C957    1.514   .     S
C900   C915    1.423   .     A
C900   C982    1.391   .     S
C902   C1029   1.327   .     S
C902   H1052   1.088   .     S
C903   O933    1.293   .     A
C903   C908    1.450   .     S
C903   O935    1.291   .     A
C904   O934    1.293   .     A
C904   C907    1.450   .     S
C904   O936    1.291   .     A
C905   C937    1.518   .     S
C905   C907    1.407   .     A
C905   C915    1.416   .     A
C906   C916    1.416   .     A
C906   C941    1.518   .     S
C906   C908    1.407   .     A
C907   C909    1.406   .     A
C908   C910    1.406   .     A
C909   C945    1.521   .     S
C909   C911    1.409   .     A
C910   C912    1.409   .     A
C910   C949    1.521   .     S
C911   C917    1.402   .     A
C911   C913    1.416   .     A
C912   C914    1.416   .     A
C912   C918    1.402   .     A
C913   C915    1.424   .     A
C913   C978    1.416   .     S
C914   C916    1.424   .     A
C914   C977    1.416   1_455 S
C917   H921    1.081   .     S
C917   C963    1.391   .     S
C918   H922    1.081   .     S
C918   C964    1.391   1_455 S
Cu919  Cu920   2.690   .     S
Cu919  N928    2.021   .     S
Cu919  O933    1.971   .     S
Cu919  O936    1.954   .     S
Cu919  O932    1.952   .     S
Cu919  O929    1.957   .     S
Cu920  O934    1.971   .     S
Cu920  N927    2.021   .     S
Cu920  O931    1.952   .     S
Cu920  O935    1.954   .     S
Cu920  O930    1.957   .     S
H923   C1029   1.088   .     S
H925   N159    1.029   1_556 S
N928   N159    1.292   1_556 S
N928   H158    1.029   1_556 S
C937   H938    1.109   .     S
C937   H939    1.109   .     S
C937   H940    1.108   .     S
C941   H942    1.109   .     S
C941   H943    1.108   .     S
C941   H944    1.109   .     S
C945   H948    1.110   .     S
C945   H946    1.108   .     S
C945   H947    1.104   .     S
C949   H951    1.110   .     S
C949   H950    1.108   .     S
C949   H952    1.104   .     S
C953   H955    1.109   .     S
H954   C1081   1.111   .     S
H956   C1081   1.106   .     S
C957   H960    1.109   .     S
C957   H1086   1.111   .     S
C957   H1087   1.106   .     S
C961   O993    1.293   .     A
C961   C965    1.428   .     S
C961   O995    1.286   .     A
C962   O994    1.293   .     A
C962   C966    1.428   .     S
C962   O996    1.286   .     A
C963   C980    1.422   .     A
C963   C1017   1.514   .     S
C964   C1021   1.514   .     S
C964   C979    1.423   .     A
C964   C918    1.391   1_655 S
C966   C1093   1.327   .     S
C966   H1116   1.088   .     S
C967   O997    1.293   .     A
C967   C972    1.450   .     S
C967   O999    1.291   .     A
C968   O998    1.293   .     A
C968   C971    1.450   .     S
C968   O1000   1.291   .     A
C969   C1001   1.518   .     S
C969   C971    1.407   .     A
C969   C979    1.416   .     A
C970   C980    1.416   .     A
C970   C1005   1.518   .     S
C970   C972    1.407   .     A
C971   C973    1.406   .     A
C972   C974    1.406   .     A
C973   C1009   1.521   .     S
C973   C975    1.409   .     A
C974   C976    1.409   .     A
C974   C1013   1.521   .     S
C975   C981    1.402   .     A
C975   C977    1.416   .     A
C976   C978    1.416   .     A
C976   C982    1.402   .     A
C977   C979    1.424   .     A
C977   C914    1.416   1_655 S
C978   C980    1.424   .     A
C981   H985    1.081   .     S
C981   C899    1.391   1_655 S
C982   H986    1.081   .     S
Cu983  Cu984   2.690   .     S
Cu983  N992    2.021   .     S
Cu983  O997    1.971   .     S
Cu983  O1000   1.954   .     S
Cu983  O996    1.952   .     S
Cu983  O993    1.957   .     S
Cu984  O998    1.971   .     S
Cu984  N991    2.021   .     S
Cu984  O995    1.952   .     S
Cu984  O999    1.954   .     S
Cu984  O994    1.957   .     S
H987   C1093   1.088   .     S
H989   N223    1.029   1_556 S
N992   N223    1.292   1_556 S
N992   H222    1.029   1_556 S
C1001  H1002   1.109   .     S
C1001  H1003   1.109   .     S
C1001  H1004   1.108   .     S
C1005  H1006   1.109   .     S
C1005  H1007   1.108   .     S
C1005  H1008   1.109   .     S
C1009  H1012   1.110   .     S
C1009  H1010   1.108   .     S
C1009  H1011   1.104   .     S
C1013  H1015   1.110   .     S
C1013  H1014   1.108   .     S
C1013  H1016   1.104   .     S
C1017  H1019   1.109   .     S
H1018  C1145   1.111   .     S
H1020  C1145   1.106   .     S
C1021  H1024   1.109   .     S
C1021  H1150   1.111   .     S
C1021  H1151   1.106   .     S
C1025  O1057   1.293   .     A
C1025  C1029   1.428   .     S
C1025  O1059   1.286   .     A
C1026  O1058   1.293   .     A
C1026  C1030   1.428   .     S
C1026  O1060   1.286   .     A
C1027  C1044   1.422   .     A
C1027  C1081   1.514   .     S
C1027  C1109   1.391   1_455 S
C1028  C1085   1.514   .     S
C1028  C1043   1.423   .     A
C1028  C1110   1.391   .     S
C1030  C773    1.327   1_565 S
C1030  H796    1.088   1_565 S
C1031  O1061   1.293   .     A
C1031  C1036   1.450   .     S
C1031  O1063   1.291   .     A
C1032  O1062   1.293   .     A
C1032  C1035   1.450   .     S
C1032  O1064   1.291   .     A
C1033  C1065   1.518   .     S
C1033  C1035   1.407   .     A
C1033  C1043   1.416   .     A
C1034  C1044   1.416   .     A
C1034  C1069   1.518   .     S
C1034  C1036   1.407   .     A
C1035  C1037   1.406   .     A
C1036  C1038   1.406   .     A
C1037  C1073   1.521   .     S
C1037  C1039   1.409   .     A
C1038  C1040   1.409   .     A
C1038  C1077   1.521   .     S
C1039  C1045   1.402   .     A
C1039  C1041   1.416   .     A
C1040  C1042   1.416   .     A
C1040  C1046   1.402   .     A
C1041  C1043   1.424   .     A
C1041  C1106   1.416   .     S
C1042  C1044   1.424   .     A
C1042  C1105   1.416   1_455 S
C1045  H1049   1.081   .     S
C1045  C1091   1.391   .     S
C1046  H1050   1.081   .     S
C1046  C1092   1.391   1_455 S
Cu1047 Cu1048  2.690   .     S
Cu1047 N1056   2.021   .     S
Cu1047 O1061   1.971   .     S
Cu1047 O1064   1.954   .     S
Cu1047 O1060   1.952   .     S
Cu1047 O1057   1.957   .     S
Cu1048 O1062   1.971   .     S
Cu1048 N1055   2.021   .     S
Cu1048 O1059   1.952   .     S
Cu1048 O1063   1.954   .     S
Cu1048 O1058   1.957   .     S
H1051  C773    1.088   1_565 S
H1053  N287    1.029   1_556 S
N1056  N287    1.292   1_556 S
N1056  H286    1.029   1_556 S
C1065  H1066   1.109   .     S
C1065  H1067   1.109   .     S
C1065  H1068   1.108   .     S
C1069  H1070   1.109   .     S
C1069  H1071   1.108   .     S
C1069  H1072   1.109   .     S
C1073  H1076   1.110   .     S
C1073  H1074   1.108   .     S
C1073  H1075   1.104   .     S
C1077  H1079   1.110   .     S
C1077  H1078   1.108   .     S
C1077  H1080   1.104   .     S
C1081  H1083   1.109   .     S
H1082  C825    1.111   1_565 S
H1084  C825    1.106   1_565 S
C1085  H1088   1.109   .     S
C1085  H830    1.111   1_565 S
C1085  H831    1.106   1_565 S
C1089  O1121   1.293   .     A
C1089  C1093   1.428   .     S
C1089  O1123   1.286   .     A
C1090  O1122   1.293   .     A
C1090  C1094   1.428   .     S
C1090  O1124   1.286   .     A
C1091  C1108   1.422   .     A
C1091  C1145   1.514   .     S
C1092  C1149   1.514   .     S
C1092  C1107   1.423   .     A
C1092  C1046   1.391   1_655 S
C1094  C837    1.327   1_565 S
C1094  H860    1.088   1_565 S
C1095  O1125   1.293   .     A
C1095  C1100   1.450   .     S
C1095  O1127   1.291   .     A
C1096  O1126   1.293   .     A
C1096  C1099   1.450   .     S
C1096  O1128   1.291   .     A
C1097  C1129   1.518   .     S
C1097  C1099   1.407   .     A
C1097  C1107   1.416   .     A
C1098  C1108   1.416   .     A
C1098  C1133   1.518   .     S
C1098  C1100   1.407   .     A
C1099  C1101   1.406   .     A
C1100  C1102   1.406   .     A
C1101  C1137   1.521   .     S
C1101  C1103   1.409   .     A
C1102  C1104   1.409   .     A
C1102  C1141   1.521   .     S
C1103  C1109   1.402   .     A
C1103  C1105   1.416   .     A
C1104  C1106   1.416   .     A
C1104  C1110   1.402   .     A
C1105  C1107   1.424   .     A
C1105  C1042   1.416   1_655 S
C1106  C1108   1.424   .     A
C1109  H1113   1.081   .     S
C1109  C1027   1.391   1_655 S
C1110  H1114   1.081   .     S
Cu1111 Cu1112  2.690   .     S
Cu1111 N1120   2.021   .     S
Cu1111 O1125   1.971   .     S
Cu1111 O1128   1.954   .     S
Cu1111 O1124   1.952   .     S
Cu1111 O1121   1.957   .     S
Cu1112 O1126   1.971   .     S
Cu1112 N1119   2.021   .     S
Cu1112 O1123   1.952   .     S
Cu1112 O1127   1.954   .     S
Cu1112 O1122   1.957   .     S
H1115  C837    1.088   1_565 S
H1117  N351    1.029   1_556 S
N1120  N351    1.292   1_556 S
N1120  H350    1.029   1_556 S
C1129  H1130   1.109   .     S
C1129  H1131   1.109   .     S
C1129  H1132   1.108   .     S
C1133  H1134   1.109   .     S
C1133  H1135   1.108   .     S
C1133  H1136   1.109   .     S
C1137  H1140   1.110   .     S
C1137  H1138   1.108   .     S
C1137  H1139   1.104   .     S
C1141  H1143   1.110   .     S
C1141  H1142   1.108   .     S
C1141  H1144   1.104   .     S
C1145  H1147   1.109   .     S
H1146  C889    1.111   1_565 S
H1148  C889    1.106   1_565 S
C1149  H1152   1.109   .     S
C1149  H894    1.111   1_565 S
C1149  H895    1.106   1_565 S
