data_str_m3_o1_o1_pcu_sym.28
_audit_creation_date              2020-01-03
_audit_creation_method            'Materials Studio'
_symmetry_space_group_name_H-M    'P1'
_symmetry_Int_Tables_number       1
_symmetry_cell_setting            triclinic
loop_
_symmetry_equiv_pos_as_xyz
  x,y,z
_cell_length_a                    30.3588
_cell_length_b                    30.3529
_cell_length_c                    29.5509
_cell_angle_alpha                 89.7436
_cell_angle_beta                  89.9742
_cell_angle_gamma                 90.6857
loop_
_atom_site_label
_atom_site_type_symbol
_atom_site_fract_x
_atom_site_fract_y
_atom_site_fract_z
_atom_site_U_iso_or_equiv
_atom_site_adp_type
_atom_site_occupancy
C1     C     0.05992   0.19002   0.16671   0.00000  Uiso   1.00
C2     C     0.48499   0.21417   0.30956   0.00000  Uiso   1.00
C3     C     0.48510   0.21412   0.02413   0.00000  Uiso   1.00
C4     C     0.01490   0.28588   0.30920   0.00000  Uiso   1.00
C5     C     0.26501   0.03583   0.02378   0.00000  Uiso   1.00
C6     C     0.23499   0.46417   0.30956   0.00000  Uiso   1.00
C7     C     0.23510   0.46412   0.02413   0.00000  Uiso   1.00
C8     C     0.26490   0.03588   0.30920   0.00000  Uiso   1.00
C9     C     0.36273   0.16970   0.16596   0.00000  Uiso   1.00
C10    C     0.13726   0.33030   0.16753   0.00000  Uiso   1.00
C11    C     0.08030   0.38723   0.16773   0.00000  Uiso   1.00
C12    C     0.44008   0.30998   0.16663   0.00000  Uiso   1.00
C13    C     0.41970   0.11278   0.16545   0.00000  Uiso   1.00
C14    C     0.09287   0.12471   0.20135   0.00000  Uiso   1.00
C15    C     0.40706   0.37522   0.13192   0.00000  Uiso   1.00
C16    C     0.37502   0.34280   0.20142   0.00000  Uiso   1.00
C17    C     0.12505   0.15727   0.13198   0.00000  Uiso   1.00
C18    C     0.11274   0.41970   0.16580   0.00000  Uiso   1.00
C19    C     0.38727   0.08030   0.16738   0.00000  Uiso   1.00
C20    C     0.33030   0.13722   0.16788   0.00000  Uiso   1.00
C21    C     0.16970   0.36277   0.16560   0.00000  Uiso   1.00
C22    C     0.34294   0.37478   0.20142   0.00000  Uiso   1.00
C23    C     0.44012   0.19017   0.16659   0.00000  Uiso   1.00
C24    C     0.15713   0.12529   0.13199   0.00000  Uiso   1.00
C25    C     0.12495   0.09273   0.20135   0.00000  Uiso   1.00
C26    C     0.37498   0.40720   0.13191   0.00000  Uiso   1.00
C27    C     0.09299   0.34296   0.16727   0.00000  Uiso   1.00
C28    C     0.40700   0.15705   0.16606   0.00000  Uiso   1.00
C29    C     0.40691   0.34311   0.16662   0.00000  Uiso   1.00
C30    C     0.09309   0.15689   0.16671   0.00000  Uiso   1.00
C31    C     0.34300   0.09295   0.16727   0.00000  Uiso   1.00
C32    C     0.15701   0.40704   0.16606   0.00000  Uiso   1.00
C33    C     0.15691   0.09311   0.16662   0.00000  Uiso   1.00
C34    C     0.05987   0.30984   0.16674   0.00000  Uiso   1.00
C35    C     0.34309   0.40689   0.16671   0.00000  Uiso   1.00
C36    C     0.35049   0.21558   0.16132   0.00000  Uiso   1.00
C37    C     0.14948   0.28442   0.17231   0.00000  Uiso   1.00
C38    C     0.03445   0.39938   0.17266   0.00000  Uiso   1.00
C39    C     0.46554   0.10066   0.16038   0.00000  Uiso   1.00
C40    C     0.05883   0.12288   0.23612   0.00000  Uiso   1.00
C41    C     0.44102   0.37699   0.09706   0.00000  Uiso   1.00
C42    C     0.37377   0.30889   0.23654   0.00000  Uiso   1.00
C43    C     0.12636   0.19126   0.09695   0.00000  Uiso   1.00
C44    C     0.10052   0.46558   0.16102   0.00000  Uiso   1.00
C45    C     0.30992   0.44002   0.16671   0.00000  Uiso   1.00
C46    C     0.39951   0.03442   0.17202   0.00000  Uiso   1.00
C47    C     0.28446   0.14934   0.17295   0.00000  Uiso   1.00
C48    C     0.21555   0.35062   0.16067   0.00000  Uiso   1.00
C49    C     0.30898   0.37301   0.23627   0.00000  Uiso   1.00
C50    C     0.19117   0.12712   0.09722   0.00000  Uiso   1.00
C51    C     0.12364   0.05874   0.23638   0.00000  Uiso   1.00
C52    C     0.37623   0.44111   0.09680   0.00000  Uiso   1.00
C53    C     0.19008   0.05998   0.16663   0.00000  Uiso   1.00
C54    C     0.19013   0.44016   0.16659   0.00000  Uiso   1.00
C55    C     0.30988   0.05983   0.16674   0.00000  Uiso   1.00
C56    C     0.01501   0.28583   0.02378   0.00000  Uiso   1.00
H57    H     0.02717   0.31446   0.04167   0.00000  Uiso   1.00
H58    H     0.47284   0.18553   0.29166   0.00000  Uiso   1.00
H59    H     0.47326   0.18533   0.04231   0.00000  Uiso   1.00
H60    H     0.02674   0.31467   0.29103   0.00000  Uiso   1.00
H61    H     0.27716   0.06447   0.04167   0.00000  Uiso   1.00
H62    H     0.22283   0.43554   0.29166   0.00000  Uiso   1.00
H63    H     0.22326   0.43533   0.04231   0.00000  Uiso   1.00
H64    H     0.27674   0.06467   0.29103   0.00000  Uiso   1.00
N65    N     0.00000   0.25000   0.28573   0.00000  Uiso   1.00
N66    N     0.46792   0.37868   0.06933   0.00000  Uiso   1.00
N67    N     0.37271   0.28200   0.26444   0.00000  Uiso   1.00
N68    N     0.12748   0.21821   0.06911   0.00000  Uiso   1.00
N69    N     0.09033   0.00194   0.15658   0.00000  Uiso   1.00
N70    N     0.40972   0.49805   0.17636   0.00000  Uiso   1.00
N71    N     0.24813   0.15943   0.17763   0.00000  Uiso   1.00
N72    N     0.25189   0.34051   0.15611   0.00000  Uiso   1.00
N73    N     0.28208   0.37132   0.26400   0.00000  Uiso   1.00
N74    N     0.21813   0.12886   0.06955   0.00000  Uiso   1.00
N75    N     0.12252   0.03179   0.26422   0.00000  Uiso   1.00
N76    N     0.00000   0.25000   0.04760   0.00000  Uiso   1.00
N77    N     0.37729   0.46800   0.06889   0.00000  Uiso   1.00
N78    N     0.25000  -0.00000   0.28573   0.00000  Uiso   1.00
N79    N     0.25000  -0.00000   0.04760   0.00000  Uiso   1.00
N80    N     0.34028   0.25195   0.15698   0.00000  Uiso   1.00
N81    N     0.15967   0.24806   0.17676   0.00000  Uiso   1.00
N82    N     0.49811   0.40949   0.17723   0.00000  Uiso   1.00
N83    N     0.00187   0.09057   0.15571   0.00000  Uiso   1.00
N84    N     0.03187   0.12114   0.26378   0.00000  Uiso   1.00
O85    O     0.04581   0.20419   0.20487   0.00000  Uiso   1.00
O86    O     0.20420   0.04581   0.12846   0.00000  Uiso   1.00
O87    O     0.20420   0.04581   0.20487   0.00000  Uiso   1.00
O88    O     0.29581   0.45419   0.12846   0.00000  Uiso   1.00
O89    O     0.20420   0.45419   0.12846   0.00000  Uiso   1.00
O90    O     0.29581   0.04581   0.20487   0.00000  Uiso   1.00
O91    O     0.29581   0.04581   0.12846   0.00000  Uiso   1.00
O92    O     0.20420   0.45419   0.20487   0.00000  Uiso   1.00
O93    O     0.45420   0.29581   0.12846   0.00000  Uiso   1.00
O94    O     0.45420   0.29581   0.20487   0.00000  Uiso   1.00
O95    O     0.04581   0.20419   0.12846   0.00000  Uiso   1.00
O96    O     0.45420   0.20419   0.12846   0.00000  Uiso   1.00
O97    O     0.04581   0.29581   0.20487   0.00000  Uiso   1.00
O98    O     0.04581   0.29581   0.12846   0.00000  Uiso   1.00
O99    O     0.45420   0.20419   0.20487   0.00000  Uiso   1.00
O100   O     0.29581   0.45419   0.20487   0.00000  Uiso   1.00
Zn101  Zn    0.00000   0.25000   0.21771   0.00000  Uiso   1.00
Zn102  Zn    0.00000   0.25000   0.11563   0.00000  Uiso   1.00
Zn103  Zn    0.25000  -0.00000   0.21771   0.00000  Uiso   1.00
Zn104  Zn    0.25000  -0.00000   0.11563   0.00000  Uiso   1.00
C105   C     0.55992   0.19002   0.16671   0.00000  Uiso   1.00
C106   C     0.98499   0.21417   0.30956   0.00000  Uiso   1.00
C107   C     0.98510   0.21412   0.02413   0.00000  Uiso   1.00
C108   C     0.51490   0.28588   0.30920   0.00000  Uiso   1.00
C109   C     0.76501   0.03583   0.02378   0.00000  Uiso   1.00
C110   C     0.73499   0.46417   0.30956   0.00000  Uiso   1.00
C111   C     0.73510   0.46412   0.02413   0.00000  Uiso   1.00
C112   C     0.76490   0.03588   0.30920   0.00000  Uiso   1.00
C113   C     0.86273   0.16970   0.16596   0.00000  Uiso   1.00
C114   C     0.63726   0.33030   0.16753   0.00000  Uiso   1.00
C115   C     0.58030   0.38723   0.16773   0.00000  Uiso   1.00
C116   C     0.94008   0.30998   0.16663   0.00000  Uiso   1.00
C117   C     0.91970   0.11278   0.16545   0.00000  Uiso   1.00
C118   C     0.59287   0.12471   0.20135   0.00000  Uiso   1.00
C119   C     0.90706   0.37522   0.13192   0.00000  Uiso   1.00
C120   C     0.87502   0.34280   0.20142   0.00000  Uiso   1.00
C121   C     0.62505   0.15727   0.13198   0.00000  Uiso   1.00
C122   C     0.61274   0.41970   0.16580   0.00000  Uiso   1.00
C123   C     0.88727   0.08030   0.16738   0.00000  Uiso   1.00
C124   C     0.83030   0.13722   0.16788   0.00000  Uiso   1.00
C125   C     0.66970   0.36277   0.16560   0.00000  Uiso   1.00
C126   C     0.84294   0.37478   0.20142   0.00000  Uiso   1.00
C127   C     0.94012   0.19017   0.16659   0.00000  Uiso   1.00
C128   C     0.65713   0.12529   0.13199   0.00000  Uiso   1.00
C129   C     0.62495   0.09273   0.20135   0.00000  Uiso   1.00
C130   C     0.87498   0.40720   0.13191   0.00000  Uiso   1.00
C131   C     0.59299   0.34296   0.16727   0.00000  Uiso   1.00
C132   C     0.90700   0.15705   0.16606   0.00000  Uiso   1.00
C133   C     0.90691   0.34311   0.16662   0.00000  Uiso   1.00
C134   C     0.59309   0.15689   0.16671   0.00000  Uiso   1.00
C135   C     0.84300   0.09295   0.16727   0.00000  Uiso   1.00
C136   C     0.65701   0.40704   0.16606   0.00000  Uiso   1.00
C137   C     0.65691   0.09311   0.16662   0.00000  Uiso   1.00
C138   C     0.55987   0.30984   0.16674   0.00000  Uiso   1.00
C139   C     0.84309   0.40689   0.16671   0.00000  Uiso   1.00
C140   C     0.85049   0.21558   0.16132   0.00000  Uiso   1.00
C141   C     0.64948   0.28442   0.17231   0.00000  Uiso   1.00
C142   C     0.53445   0.39938   0.17266   0.00000  Uiso   1.00
C143   C     0.96554   0.10066   0.16038   0.00000  Uiso   1.00
C144   C     0.55883   0.12288   0.23612   0.00000  Uiso   1.00
C145   C     0.94102   0.37699   0.09706   0.00000  Uiso   1.00
C146   C     0.87377   0.30889   0.23654   0.00000  Uiso   1.00
C147   C     0.62636   0.19126   0.09695   0.00000  Uiso   1.00
C148   C     0.60052   0.46558   0.16102   0.00000  Uiso   1.00
C149   C     0.80992   0.44002   0.16671   0.00000  Uiso   1.00
C150   C     0.89951   0.03442   0.17202   0.00000  Uiso   1.00
C151   C     0.78446   0.14934   0.17295   0.00000  Uiso   1.00
C152   C     0.71555   0.35062   0.16067   0.00000  Uiso   1.00
C153   C     0.80898   0.37301   0.23627   0.00000  Uiso   1.00
C154   C     0.69117   0.12712   0.09722   0.00000  Uiso   1.00
C155   C     0.62364   0.05874   0.23638   0.00000  Uiso   1.00
C156   C     0.87623   0.44111   0.09680   0.00000  Uiso   1.00
C157   C     0.69008   0.05998   0.16663   0.00000  Uiso   1.00
C158   C     0.69013   0.44016   0.16659   0.00000  Uiso   1.00
C159   C     0.80988   0.05983   0.16674   0.00000  Uiso   1.00
C160   C     0.51501   0.28583   0.02378   0.00000  Uiso   1.00
H161   H     0.52717   0.31446   0.04167   0.00000  Uiso   1.00
H162   H     0.97284   0.18553   0.29166   0.00000  Uiso   1.00
H163   H     0.97326   0.18533   0.04231   0.00000  Uiso   1.00
H164   H     0.52674   0.31467   0.29103   0.00000  Uiso   1.00
H165   H     0.77716   0.06447   0.04167   0.00000  Uiso   1.00
H166   H     0.72283   0.43554   0.29166   0.00000  Uiso   1.00
H167   H     0.72326   0.43533   0.04231   0.00000  Uiso   1.00
H168   H     0.77674   0.06467   0.29103   0.00000  Uiso   1.00
N169   N     0.50000   0.25000   0.28573   0.00000  Uiso   1.00
N170   N     0.96792   0.37868   0.06933   0.00000  Uiso   1.00
N171   N     0.87271   0.28200   0.26444   0.00000  Uiso   1.00
N172   N     0.62748   0.21821   0.06911   0.00000  Uiso   1.00
N173   N     0.59033   0.00194   0.15658   0.00000  Uiso   1.00
N174   N     0.90972   0.49805   0.17636   0.00000  Uiso   1.00
N175   N     0.74813   0.15943   0.17763   0.00000  Uiso   1.00
N176   N     0.75189   0.34051   0.15611   0.00000  Uiso   1.00
N177   N     0.78208   0.37132   0.26400   0.00000  Uiso   1.00
N178   N     0.71813   0.12886   0.06955   0.00000  Uiso   1.00
N179   N     0.62252   0.03179   0.26422   0.00000  Uiso   1.00
N180   N     0.50000   0.25000   0.04760   0.00000  Uiso   1.00
N181   N     0.87729   0.46800   0.06889   0.00000  Uiso   1.00
N182   N     0.75000  -0.00000   0.28573   0.00000  Uiso   1.00
N183   N     0.75000  -0.00000   0.04760   0.00000  Uiso   1.00
N184   N     0.84028   0.25195   0.15698   0.00000  Uiso   1.00
N185   N     0.65967   0.24806   0.17676   0.00000  Uiso   1.00
N186   N     0.99811   0.40949   0.17723   0.00000  Uiso   1.00
N187   N     0.50187   0.09057   0.15571   0.00000  Uiso   1.00
N188   N     0.53187   0.12114   0.26378   0.00000  Uiso   1.00
O189   O     0.54581   0.20419   0.20487   0.00000  Uiso   1.00
O190   O     0.70420   0.04581   0.12846   0.00000  Uiso   1.00
O191   O     0.70420   0.04581   0.20487   0.00000  Uiso   1.00
O192   O     0.79581   0.45419   0.12846   0.00000  Uiso   1.00
O193   O     0.70420   0.45419   0.12846   0.00000  Uiso   1.00
O194   O     0.79581   0.04581   0.20487   0.00000  Uiso   1.00
O195   O     0.79581   0.04581   0.12846   0.00000  Uiso   1.00
O196   O     0.70420   0.45419   0.20487   0.00000  Uiso   1.00
O197   O     0.95420   0.29581   0.12846   0.00000  Uiso   1.00
O198   O     0.95420   0.29581   0.20487   0.00000  Uiso   1.00
O199   O     0.54581   0.20419   0.12846   0.00000  Uiso   1.00
O200   O     0.95420   0.20419   0.12846   0.00000  Uiso   1.00
O201   O     0.54581   0.29581   0.20487   0.00000  Uiso   1.00
O202   O     0.54581   0.29581   0.12846   0.00000  Uiso   1.00
O203   O     0.95420   0.20419   0.20487   0.00000  Uiso   1.00
O204   O     0.79581   0.45419   0.20487   0.00000  Uiso   1.00
Zn205  Zn    0.50000   0.25000   0.21771   0.00000  Uiso   1.00
Zn206  Zn    0.50000   0.25000   0.11563   0.00000  Uiso   1.00
Zn207  Zn    0.75000  -0.00000   0.21771   0.00000  Uiso   1.00
Zn208  Zn    0.75000  -0.00000   0.11563   0.00000  Uiso   1.00
C209   C     0.05992   0.69002   0.16671   0.00000  Uiso   1.00
C210   C     0.48499   0.71417   0.30956   0.00000  Uiso   1.00
C211   C     0.48510   0.71412   0.02413   0.00000  Uiso   1.00
C212   C     0.01490   0.78588   0.30920   0.00000  Uiso   1.00
C213   C     0.26501   0.53583   0.02378   0.00000  Uiso   1.00
C214   C     0.23499   0.96417   0.30956   0.00000  Uiso   1.00
C215   C     0.23510   0.96412   0.02413   0.00000  Uiso   1.00
C216   C     0.26490   0.53588   0.30920   0.00000  Uiso   1.00
C217   C     0.36273   0.66970   0.16596   0.00000  Uiso   1.00
C218   C     0.13726   0.83030   0.16753   0.00000  Uiso   1.00
C219   C     0.08030   0.88723   0.16773   0.00000  Uiso   1.00
C220   C     0.44008   0.80998   0.16663   0.00000  Uiso   1.00
C221   C     0.41970   0.61278   0.16545   0.00000  Uiso   1.00
C222   C     0.09287   0.62471   0.20135   0.00000  Uiso   1.00
C223   C     0.40706   0.87522   0.13192   0.00000  Uiso   1.00
C224   C     0.37502   0.84280   0.20142   0.00000  Uiso   1.00
C225   C     0.12505   0.65727   0.13198   0.00000  Uiso   1.00
C226   C     0.11274   0.91970   0.16580   0.00000  Uiso   1.00
C227   C     0.38727   0.58030   0.16738   0.00000  Uiso   1.00
C228   C     0.33030   0.63722   0.16788   0.00000  Uiso   1.00
C229   C     0.16970   0.86277   0.16560   0.00000  Uiso   1.00
C230   C     0.34294   0.87478   0.20142   0.00000  Uiso   1.00
C231   C     0.44012   0.69017   0.16659   0.00000  Uiso   1.00
C232   C     0.15713   0.62529   0.13199   0.00000  Uiso   1.00
C233   C     0.12495   0.59273   0.20135   0.00000  Uiso   1.00
C234   C     0.37498   0.90720   0.13191   0.00000  Uiso   1.00
C235   C     0.09299   0.84296   0.16727   0.00000  Uiso   1.00
C236   C     0.40700   0.65705   0.16606   0.00000  Uiso   1.00
C237   C     0.40691   0.84311   0.16662   0.00000  Uiso   1.00
C238   C     0.09309   0.65689   0.16671   0.00000  Uiso   1.00
C239   C     0.34300   0.59295   0.16727   0.00000  Uiso   1.00
C240   C     0.15701   0.90704   0.16606   0.00000  Uiso   1.00
C241   C     0.15691   0.59311   0.16662   0.00000  Uiso   1.00
C242   C     0.05987   0.80984   0.16674   0.00000  Uiso   1.00
C243   C     0.34309   0.90689   0.16671   0.00000  Uiso   1.00
C244   C     0.35049   0.71558   0.16132   0.00000  Uiso   1.00
C245   C     0.14948   0.78442   0.17231   0.00000  Uiso   1.00
C246   C     0.03445   0.89938   0.17266   0.00000  Uiso   1.00
C247   C     0.46554   0.60066   0.16038   0.00000  Uiso   1.00
C248   C     0.05883   0.62288   0.23612   0.00000  Uiso   1.00
C249   C     0.44102   0.87699   0.09706   0.00000  Uiso   1.00
C250   C     0.37377   0.80889   0.23654   0.00000  Uiso   1.00
C251   C     0.12636   0.69126   0.09695   0.00000  Uiso   1.00
C252   C     0.10052   0.96558   0.16102   0.00000  Uiso   1.00
C253   C     0.30992   0.94002   0.16671   0.00000  Uiso   1.00
C254   C     0.39951   0.53442   0.17202   0.00000  Uiso   1.00
C255   C     0.28446   0.64934   0.17295   0.00000  Uiso   1.00
C256   C     0.21555   0.85062   0.16067   0.00000  Uiso   1.00
C257   C     0.30898   0.87301   0.23627   0.00000  Uiso   1.00
C258   C     0.19117   0.62712   0.09722   0.00000  Uiso   1.00
C259   C     0.12364   0.55874   0.23638   0.00000  Uiso   1.00
C260   C     0.37623   0.94111   0.09680   0.00000  Uiso   1.00
C261   C     0.19008   0.55998   0.16663   0.00000  Uiso   1.00
C262   C     0.19013   0.94016   0.16659   0.00000  Uiso   1.00
C263   C     0.30988   0.55983   0.16674   0.00000  Uiso   1.00
C264   C     0.01501   0.78583   0.02378   0.00000  Uiso   1.00
H265   H     0.02717   0.81446   0.04167   0.00000  Uiso   1.00
H266   H     0.47284   0.68553   0.29166   0.00000  Uiso   1.00
H267   H     0.47326   0.68533   0.04231   0.00000  Uiso   1.00
H268   H     0.02674   0.81467   0.29103   0.00000  Uiso   1.00
H269   H     0.27716   0.56447   0.04167   0.00000  Uiso   1.00
H270   H     0.22283   0.93554   0.29166   0.00000  Uiso   1.00
H271   H     0.22326   0.93533   0.04231   0.00000  Uiso   1.00
H272   H     0.27674   0.56467   0.29103   0.00000  Uiso   1.00
N273   N     0.00000   0.75000   0.28573   0.00000  Uiso   1.00
N274   N     0.46792   0.87868   0.06933   0.00000  Uiso   1.00
N275   N     0.37271   0.78200   0.26444   0.00000  Uiso   1.00
N276   N     0.12748   0.71821   0.06911   0.00000  Uiso   1.00
N277   N     0.09033   0.50194   0.15658   0.00000  Uiso   1.00
N278   N     0.40972   0.99805   0.17636   0.00000  Uiso   1.00
N279   N     0.24813   0.65943   0.17763   0.00000  Uiso   1.00
N280   N     0.25189   0.84051   0.15611   0.00000  Uiso   1.00
N281   N     0.28208   0.87132   0.26400   0.00000  Uiso   1.00
N282   N     0.21813   0.62886   0.06955   0.00000  Uiso   1.00
N283   N     0.12252   0.53179   0.26422   0.00000  Uiso   1.00
N284   N     0.00000   0.75000   0.04760   0.00000  Uiso   1.00
N285   N     0.37729   0.96800   0.06889   0.00000  Uiso   1.00
N286   N     0.25000   0.50000   0.28573   0.00000  Uiso   1.00
N287   N     0.25000   0.50000   0.04760   0.00000  Uiso   1.00
N288   N     0.34028   0.75195   0.15698   0.00000  Uiso   1.00
N289   N     0.15967   0.74806   0.17676   0.00000  Uiso   1.00
N290   N     0.49811   0.90949   0.17723   0.00000  Uiso   1.00
N291   N     0.00187   0.59057   0.15571   0.00000  Uiso   1.00
N292   N     0.03187   0.62114   0.26378   0.00000  Uiso   1.00
O293   O     0.04581   0.70419   0.20487   0.00000  Uiso   1.00
O294   O     0.20420   0.54581   0.12846   0.00000  Uiso   1.00
O295   O     0.20420   0.54581   0.20487   0.00000  Uiso   1.00
O296   O     0.29581   0.95419   0.12846   0.00000  Uiso   1.00
O297   O     0.20420   0.95419   0.12846   0.00000  Uiso   1.00
O298   O     0.29581   0.54581   0.20487   0.00000  Uiso   1.00
O299   O     0.29581   0.54581   0.12846   0.00000  Uiso   1.00
O300   O     0.20420   0.95419   0.20487   0.00000  Uiso   1.00
O301   O     0.45420   0.79581   0.12846   0.00000  Uiso   1.00
O302   O     0.45420   0.79581   0.20487   0.00000  Uiso   1.00
O303   O     0.04581   0.70419   0.12846   0.00000  Uiso   1.00
O304   O     0.45420   0.70419   0.12846   0.00000  Uiso   1.00
O305   O     0.04581   0.79581   0.20487   0.00000  Uiso   1.00
O306   O     0.04581   0.79581   0.12846   0.00000  Uiso   1.00
O307   O     0.45420   0.70419   0.20487   0.00000  Uiso   1.00
O308   O     0.29581   0.95419   0.20487   0.00000  Uiso   1.00
Zn309  Zn    0.00000   0.75000   0.21771   0.00000  Uiso   1.00
Zn310  Zn    0.00000   0.75000   0.11563   0.00000  Uiso   1.00
Zn311  Zn    0.25000   0.50000   0.21771   0.00000  Uiso   1.00
Zn312  Zn    0.25000   0.50000   0.11563   0.00000  Uiso   1.00
C313   C     0.55992   0.69002   0.16671   0.00000  Uiso   1.00
C314   C     0.98499   0.71417   0.30956   0.00000  Uiso   1.00
C315   C     0.98510   0.71412   0.02413   0.00000  Uiso   1.00
C316   C     0.51490   0.78588   0.30920   0.00000  Uiso   1.00
C317   C     0.76501   0.53583   0.02378   0.00000  Uiso   1.00
C318   C     0.73499   0.96417   0.30956   0.00000  Uiso   1.00
C319   C     0.73510   0.96412   0.02413   0.00000  Uiso   1.00
C320   C     0.76490   0.53588   0.30920   0.00000  Uiso   1.00
C321   C     0.86273   0.66970   0.16596   0.00000  Uiso   1.00
C322   C     0.63726   0.83030   0.16753   0.00000  Uiso   1.00
C323   C     0.58030   0.88723   0.16773   0.00000  Uiso   1.00
C324   C     0.94008   0.80998   0.16663   0.00000  Uiso   1.00
C325   C     0.91970   0.61278   0.16545   0.00000  Uiso   1.00
C326   C     0.59287   0.62471   0.20135   0.00000  Uiso   1.00
C327   C     0.90706   0.87522   0.13192   0.00000  Uiso   1.00
C328   C     0.87502   0.84280   0.20142   0.00000  Uiso   1.00
C329   C     0.62505   0.65727   0.13198   0.00000  Uiso   1.00
C330   C     0.61274   0.91970   0.16580   0.00000  Uiso   1.00
C331   C     0.88727   0.58030   0.16738   0.00000  Uiso   1.00
C332   C     0.83030   0.63722   0.16788   0.00000  Uiso   1.00
C333   C     0.66970   0.86277   0.16560   0.00000  Uiso   1.00
C334   C     0.84294   0.87478   0.20142   0.00000  Uiso   1.00
C335   C     0.94012   0.69017   0.16659   0.00000  Uiso   1.00
C336   C     0.65713   0.62529   0.13199   0.00000  Uiso   1.00
C337   C     0.62495   0.59273   0.20135   0.00000  Uiso   1.00
C338   C     0.87498   0.90720   0.13191   0.00000  Uiso   1.00
C339   C     0.59299   0.84296   0.16727   0.00000  Uiso   1.00
C340   C     0.90700   0.65705   0.16606   0.00000  Uiso   1.00
C341   C     0.90691   0.84311   0.16662   0.00000  Uiso   1.00
C342   C     0.59309   0.65689   0.16671   0.00000  Uiso   1.00
C343   C     0.84300   0.59295   0.16727   0.00000  Uiso   1.00
C344   C     0.65701   0.90704   0.16606   0.00000  Uiso   1.00
C345   C     0.65691   0.59311   0.16662   0.00000  Uiso   1.00
C346   C     0.55987   0.80984   0.16674   0.00000  Uiso   1.00
C347   C     0.84309   0.90689   0.16671   0.00000  Uiso   1.00
C348   C     0.85049   0.71558   0.16132   0.00000  Uiso   1.00
C349   C     0.64948   0.78442   0.17231   0.00000  Uiso   1.00
C350   C     0.53445   0.89938   0.17266   0.00000  Uiso   1.00
C351   C     0.96554   0.60066   0.16038   0.00000  Uiso   1.00
C352   C     0.55883   0.62288   0.23612   0.00000  Uiso   1.00
C353   C     0.94102   0.87699   0.09706   0.00000  Uiso   1.00
C354   C     0.87377   0.80889   0.23654   0.00000  Uiso   1.00
C355   C     0.62636   0.69126   0.09695   0.00000  Uiso   1.00
C356   C     0.60052   0.96558   0.16102   0.00000  Uiso   1.00
C357   C     0.80992   0.94002   0.16671   0.00000  Uiso   1.00
C358   C     0.89951   0.53442   0.17202   0.00000  Uiso   1.00
C359   C     0.78446   0.64934   0.17295   0.00000  Uiso   1.00
C360   C     0.71555   0.85062   0.16067   0.00000  Uiso   1.00
C361   C     0.80898   0.87301   0.23627   0.00000  Uiso   1.00
C362   C     0.69117   0.62712   0.09722   0.00000  Uiso   1.00
C363   C     0.62364   0.55874   0.23638   0.00000  Uiso   1.00
C364   C     0.87623   0.94111   0.09680   0.00000  Uiso   1.00
C365   C     0.69008   0.55998   0.16663   0.00000  Uiso   1.00
C366   C     0.69013   0.94016   0.16659   0.00000  Uiso   1.00
C367   C     0.80988   0.55983   0.16674   0.00000  Uiso   1.00
C368   C     0.51501   0.78583   0.02378   0.00000  Uiso   1.00
H369   H     0.52717   0.81446   0.04167   0.00000  Uiso   1.00
H370   H     0.97284   0.68553   0.29166   0.00000  Uiso   1.00
H371   H     0.97326   0.68533   0.04231   0.00000  Uiso   1.00
H372   H     0.52674   0.81467   0.29103   0.00000  Uiso   1.00
H373   H     0.77716   0.56447   0.04167   0.00000  Uiso   1.00
H374   H     0.72283   0.93554   0.29166   0.00000  Uiso   1.00
H375   H     0.72326   0.93533   0.04231   0.00000  Uiso   1.00
H376   H     0.77674   0.56467   0.29103   0.00000  Uiso   1.00
N377   N     0.50000   0.75000   0.28573   0.00000  Uiso   1.00
N378   N     0.96792   0.87868   0.06933   0.00000  Uiso   1.00
N379   N     0.87271   0.78200   0.26444   0.00000  Uiso   1.00
N380   N     0.62748   0.71821   0.06911   0.00000  Uiso   1.00
N381   N     0.59033   0.50194   0.15658   0.00000  Uiso   1.00
N382   N     0.90972   0.99805   0.17636   0.00000  Uiso   1.00
N383   N     0.74813   0.65943   0.17763   0.00000  Uiso   1.00
N384   N     0.75189   0.84051   0.15611   0.00000  Uiso   1.00
N385   N     0.78208   0.87132   0.26400   0.00000  Uiso   1.00
N386   N     0.71813   0.62886   0.06955   0.00000  Uiso   1.00
N387   N     0.62252   0.53179   0.26422   0.00000  Uiso   1.00
N388   N     0.50000   0.75000   0.04760   0.00000  Uiso   1.00
N389   N     0.87729   0.96800   0.06889   0.00000  Uiso   1.00
N390   N     0.75000   0.50000   0.28573   0.00000  Uiso   1.00
N391   N     0.75000   0.50000   0.04760   0.00000  Uiso   1.00
N392   N     0.84028   0.75195   0.15698   0.00000  Uiso   1.00
N393   N     0.65967   0.74806   0.17676   0.00000  Uiso   1.00
N394   N     0.99811   0.90949   0.17723   0.00000  Uiso   1.00
N395   N     0.50187   0.59057   0.15571   0.00000  Uiso   1.00
N396   N     0.53187   0.62114   0.26378   0.00000  Uiso   1.00
O397   O     0.54581   0.70419   0.20487   0.00000  Uiso   1.00
O398   O     0.70420   0.54581   0.12846   0.00000  Uiso   1.00
O399   O     0.70420   0.54581   0.20487   0.00000  Uiso   1.00
O400   O     0.79581   0.95419   0.12846   0.00000  Uiso   1.00
O401   O     0.70420   0.95419   0.12846   0.00000  Uiso   1.00
O402   O     0.79581   0.54581   0.20487   0.00000  Uiso   1.00
O403   O     0.79581   0.54581   0.12846   0.00000  Uiso   1.00
O404   O     0.70420   0.95419   0.20487   0.00000  Uiso   1.00
O405   O     0.95420   0.79581   0.12846   0.00000  Uiso   1.00
O406   O     0.95420   0.79581   0.20487   0.00000  Uiso   1.00
O407   O     0.54581   0.70419   0.12846   0.00000  Uiso   1.00
O408   O     0.95420   0.70419   0.12846   0.00000  Uiso   1.00
O409   O     0.54581   0.79581   0.20487   0.00000  Uiso   1.00
O410   O     0.54581   0.79581   0.12846   0.00000  Uiso   1.00
O411   O     0.95420   0.70419   0.20487   0.00000  Uiso   1.00
O412   O     0.79581   0.95419   0.20487   0.00000  Uiso   1.00
Zn413  Zn    0.50000   0.75000   0.21771   0.00000  Uiso   1.00
Zn414  Zn    0.50000   0.75000   0.11563   0.00000  Uiso   1.00
Zn415  Zn    0.75000   0.50000   0.21771   0.00000  Uiso   1.00
Zn416  Zn    0.75000   0.50000   0.11563   0.00000  Uiso   1.00
C417   C     0.05992   0.19002   0.50004   0.00000  Uiso   1.00
C418   C     0.48499   0.21417   0.64289   0.00000  Uiso   1.00
C419   C     0.48510   0.21412   0.35746   0.00000  Uiso   1.00
C420   C     0.01490   0.28588   0.64254   0.00000  Uiso   1.00
C421   C     0.26501   0.03583   0.35711   0.00000  Uiso   1.00
C422   C     0.23499   0.46417   0.64289   0.00000  Uiso   1.00
C423   C     0.23510   0.46412   0.35746   0.00000  Uiso   1.00
C424   C     0.26490   0.03588   0.64254   0.00000  Uiso   1.00
C425   C     0.36273   0.16970   0.49929   0.00000  Uiso   1.00
C426   C     0.13726   0.33030   0.50086   0.00000  Uiso   1.00
C427   C     0.08030   0.38723   0.50107   0.00000  Uiso   1.00
C428   C     0.44008   0.30998   0.49996   0.00000  Uiso   1.00
C429   C     0.41970   0.11278   0.49878   0.00000  Uiso   1.00
C430   C     0.09287   0.12471   0.53468   0.00000  Uiso   1.00
C431   C     0.40706   0.37522   0.46525   0.00000  Uiso   1.00
C432   C     0.37502   0.34280   0.53475   0.00000  Uiso   1.00
C433   C     0.12505   0.15727   0.46532   0.00000  Uiso   1.00
C434   C     0.11274   0.41970   0.49914   0.00000  Uiso   1.00
C435   C     0.38727   0.08030   0.50071   0.00000  Uiso   1.00
C436   C     0.33030   0.13722   0.50122   0.00000  Uiso   1.00
C437   C     0.16970   0.36277   0.49893   0.00000  Uiso   1.00
C438   C     0.34294   0.37478   0.53475   0.00000  Uiso   1.00
C439   C     0.44012   0.19017   0.49992   0.00000  Uiso   1.00
C440   C     0.15713   0.12529   0.46532   0.00000  Uiso   1.00
C441   C     0.12495   0.09273   0.53468   0.00000  Uiso   1.00
C442   C     0.37498   0.40720   0.46525   0.00000  Uiso   1.00
C443   C     0.09299   0.34296   0.50060   0.00000  Uiso   1.00
C444   C     0.40700   0.15705   0.49940   0.00000  Uiso   1.00
C445   C     0.40691   0.34311   0.49995   0.00000  Uiso   1.00
C446   C     0.09309   0.15689   0.50005   0.00000  Uiso   1.00
C447   C     0.34300   0.09295   0.50060   0.00000  Uiso   1.00
C448   C     0.15701   0.40704   0.49940   0.00000  Uiso   1.00
C449   C     0.15691   0.09311   0.49995   0.00000  Uiso   1.00
C450   C     0.05987   0.30984   0.50008   0.00000  Uiso   1.00
C451   C     0.34309   0.40689   0.50005   0.00000  Uiso   1.00
C452   C     0.35049   0.21558   0.49465   0.00000  Uiso   1.00
C453   C     0.14948   0.28442   0.50564   0.00000  Uiso   1.00
C454   C     0.03445   0.39938   0.50600   0.00000  Uiso   1.00
C455   C     0.46554   0.10066   0.49371   0.00000  Uiso   1.00
C456   C     0.05883   0.12288   0.56945   0.00000  Uiso   1.00
C457   C     0.44102   0.37699   0.43040   0.00000  Uiso   1.00
C458   C     0.37377   0.30889   0.56987   0.00000  Uiso   1.00
C459   C     0.12636   0.19126   0.43028   0.00000  Uiso   1.00
C460   C     0.10052   0.46558   0.49436   0.00000  Uiso   1.00
C461   C     0.30992   0.44002   0.50004   0.00000  Uiso   1.00
C462   C     0.39951   0.03442   0.50535   0.00000  Uiso   1.00
C463   C     0.28446   0.14934   0.50629   0.00000  Uiso   1.00
C464   C     0.21555   0.35062   0.49400   0.00000  Uiso   1.00
C465   C     0.30898   0.37301   0.56960   0.00000  Uiso   1.00
C466   C     0.19117   0.12712   0.43055   0.00000  Uiso   1.00
C467   C     0.12364   0.05874   0.56972   0.00000  Uiso   1.00
C468   C     0.37623   0.44111   0.43013   0.00000  Uiso   1.00
C469   C     0.19008   0.05998   0.49996   0.00000  Uiso   1.00
C470   C     0.19013   0.44016   0.49992   0.00000  Uiso   1.00
C471   C     0.30988   0.05983   0.50008   0.00000  Uiso   1.00
C472   C     0.01501   0.28583   0.35711   0.00000  Uiso   1.00
H473   H     0.02717   0.31446   0.37501   0.00000  Uiso   1.00
H474   H     0.47284   0.18553   0.62499   0.00000  Uiso   1.00
H475   H     0.47326   0.18533   0.37564   0.00000  Uiso   1.00
H476   H     0.02674   0.31467   0.62436   0.00000  Uiso   1.00
H477   H     0.27716   0.06447   0.37501   0.00000  Uiso   1.00
H478   H     0.22283   0.43554   0.62499   0.00000  Uiso   1.00
H479   H     0.22326   0.43533   0.37564   0.00000  Uiso   1.00
H480   H     0.27674   0.06467   0.62436   0.00000  Uiso   1.00
N481   N     0.00000   0.25000   0.61907   0.00000  Uiso   1.00
N482   N     0.46792   0.37868   0.40266   0.00000  Uiso   1.00
N483   N     0.37271   0.28200   0.59777   0.00000  Uiso   1.00
N484   N     0.12748   0.21821   0.40245   0.00000  Uiso   1.00
N485   N     0.09033   0.00194   0.48991   0.00000  Uiso   1.00
N486   N     0.40972   0.49805   0.50969   0.00000  Uiso   1.00
N487   N     0.24813   0.15943   0.51096   0.00000  Uiso   1.00
N488   N     0.25189   0.34051   0.48944   0.00000  Uiso   1.00
N489   N     0.28208   0.37132   0.59734   0.00000  Uiso   1.00
N490   N     0.21813   0.12886   0.40288   0.00000  Uiso   1.00
N491   N     0.12252   0.03179   0.59756   0.00000  Uiso   1.00
N492   N     0.00000   0.25000   0.38093   0.00000  Uiso   1.00
N493   N     0.37729   0.46800   0.40223   0.00000  Uiso   1.00
N494   N     0.25000  -0.00000   0.61907   0.00000  Uiso   1.00
N495   N     0.25000  -0.00000   0.38093   0.00000  Uiso   1.00
N496   N     0.34028   0.25195   0.49031   0.00000  Uiso   1.00
N497   N     0.15967   0.24806   0.51009   0.00000  Uiso   1.00
N498   N     0.49811   0.40949   0.51056   0.00000  Uiso   1.00
N499   N     0.00187   0.09057   0.48904   0.00000  Uiso   1.00
N500   N     0.03187   0.12114   0.59712   0.00000  Uiso   1.00
O501   O     0.04581   0.20419   0.53821   0.00000  Uiso   1.00
O502   O     0.20420   0.04581   0.46179   0.00000  Uiso   1.00
O503   O     0.20420   0.04581   0.53821   0.00000  Uiso   1.00
O504   O     0.29581   0.45419   0.46179   0.00000  Uiso   1.00
O505   O     0.20420   0.45419   0.46179   0.00000  Uiso   1.00
O506   O     0.29581   0.04581   0.53821   0.00000  Uiso   1.00
O507   O     0.29581   0.04581   0.46179   0.00000  Uiso   1.00
O508   O     0.20420   0.45419   0.53821   0.00000  Uiso   1.00
O509   O     0.45420   0.29581   0.46179   0.00000  Uiso   1.00
O510   O     0.45420   0.29581   0.53821   0.00000  Uiso   1.00
O511   O     0.04581   0.20419   0.46179   0.00000  Uiso   1.00
O512   O     0.45420   0.20419   0.46179   0.00000  Uiso   1.00
O513   O     0.04581   0.29581   0.53821   0.00000  Uiso   1.00
O514   O     0.04581   0.29581   0.46179   0.00000  Uiso   1.00
O515   O     0.45420   0.20419   0.53821   0.00000  Uiso   1.00
O516   O     0.29581   0.45419   0.53821   0.00000  Uiso   1.00
Zn517  Zn    0.00000   0.25000   0.55104   0.00000  Uiso   1.00
Zn518  Zn    0.00000   0.25000   0.44896   0.00000  Uiso   1.00
Zn519  Zn    0.25000  -0.00000   0.55104   0.00000  Uiso   1.00
Zn520  Zn    0.25000  -0.00000   0.44896   0.00000  Uiso   1.00
C521   C     0.55992   0.19002   0.50004   0.00000  Uiso   1.00
C522   C     0.98499   0.21417   0.64289   0.00000  Uiso   1.00
C523   C     0.98510   0.21412   0.35746   0.00000  Uiso   1.00
C524   C     0.51490   0.28588   0.64254   0.00000  Uiso   1.00
C525   C     0.76501   0.03583   0.35711   0.00000  Uiso   1.00
C526   C     0.73499   0.46417   0.64289   0.00000  Uiso   1.00
C527   C     0.73510   0.46412   0.35746   0.00000  Uiso   1.00
C528   C     0.76490   0.03588   0.64254   0.00000  Uiso   1.00
C529   C     0.86273   0.16970   0.49929   0.00000  Uiso   1.00
C530   C     0.63726   0.33030   0.50086   0.00000  Uiso   1.00
C531   C     0.58030   0.38723   0.50107   0.00000  Uiso   1.00
C532   C     0.94008   0.30998   0.49996   0.00000  Uiso   1.00
C533   C     0.91970   0.11278   0.49878   0.00000  Uiso   1.00
C534   C     0.59287   0.12471   0.53468   0.00000  Uiso   1.00
C535   C     0.90706   0.37522   0.46525   0.00000  Uiso   1.00
C536   C     0.87502   0.34280   0.53475   0.00000  Uiso   1.00
C537   C     0.62505   0.15727   0.46532   0.00000  Uiso   1.00
C538   C     0.61274   0.41970   0.49914   0.00000  Uiso   1.00
C539   C     0.88727   0.08030   0.50071   0.00000  Uiso   1.00
C540   C     0.83030   0.13722   0.50122   0.00000  Uiso   1.00
C541   C     0.66970   0.36277   0.49893   0.00000  Uiso   1.00
C542   C     0.84294   0.37478   0.53475   0.00000  Uiso   1.00
C543   C     0.94012   0.19017   0.49992   0.00000  Uiso   1.00
C544   C     0.65713   0.12529   0.46532   0.00000  Uiso   1.00
C545   C     0.62495   0.09273   0.53468   0.00000  Uiso   1.00
C546   C     0.87498   0.40720   0.46525   0.00000  Uiso   1.00
C547   C     0.59299   0.34296   0.50060   0.00000  Uiso   1.00
C548   C     0.90700   0.15705   0.49940   0.00000  Uiso   1.00
C549   C     0.90691   0.34311   0.49995   0.00000  Uiso   1.00
C550   C     0.59309   0.15689   0.50005   0.00000  Uiso   1.00
C551   C     0.84300   0.09295   0.50060   0.00000  Uiso   1.00
C552   C     0.65701   0.40704   0.49940   0.00000  Uiso   1.00
C553   C     0.65691   0.09311   0.49995   0.00000  Uiso   1.00
C554   C     0.55987   0.30984   0.50008   0.00000  Uiso   1.00
C555   C     0.84309   0.40689   0.50005   0.00000  Uiso   1.00
C556   C     0.85049   0.21558   0.49465   0.00000  Uiso   1.00
C557   C     0.64948   0.28442   0.50564   0.00000  Uiso   1.00
C558   C     0.53445   0.39938   0.50600   0.00000  Uiso   1.00
C559   C     0.96554   0.10066   0.49371   0.00000  Uiso   1.00
C560   C     0.55883   0.12288   0.56945   0.00000  Uiso   1.00
C561   C     0.94102   0.37699   0.43040   0.00000  Uiso   1.00
C562   C     0.87377   0.30889   0.56987   0.00000  Uiso   1.00
C563   C     0.62636   0.19126   0.43028   0.00000  Uiso   1.00
C564   C     0.60052   0.46558   0.49436   0.00000  Uiso   1.00
C565   C     0.80992   0.44002   0.50004   0.00000  Uiso   1.00
C566   C     0.89951   0.03442   0.50535   0.00000  Uiso   1.00
C567   C     0.78446   0.14934   0.50629   0.00000  Uiso   1.00
C568   C     0.71555   0.35062   0.49400   0.00000  Uiso   1.00
C569   C     0.80898   0.37301   0.56960   0.00000  Uiso   1.00
C570   C     0.69117   0.12712   0.43055   0.00000  Uiso   1.00
C571   C     0.62364   0.05874   0.56972   0.00000  Uiso   1.00
C572   C     0.87623   0.44111   0.43013   0.00000  Uiso   1.00
C573   C     0.69008   0.05998   0.49996   0.00000  Uiso   1.00
C574   C     0.69013   0.44016   0.49992   0.00000  Uiso   1.00
C575   C     0.80988   0.05983   0.50008   0.00000  Uiso   1.00
C576   C     0.51501   0.28583   0.35711   0.00000  Uiso   1.00
H577   H     0.52717   0.31446   0.37501   0.00000  Uiso   1.00
H578   H     0.97284   0.18553   0.62499   0.00000  Uiso   1.00
H579   H     0.97326   0.18533   0.37564   0.00000  Uiso   1.00
H580   H     0.52674   0.31467   0.62436   0.00000  Uiso   1.00
H581   H     0.77716   0.06447   0.37501   0.00000  Uiso   1.00
H582   H     0.72283   0.43554   0.62499   0.00000  Uiso   1.00
H583   H     0.72326   0.43533   0.37564   0.00000  Uiso   1.00
H584   H     0.77674   0.06467   0.62436   0.00000  Uiso   1.00
N585   N     0.50000   0.25000   0.61907   0.00000  Uiso   1.00
N586   N     0.96792   0.37868   0.40266   0.00000  Uiso   1.00
N587   N     0.87271   0.28200   0.59777   0.00000  Uiso   1.00
N588   N     0.62748   0.21821   0.40245   0.00000  Uiso   1.00
N589   N     0.59033   0.00194   0.48991   0.00000  Uiso   1.00
N590   N     0.90972   0.49805   0.50969   0.00000  Uiso   1.00
N591   N     0.74813   0.15943   0.51096   0.00000  Uiso   1.00
N592   N     0.75189   0.34051   0.48944   0.00000  Uiso   1.00
N593   N     0.78208   0.37132   0.59734   0.00000  Uiso   1.00
N594   N     0.71813   0.12886   0.40288   0.00000  Uiso   1.00
N595   N     0.62252   0.03179   0.59756   0.00000  Uiso   1.00
N596   N     0.50000   0.25000   0.38093   0.00000  Uiso   1.00
N597   N     0.87729   0.46800   0.40223   0.00000  Uiso   1.00
N598   N     0.75000  -0.00000   0.61907   0.00000  Uiso   1.00
N599   N     0.75000  -0.00000   0.38093   0.00000  Uiso   1.00
N600   N     0.84028   0.25195   0.49031   0.00000  Uiso   1.00
N601   N     0.65967   0.24806   0.51009   0.00000  Uiso   1.00
N602   N     0.99811   0.40949   0.51056   0.00000  Uiso   1.00
N603   N     0.50187   0.09057   0.48904   0.00000  Uiso   1.00
N604   N     0.53187   0.12114   0.59712   0.00000  Uiso   1.00
O605   O     0.54581   0.20419   0.53821   0.00000  Uiso   1.00
O606   O     0.70420   0.04581   0.46179   0.00000  Uiso   1.00
O607   O     0.70420   0.04581   0.53821   0.00000  Uiso   1.00
O608   O     0.79581   0.45419   0.46179   0.00000  Uiso   1.00
O609   O     0.70420   0.45419   0.46179   0.00000  Uiso   1.00
O610   O     0.79581   0.04581   0.53821   0.00000  Uiso   1.00
O611   O     0.79581   0.04581   0.46179   0.00000  Uiso   1.00
O612   O     0.70420   0.45419   0.53821   0.00000  Uiso   1.00
O613   O     0.95420   0.29581   0.46179   0.00000  Uiso   1.00
O614   O     0.95420   0.29581   0.53821   0.00000  Uiso   1.00
O615   O     0.54581   0.20419   0.46179   0.00000  Uiso   1.00
O616   O     0.95420   0.20419   0.46179   0.00000  Uiso   1.00
O617   O     0.54581   0.29581   0.53821   0.00000  Uiso   1.00
O618   O     0.54581   0.29581   0.46179   0.00000  Uiso   1.00
O619   O     0.95420   0.20419   0.53821   0.00000  Uiso   1.00
O620   O     0.79581   0.45419   0.53821   0.00000  Uiso   1.00
Zn621  Zn    0.50000   0.25000   0.55104   0.00000  Uiso   1.00
Zn622  Zn    0.50000   0.25000   0.44896   0.00000  Uiso   1.00
Zn623  Zn    0.75000  -0.00000   0.55104   0.00000  Uiso   1.00
Zn624  Zn    0.75000  -0.00000   0.44896   0.00000  Uiso   1.00
C625   C     0.05992   0.69002   0.50004   0.00000  Uiso   1.00
C626   C     0.48499   0.71417   0.64289   0.00000  Uiso   1.00
C627   C     0.48510   0.71412   0.35746   0.00000  Uiso   1.00
C628   C     0.01490   0.78588   0.64254   0.00000  Uiso   1.00
C629   C     0.26501   0.53583   0.35711   0.00000  Uiso   1.00
C630   C     0.23499   0.96417   0.64289   0.00000  Uiso   1.00
C631   C     0.23510   0.96412   0.35746   0.00000  Uiso   1.00
C632   C     0.26490   0.53588   0.64254   0.00000  Uiso   1.00
C633   C     0.36273   0.66970   0.49929   0.00000  Uiso   1.00
C634   C     0.13726   0.83030   0.50086   0.00000  Uiso   1.00
C635   C     0.08030   0.88723   0.50107   0.00000  Uiso   1.00
C636   C     0.44008   0.80998   0.49996   0.00000  Uiso   1.00
C637   C     0.41970   0.61278   0.49878   0.00000  Uiso   1.00
C638   C     0.09287   0.62471   0.53468   0.00000  Uiso   1.00
C639   C     0.40706   0.87522   0.46525   0.00000  Uiso   1.00
C640   C     0.37502   0.84280   0.53475   0.00000  Uiso   1.00
C641   C     0.12505   0.65727   0.46532   0.00000  Uiso   1.00
C642   C     0.11274   0.91970   0.49914   0.00000  Uiso   1.00
C643   C     0.38727   0.58030   0.50071   0.00000  Uiso   1.00
C644   C     0.33030   0.63722   0.50122   0.00000  Uiso   1.00
C645   C     0.16970   0.86277   0.49893   0.00000  Uiso   1.00
C646   C     0.34294   0.87478   0.53475   0.00000  Uiso   1.00
C647   C     0.44012   0.69017   0.49992   0.00000  Uiso   1.00
C648   C     0.15713   0.62529   0.46532   0.00000  Uiso   1.00
C649   C     0.12495   0.59273   0.53468   0.00000  Uiso   1.00
C650   C     0.37498   0.90720   0.46525   0.00000  Uiso   1.00
C651   C     0.09299   0.84296   0.50060   0.00000  Uiso   1.00
C652   C     0.40700   0.65705   0.49940   0.00000  Uiso   1.00
C653   C     0.40691   0.84311   0.49995   0.00000  Uiso   1.00
C654   C     0.09309   0.65689   0.50005   0.00000  Uiso   1.00
C655   C     0.34300   0.59295   0.50060   0.00000  Uiso   1.00
C656   C     0.15701   0.90704   0.49940   0.00000  Uiso   1.00
C657   C     0.15691   0.59311   0.49995   0.00000  Uiso   1.00
C658   C     0.05987   0.80984   0.50008   0.00000  Uiso   1.00
C659   C     0.34309   0.90689   0.50005   0.00000  Uiso   1.00
C660   C     0.35049   0.71558   0.49465   0.00000  Uiso   1.00
C661   C     0.14948   0.78442   0.50564   0.00000  Uiso   1.00
C662   C     0.03445   0.89938   0.50600   0.00000  Uiso   1.00
C663   C     0.46554   0.60066   0.49371   0.00000  Uiso   1.00
C664   C     0.05883   0.62288   0.56945   0.00000  Uiso   1.00
C665   C     0.44102   0.87699   0.43040   0.00000  Uiso   1.00
C666   C     0.37377   0.80889   0.56987   0.00000  Uiso   1.00
C667   C     0.12636   0.69126   0.43028   0.00000  Uiso   1.00
C668   C     0.10052   0.96558   0.49436   0.00000  Uiso   1.00
C669   C     0.30992   0.94002   0.50004   0.00000  Uiso   1.00
C670   C     0.39951   0.53442   0.50535   0.00000  Uiso   1.00
C671   C     0.28446   0.64934   0.50629   0.00000  Uiso   1.00
C672   C     0.21555   0.85062   0.49400   0.00000  Uiso   1.00
C673   C     0.30898   0.87301   0.56960   0.00000  Uiso   1.00
C674   C     0.19117   0.62712   0.43055   0.00000  Uiso   1.00
C675   C     0.12364   0.55874   0.56972   0.00000  Uiso   1.00
C676   C     0.37623   0.94111   0.43013   0.00000  Uiso   1.00
C677   C     0.19008   0.55998   0.49996   0.00000  Uiso   1.00
C678   C     0.19013   0.94016   0.49992   0.00000  Uiso   1.00
C679   C     0.30988   0.55983   0.50008   0.00000  Uiso   1.00
C680   C     0.01501   0.78583   0.35711   0.00000  Uiso   1.00
H681   H     0.02717   0.81446   0.37501   0.00000  Uiso   1.00
H682   H     0.47284   0.68553   0.62499   0.00000  Uiso   1.00
H683   H     0.47326   0.68533   0.37564   0.00000  Uiso   1.00
H684   H     0.02674   0.81467   0.62436   0.00000  Uiso   1.00
H685   H     0.27716   0.56447   0.37501   0.00000  Uiso   1.00
H686   H     0.22283   0.93554   0.62499   0.00000  Uiso   1.00
H687   H     0.22326   0.93533   0.37564   0.00000  Uiso   1.00
H688   H     0.27674   0.56467   0.62436   0.00000  Uiso   1.00
N689   N     0.00000   0.75000   0.61907   0.00000  Uiso   1.00
N690   N     0.46792   0.87868   0.40266   0.00000  Uiso   1.00
N691   N     0.37271   0.78200   0.59777   0.00000  Uiso   1.00
N692   N     0.12748   0.71821   0.40245   0.00000  Uiso   1.00
N693   N     0.09033   0.50194   0.48991   0.00000  Uiso   1.00
N694   N     0.40972   0.99805   0.50969   0.00000  Uiso   1.00
N695   N     0.24813   0.65943   0.51096   0.00000  Uiso   1.00
N696   N     0.25189   0.84051   0.48944   0.00000  Uiso   1.00
N697   N     0.28208   0.87132   0.59734   0.00000  Uiso   1.00
N698   N     0.21813   0.62886   0.40288   0.00000  Uiso   1.00
N699   N     0.12252   0.53179   0.59756   0.00000  Uiso   1.00
N700   N     0.00000   0.75000   0.38093   0.00000  Uiso   1.00
N701   N     0.37729   0.96800   0.40223   0.00000  Uiso   1.00
N702   N     0.25000   0.50000   0.61907   0.00000  Uiso   1.00
N703   N     0.25000   0.50000   0.38093   0.00000  Uiso   1.00
N704   N     0.34028   0.75195   0.49031   0.00000  Uiso   1.00
N705   N     0.15967   0.74806   0.51009   0.00000  Uiso   1.00
N706   N     0.49811   0.90949   0.51056   0.00000  Uiso   1.00
N707   N     0.00187   0.59057   0.48904   0.00000  Uiso   1.00
N708   N     0.03187   0.62114   0.59712   0.00000  Uiso   1.00
O709   O     0.04581   0.70419   0.53821   0.00000  Uiso   1.00
O710   O     0.20420   0.54581   0.46179   0.00000  Uiso   1.00
O711   O     0.20420   0.54581   0.53821   0.00000  Uiso   1.00
O712   O     0.29581   0.95419   0.46179   0.00000  Uiso   1.00
O713   O     0.20420   0.95419   0.46179   0.00000  Uiso   1.00
O714   O     0.29581   0.54581   0.53821   0.00000  Uiso   1.00
O715   O     0.29581   0.54581   0.46179   0.00000  Uiso   1.00
O716   O     0.20420   0.95419   0.53821   0.00000  Uiso   1.00
O717   O     0.45420   0.79581   0.46179   0.00000  Uiso   1.00
O718   O     0.45420   0.79581   0.53821   0.00000  Uiso   1.00
O719   O     0.04581   0.70419   0.46179   0.00000  Uiso   1.00
O720   O     0.45420   0.70419   0.46179   0.00000  Uiso   1.00
O721   O     0.04581   0.79581   0.53821   0.00000  Uiso   1.00
O722   O     0.04581   0.79581   0.46179   0.00000  Uiso   1.00
O723   O     0.45420   0.70419   0.53821   0.00000  Uiso   1.00
O724   O     0.29581   0.95419   0.53821   0.00000  Uiso   1.00
Zn725  Zn    0.00000   0.75000   0.55104   0.00000  Uiso   1.00
Zn726  Zn    0.00000   0.75000   0.44896   0.00000  Uiso   1.00
Zn727  Zn    0.25000   0.50000   0.55104   0.00000  Uiso   1.00
Zn728  Zn    0.25000   0.50000   0.44896   0.00000  Uiso   1.00
C729   C     0.55992   0.69002   0.50004   0.00000  Uiso   1.00
C730   C     0.98499   0.71417   0.64289   0.00000  Uiso   1.00
C731   C     0.98510   0.71412   0.35746   0.00000  Uiso   1.00
C732   C     0.51490   0.78588   0.64254   0.00000  Uiso   1.00
C733   C     0.76501   0.53583   0.35711   0.00000  Uiso   1.00
C734   C     0.73499   0.96417   0.64289   0.00000  Uiso   1.00
C735   C     0.73510   0.96412   0.35746   0.00000  Uiso   1.00
C736   C     0.76490   0.53588   0.64254   0.00000  Uiso   1.00
C737   C     0.86273   0.66970   0.49929   0.00000  Uiso   1.00
C738   C     0.63726   0.83030   0.50086   0.00000  Uiso   1.00
C739   C     0.58030   0.88723   0.50107   0.00000  Uiso   1.00
C740   C     0.94008   0.80998   0.49996   0.00000  Uiso   1.00
C741   C     0.91970   0.61278   0.49878   0.00000  Uiso   1.00
C742   C     0.59287   0.62471   0.53468   0.00000  Uiso   1.00
C743   C     0.90706   0.87522   0.46525   0.00000  Uiso   1.00
C744   C     0.87502   0.84280   0.53475   0.00000  Uiso   1.00
C745   C     0.62505   0.65727   0.46532   0.00000  Uiso   1.00
C746   C     0.61274   0.91970   0.49914   0.00000  Uiso   1.00
C747   C     0.88727   0.58030   0.50071   0.00000  Uiso   1.00
C748   C     0.83030   0.63722   0.50122   0.00000  Uiso   1.00
C749   C     0.66970   0.86277   0.49893   0.00000  Uiso   1.00
C750   C     0.84294   0.87478   0.53475   0.00000  Uiso   1.00
C751   C     0.94012   0.69017   0.49992   0.00000  Uiso   1.00
C752   C     0.65713   0.62529   0.46532   0.00000  Uiso   1.00
C753   C     0.62495   0.59273   0.53468   0.00000  Uiso   1.00
C754   C     0.87498   0.90720   0.46525   0.00000  Uiso   1.00
C755   C     0.59299   0.84296   0.50060   0.00000  Uiso   1.00
C756   C     0.90700   0.65705   0.49940   0.00000  Uiso   1.00
C757   C     0.90691   0.84311   0.49995   0.00000  Uiso   1.00
C758   C     0.59309   0.65689   0.50005   0.00000  Uiso   1.00
C759   C     0.84300   0.59295   0.50060   0.00000  Uiso   1.00
C760   C     0.65701   0.90704   0.49940   0.00000  Uiso   1.00
C761   C     0.65691   0.59311   0.49995   0.00000  Uiso   1.00
C762   C     0.55987   0.80984   0.50008   0.00000  Uiso   1.00
C763   C     0.84309   0.90689   0.50005   0.00000  Uiso   1.00
C764   C     0.85049   0.71558   0.49465   0.00000  Uiso   1.00
C765   C     0.64948   0.78442   0.50564   0.00000  Uiso   1.00
C766   C     0.53445   0.89938   0.50600   0.00000  Uiso   1.00
C767   C     0.96554   0.60066   0.49371   0.00000  Uiso   1.00
C768   C     0.55883   0.62288   0.56945   0.00000  Uiso   1.00
C769   C     0.94102   0.87699   0.43040   0.00000  Uiso   1.00
C770   C     0.87377   0.80889   0.56987   0.00000  Uiso   1.00
C771   C     0.62636   0.69126   0.43028   0.00000  Uiso   1.00
C772   C     0.60052   0.96558   0.49436   0.00000  Uiso   1.00
C773   C     0.80992   0.94002   0.50004   0.00000  Uiso   1.00
C774   C     0.89951   0.53442   0.50535   0.00000  Uiso   1.00
C775   C     0.78446   0.64934   0.50629   0.00000  Uiso   1.00
C776   C     0.71555   0.85062   0.49400   0.00000  Uiso   1.00
C777   C     0.80898   0.87301   0.56960   0.00000  Uiso   1.00
C778   C     0.69117   0.62712   0.43055   0.00000  Uiso   1.00
C779   C     0.62364   0.55874   0.56972   0.00000  Uiso   1.00
C780   C     0.87623   0.94111   0.43013   0.00000  Uiso   1.00
C781   C     0.69008   0.55998   0.49996   0.00000  Uiso   1.00
C782   C     0.69013   0.94016   0.49992   0.00000  Uiso   1.00
C783   C     0.80988   0.55983   0.50008   0.00000  Uiso   1.00
C784   C     0.51501   0.78583   0.35711   0.00000  Uiso   1.00
H785   H     0.52717   0.81446   0.37501   0.00000  Uiso   1.00
H786   H     0.97284   0.68553   0.62499   0.00000  Uiso   1.00
H787   H     0.97326   0.68533   0.37564   0.00000  Uiso   1.00
H788   H     0.52674   0.81467   0.62436   0.00000  Uiso   1.00
H789   H     0.77716   0.56447   0.37501   0.00000  Uiso   1.00
H790   H     0.72283   0.93554   0.62499   0.00000  Uiso   1.00
H791   H     0.72326   0.93533   0.37564   0.00000  Uiso   1.00
H792   H     0.77674   0.56467   0.62436   0.00000  Uiso   1.00
N793   N     0.50000   0.75000   0.61907   0.00000  Uiso   1.00
N794   N     0.96792   0.87868   0.40266   0.00000  Uiso   1.00
N795   N     0.87271   0.78200   0.59777   0.00000  Uiso   1.00
N796   N     0.62748   0.71821   0.40245   0.00000  Uiso   1.00
N797   N     0.59033   0.50194   0.48991   0.00000  Uiso   1.00
N798   N     0.90972   0.99805   0.50969   0.00000  Uiso   1.00
N799   N     0.74813   0.65943   0.51096   0.00000  Uiso   1.00
N800   N     0.75189   0.84051   0.48944   0.00000  Uiso   1.00
N801   N     0.78208   0.87132   0.59734   0.00000  Uiso   1.00
N802   N     0.71813   0.62886   0.40288   0.00000  Uiso   1.00
N803   N     0.62252   0.53179   0.59756   0.00000  Uiso   1.00
N804   N     0.50000   0.75000   0.38093   0.00000  Uiso   1.00
N805   N     0.87729   0.96800   0.40223   0.00000  Uiso   1.00
N806   N     0.75000   0.50000   0.61907   0.00000  Uiso   1.00
N807   N     0.75000   0.50000   0.38093   0.00000  Uiso   1.00
N808   N     0.84028   0.75195   0.49031   0.00000  Uiso   1.00
N809   N     0.65967   0.74806   0.51009   0.00000  Uiso   1.00
N810   N     0.99811   0.90949   0.51056   0.00000  Uiso   1.00
N811   N     0.50187   0.59057   0.48904   0.00000  Uiso   1.00
N812   N     0.53187   0.62114   0.59712   0.00000  Uiso   1.00
O813   O     0.54581   0.70419   0.53821   0.00000  Uiso   1.00
O814   O     0.70420   0.54581   0.46179   0.00000  Uiso   1.00
O815   O     0.70420   0.54581   0.53821   0.00000  Uiso   1.00
O816   O     0.79581   0.95419   0.46179   0.00000  Uiso   1.00
O817   O     0.70420   0.95419   0.46179   0.00000  Uiso   1.00
O818   O     0.79581   0.54581   0.53821   0.00000  Uiso   1.00
O819   O     0.79581   0.54581   0.46179   0.00000  Uiso   1.00
O820   O     0.70420   0.95419   0.53821   0.00000  Uiso   1.00
O821   O     0.95420   0.79581   0.46179   0.00000  Uiso   1.00
O822   O     0.95420   0.79581   0.53821   0.00000  Uiso   1.00
O823   O     0.54581   0.70419   0.46179   0.00000  Uiso   1.00
O824   O     0.95420   0.70419   0.46179   0.00000  Uiso   1.00
O825   O     0.54581   0.79581   0.53821   0.00000  Uiso   1.00
O826   O     0.54581   0.79581   0.46179   0.00000  Uiso   1.00
O827   O     0.95420   0.70419   0.53821   0.00000  Uiso   1.00
O828   O     0.79581   0.95419   0.53821   0.00000  Uiso   1.00
Zn829  Zn    0.50000   0.75000   0.55104   0.00000  Uiso   1.00
Zn830  Zn    0.50000   0.75000   0.44896   0.00000  Uiso   1.00
Zn831  Zn    0.75000   0.50000   0.55104   0.00000  Uiso   1.00
Zn832  Zn    0.75000   0.50000   0.44896   0.00000  Uiso   1.00
C833   C     0.05992   0.19002   0.83337   0.00000  Uiso   1.00
C834   C     0.48499   0.21417   0.97622   0.00000  Uiso   1.00
C835   C     0.48510   0.21412   0.69080   0.00000  Uiso   1.00
C836   C     0.01490   0.28588   0.97587   0.00000  Uiso   1.00
C837   C     0.26501   0.03583   0.69044   0.00000  Uiso   1.00
C838   C     0.23499   0.46417   0.97622   0.00000  Uiso   1.00
C839   C     0.23510   0.46412   0.69080   0.00000  Uiso   1.00
C840   C     0.26490   0.03588   0.97587   0.00000  Uiso   1.00
C841   C     0.36273   0.16970   0.83262   0.00000  Uiso   1.00
C842   C     0.13726   0.33030   0.83420   0.00000  Uiso   1.00
C843   C     0.08030   0.38723   0.83440   0.00000  Uiso   1.00
C844   C     0.44008   0.30998   0.83329   0.00000  Uiso   1.00
C845   C     0.41970   0.11278   0.83212   0.00000  Uiso   1.00
C846   C     0.09287   0.12471   0.86801   0.00000  Uiso   1.00
C847   C     0.40706   0.37522   0.79858   0.00000  Uiso   1.00
C848   C     0.37502   0.34280   0.86809   0.00000  Uiso   1.00
C849   C     0.12505   0.15727   0.79865   0.00000  Uiso   1.00
C850   C     0.11274   0.41970   0.83247   0.00000  Uiso   1.00
C851   C     0.38727   0.08030   0.83404   0.00000  Uiso   1.00
C852   C     0.33030   0.13722   0.83455   0.00000  Uiso   1.00
C853   C     0.16970   0.36277   0.83227   0.00000  Uiso   1.00
C854   C     0.34294   0.37478   0.86808   0.00000  Uiso   1.00
C855   C     0.44012   0.19017   0.83326   0.00000  Uiso   1.00
C856   C     0.15713   0.12529   0.79865   0.00000  Uiso   1.00
C857   C     0.12495   0.09273   0.86802   0.00000  Uiso   1.00
C858   C     0.37498   0.40720   0.79858   0.00000  Uiso   1.00
C859   C     0.09299   0.34296   0.83394   0.00000  Uiso   1.00
C860   C     0.40700   0.15705   0.83273   0.00000  Uiso   1.00
C861   C     0.40691   0.34311   0.83329   0.00000  Uiso   1.00
C862   C     0.09309   0.15689   0.83338   0.00000  Uiso   1.00
C863   C     0.34300   0.09295   0.83394   0.00000  Uiso   1.00
C864   C     0.15701   0.40704   0.83273   0.00000  Uiso   1.00
C865   C     0.15691   0.09311   0.83329   0.00000  Uiso   1.00
C866   C     0.05987   0.30984   0.83341   0.00000  Uiso   1.00
C867   C     0.34309   0.40689   0.83338   0.00000  Uiso   1.00
C868   C     0.35049   0.21558   0.82798   0.00000  Uiso   1.00
C869   C     0.14948   0.28442   0.83898   0.00000  Uiso   1.00
C870   C     0.03445   0.39938   0.83933   0.00000  Uiso   1.00
C871   C     0.46554   0.10066   0.82705   0.00000  Uiso   1.00
C872   C     0.05883   0.12288   0.90278   0.00000  Uiso   1.00
C873   C     0.44102   0.37699   0.76373   0.00000  Uiso   1.00
C874   C     0.37377   0.30889   0.90320   0.00000  Uiso   1.00
C875   C     0.12636   0.19126   0.76362   0.00000  Uiso   1.00
C876   C     0.10052   0.46558   0.82769   0.00000  Uiso   1.00
C877   C     0.30992   0.44002   0.83337   0.00000  Uiso   1.00
C878   C     0.39951   0.03442   0.83868   0.00000  Uiso   1.00
C879   C     0.28446   0.14934   0.83962   0.00000  Uiso   1.00
C880   C     0.21555   0.35062   0.82734   0.00000  Uiso   1.00
C881   C     0.30898   0.37301   0.90294   0.00000  Uiso   1.00
C882   C     0.19117   0.12712   0.76388   0.00000  Uiso   1.00
C883   C     0.12364   0.05874   0.90305   0.00000  Uiso   1.00
C884   C     0.37623   0.44111   0.76346   0.00000  Uiso   1.00
C885   C     0.19008   0.05998   0.83329   0.00000  Uiso   1.00
C886   C     0.19013   0.44016   0.83326   0.00000  Uiso   1.00
C887   C     0.30988   0.05983   0.83341   0.00000  Uiso   1.00
C888   C     0.01501   0.28583   0.69044   0.00000  Uiso   1.00
H889   H     0.02717   0.31446   0.70834   0.00000  Uiso   1.00
H890   H     0.47284   0.18553   0.95833   0.00000  Uiso   1.00
H891   H     0.47326   0.18533   0.70897   0.00000  Uiso   1.00
H892   H     0.02674   0.31467   0.95769   0.00000  Uiso   1.00
H893   H     0.27716   0.06447   0.70834   0.00000  Uiso   1.00
H894   H     0.22283   0.43554   0.95833   0.00000  Uiso   1.00
H895   H     0.22326   0.43533   0.70897   0.00000  Uiso   1.00
H896   H     0.27674   0.06467   0.95769   0.00000  Uiso   1.00
N897   N     0.00000   0.25000   0.95240   0.00000  Uiso   1.00
N898   N     0.46792   0.37868   0.73600   0.00000  Uiso   1.00
N899   N     0.37271   0.28200   0.93111   0.00000  Uiso   1.00
N900   N     0.12748   0.21821   0.73578   0.00000  Uiso   1.00
N901   N     0.09033   0.00194   0.82324   0.00000  Uiso   1.00
N902   N     0.40972   0.49805   0.84302   0.00000  Uiso   1.00
N903   N     0.24813   0.15943   0.84429   0.00000  Uiso   1.00
N904   N     0.25189   0.34051   0.82277   0.00000  Uiso   1.00
N905   N     0.28208   0.37132   0.93067   0.00000  Uiso   1.00
N906   N     0.21813   0.12886   0.73622   0.00000  Uiso   1.00
N907   N     0.12252   0.03179   0.93089   0.00000  Uiso   1.00
N908   N     0.00000   0.25000   0.71427   0.00000  Uiso   1.00
N909   N     0.37729   0.46800   0.73556   0.00000  Uiso   1.00
N910   N     0.25000  -0.00000   0.95240   0.00000  Uiso   1.00
N911   N     0.25000  -0.00000   0.71427   0.00000  Uiso   1.00
N912   N     0.34028   0.25195   0.82364   0.00000  Uiso   1.00
N913   N     0.15967   0.24806   0.84342   0.00000  Uiso   1.00
N914   N     0.49811   0.40949   0.84389   0.00000  Uiso   1.00
N915   N     0.00187   0.09057   0.82238   0.00000  Uiso   1.00
N916   N     0.03187   0.12114   0.93045   0.00000  Uiso   1.00
O917   O     0.04581   0.20419   0.87154   0.00000  Uiso   1.00
O918   O     0.20420   0.04581   0.79513   0.00000  Uiso   1.00
O919   O     0.20420   0.04581   0.87154   0.00000  Uiso   1.00
O920   O     0.29581   0.45419   0.79513   0.00000  Uiso   1.00
O921   O     0.20420   0.45419   0.79513   0.00000  Uiso   1.00
O922   O     0.29581   0.04581   0.87154   0.00000  Uiso   1.00
O923   O     0.29581   0.04581   0.79513   0.00000  Uiso   1.00
O924   O     0.20420   0.45419   0.87154   0.00000  Uiso   1.00
O925   O     0.45420   0.29581   0.79513   0.00000  Uiso   1.00
O926   O     0.45420   0.29581   0.87154   0.00000  Uiso   1.00
O927   O     0.04581   0.20419   0.79513   0.00000  Uiso   1.00
O928   O     0.45420   0.20419   0.79513   0.00000  Uiso   1.00
O929   O     0.04581   0.29581   0.87154   0.00000  Uiso   1.00
O930   O     0.04581   0.29581   0.79513   0.00000  Uiso   1.00
O931   O     0.45420   0.20419   0.87154   0.00000  Uiso   1.00
O932   O     0.29581   0.45419   0.87154   0.00000  Uiso   1.00
Zn933  Zn    0.00000   0.25000   0.88437   0.00000  Uiso   1.00
Zn934  Zn    0.00000   0.25000   0.78229   0.00000  Uiso   1.00
Zn935  Zn    0.25000  -0.00000   0.88437   0.00000  Uiso   1.00
Zn936  Zn    0.25000  -0.00000   0.78229   0.00000  Uiso   1.00
C937   C     0.55992   0.19002   0.83337   0.00000  Uiso   1.00
C938   C     0.98499   0.21417   0.97622   0.00000  Uiso   1.00
C939   C     0.98510   0.21412   0.69080   0.00000  Uiso   1.00
C940   C     0.51490   0.28588   0.97587   0.00000  Uiso   1.00
C941   C     0.76501   0.03583   0.69044   0.00000  Uiso   1.00
C942   C     0.73499   0.46417   0.97622   0.00000  Uiso   1.00
C943   C     0.73510   0.46412   0.69080   0.00000  Uiso   1.00
C944   C     0.76490   0.03588   0.97587   0.00000  Uiso   1.00
C945   C     0.86273   0.16970   0.83262   0.00000  Uiso   1.00
C946   C     0.63726   0.33030   0.83420   0.00000  Uiso   1.00
C947   C     0.58030   0.38723   0.83440   0.00000  Uiso   1.00
C948   C     0.94008   0.30998   0.83329   0.00000  Uiso   1.00
C949   C     0.91970   0.11278   0.83212   0.00000  Uiso   1.00
C950   C     0.59287   0.12471   0.86801   0.00000  Uiso   1.00
C951   C     0.90706   0.37522   0.79858   0.00000  Uiso   1.00
C952   C     0.87502   0.34280   0.86809   0.00000  Uiso   1.00
C953   C     0.62505   0.15727   0.79865   0.00000  Uiso   1.00
C954   C     0.61274   0.41970   0.83247   0.00000  Uiso   1.00
C955   C     0.88727   0.08030   0.83404   0.00000  Uiso   1.00
C956   C     0.83030   0.13722   0.83455   0.00000  Uiso   1.00
C957   C     0.66970   0.36277   0.83227   0.00000  Uiso   1.00
C958   C     0.84294   0.37478   0.86808   0.00000  Uiso   1.00
C959   C     0.94012   0.19017   0.83326   0.00000  Uiso   1.00
C960   C     0.65713   0.12529   0.79865   0.00000  Uiso   1.00
C961   C     0.62495   0.09273   0.86802   0.00000  Uiso   1.00
C962   C     0.87498   0.40720   0.79858   0.00000  Uiso   1.00
C963   C     0.59299   0.34296   0.83394   0.00000  Uiso   1.00
C964   C     0.90700   0.15705   0.83273   0.00000  Uiso   1.00
C965   C     0.90691   0.34311   0.83329   0.00000  Uiso   1.00
C966   C     0.59309   0.15689   0.83338   0.00000  Uiso   1.00
C967   C     0.84300   0.09295   0.83394   0.00000  Uiso   1.00
C968   C     0.65701   0.40704   0.83273   0.00000  Uiso   1.00
C969   C     0.65691   0.09311   0.83329   0.00000  Uiso   1.00
C970   C     0.55987   0.30984   0.83341   0.00000  Uiso   1.00
C971   C     0.84309   0.40689   0.83338   0.00000  Uiso   1.00
C972   C     0.85049   0.21558   0.82798   0.00000  Uiso   1.00
C973   C     0.64948   0.28442   0.83898   0.00000  Uiso   1.00
C974   C     0.53445   0.39938   0.83933   0.00000  Uiso   1.00
C975   C     0.96554   0.10066   0.82705   0.00000  Uiso   1.00
C976   C     0.55883   0.12288   0.90278   0.00000  Uiso   1.00
C977   C     0.94102   0.37699   0.76373   0.00000  Uiso   1.00
C978   C     0.87377   0.30889   0.90320   0.00000  Uiso   1.00
C979   C     0.62636   0.19126   0.76362   0.00000  Uiso   1.00
C980   C     0.60052   0.46558   0.82769   0.00000  Uiso   1.00
C981   C     0.80992   0.44002   0.83337   0.00000  Uiso   1.00
C982   C     0.89951   0.03442   0.83868   0.00000  Uiso   1.00
C983   C     0.78446   0.14934   0.83962   0.00000  Uiso   1.00
C984   C     0.71555   0.35062   0.82734   0.00000  Uiso   1.00
C985   C     0.80898   0.37301   0.90294   0.00000  Uiso   1.00
C986   C     0.69117   0.12712   0.76388   0.00000  Uiso   1.00
C987   C     0.62364   0.05874   0.90305   0.00000  Uiso   1.00
C988   C     0.87623   0.44111   0.76346   0.00000  Uiso   1.00
C989   C     0.69008   0.05998   0.83329   0.00000  Uiso   1.00
C990   C     0.69013   0.44016   0.83326   0.00000  Uiso   1.00
C991   C     0.80988   0.05983   0.83341   0.00000  Uiso   1.00
C992   C     0.51501   0.28583   0.69044   0.00000  Uiso   1.00
H993   H     0.52717   0.31446   0.70834   0.00000  Uiso   1.00
H994   H     0.97284   0.18553   0.95833   0.00000  Uiso   1.00
H995   H     0.97326   0.18533   0.70897   0.00000  Uiso   1.00
H996   H     0.52674   0.31467   0.95769   0.00000  Uiso   1.00
H997   H     0.77716   0.06447   0.70834   0.00000  Uiso   1.00
H998   H     0.72283   0.43554   0.95833   0.00000  Uiso   1.00
H999   H     0.72326   0.43533   0.70897   0.00000  Uiso   1.00
H1000  H     0.77674   0.06467   0.95769   0.00000  Uiso   1.00
N1001  N     0.50000   0.25000   0.95240   0.00000  Uiso   1.00
N1002  N     0.96792   0.37868   0.73600   0.00000  Uiso   1.00
N1003  N     0.87271   0.28200   0.93111   0.00000  Uiso   1.00
N1004  N     0.62748   0.21821   0.73578   0.00000  Uiso   1.00
N1005  N     0.59033   0.00194   0.82324   0.00000  Uiso   1.00
N1006  N     0.90972   0.49805   0.84302   0.00000  Uiso   1.00
N1007  N     0.74813   0.15943   0.84429   0.00000  Uiso   1.00
N1008  N     0.75189   0.34051   0.82277   0.00000  Uiso   1.00
N1009  N     0.78208   0.37132   0.93067   0.00000  Uiso   1.00
N1010  N     0.71813   0.12886   0.73622   0.00000  Uiso   1.00
N1011  N     0.62252   0.03179   0.93089   0.00000  Uiso   1.00
N1012  N     0.50000   0.25000   0.71427   0.00000  Uiso   1.00
N1013  N     0.87729   0.46800   0.73556   0.00000  Uiso   1.00
N1014  N     0.75000  -0.00000   0.95240   0.00000  Uiso   1.00
N1015  N     0.75000  -0.00000   0.71427   0.00000  Uiso   1.00
N1016  N     0.84028   0.25195   0.82364   0.00000  Uiso   1.00
N1017  N     0.65967   0.24806   0.84342   0.00000  Uiso   1.00
N1018  N     0.99811   0.40949   0.84389   0.00000  Uiso   1.00
N1019  N     0.50187   0.09057   0.82238   0.00000  Uiso   1.00
N1020  N     0.53187   0.12114   0.93045   0.00000  Uiso   1.00
O1021  O     0.54581   0.20419   0.87154   0.00000  Uiso   1.00
O1022  O     0.70420   0.04581   0.79513   0.00000  Uiso   1.00
O1023  O     0.70420   0.04581   0.87154   0.00000  Uiso   1.00
O1024  O     0.79581   0.45419   0.79513   0.00000  Uiso   1.00
O1025  O     0.70420   0.45419   0.79513   0.00000  Uiso   1.00
O1026  O     0.79581   0.04581   0.87154   0.00000  Uiso   1.00
O1027  O     0.79581   0.04581   0.79513   0.00000  Uiso   1.00
O1028  O     0.70420   0.45419   0.87154   0.00000  Uiso   1.00
O1029  O     0.95420   0.29581   0.79513   0.00000  Uiso   1.00
O1030  O     0.95420   0.29581   0.87154   0.00000  Uiso   1.00
O1031  O     0.54581   0.20419   0.79513   0.00000  Uiso   1.00
O1032  O     0.95420   0.20419   0.79513   0.00000  Uiso   1.00
O1033  O     0.54581   0.29581   0.87154   0.00000  Uiso   1.00
O1034  O     0.54581   0.29581   0.79513   0.00000  Uiso   1.00
O1035  O     0.95420   0.20419   0.87154   0.00000  Uiso   1.00
O1036  O     0.79581   0.45419   0.87154   0.00000  Uiso   1.00
Zn1037 Zn    0.50000   0.25000   0.88437   0.00000  Uiso   1.00
Zn1038 Zn    0.50000   0.25000   0.78229   0.00000  Uiso   1.00
Zn1039 Zn    0.75000  -0.00000   0.88437   0.00000  Uiso   1.00
Zn1040 Zn    0.75000  -0.00000   0.78229   0.00000  Uiso   1.00
C1041  C     0.05992   0.69002   0.83337   0.00000  Uiso   1.00
C1042  C     0.48499   0.71417   0.97622   0.00000  Uiso   1.00
C1043  C     0.48510   0.71412   0.69080   0.00000  Uiso   1.00
C1044  C     0.01490   0.78588   0.97587   0.00000  Uiso   1.00
C1045  C     0.26501   0.53583   0.69044   0.00000  Uiso   1.00
C1046  C     0.23499   0.96417   0.97622   0.00000  Uiso   1.00
C1047  C     0.23510   0.96412   0.69080   0.00000  Uiso   1.00
C1048  C     0.26490   0.53588   0.97587   0.00000  Uiso   1.00
C1049  C     0.36273   0.66970   0.83262   0.00000  Uiso   1.00
C1050  C     0.13726   0.83030   0.83420   0.00000  Uiso   1.00
C1051  C     0.08030   0.88723   0.83440   0.00000  Uiso   1.00
C1052  C     0.44008   0.80998   0.83329   0.00000  Uiso   1.00
C1053  C     0.41970   0.61278   0.83212   0.00000  Uiso   1.00
C1054  C     0.09287   0.62471   0.86801   0.00000  Uiso   1.00
C1055  C     0.40706   0.87522   0.79858   0.00000  Uiso   1.00
C1056  C     0.37502   0.84280   0.86809   0.00000  Uiso   1.00
C1057  C     0.12505   0.65727   0.79865   0.00000  Uiso   1.00
C1058  C     0.11274   0.91970   0.83247   0.00000  Uiso   1.00
C1059  C     0.38727   0.58030   0.83404   0.00000  Uiso   1.00
C1060  C     0.33030   0.63722   0.83455   0.00000  Uiso   1.00
C1061  C     0.16970   0.86277   0.83227   0.00000  Uiso   1.00
C1062  C     0.34294   0.87478   0.86808   0.00000  Uiso   1.00
C1063  C     0.44012   0.69017   0.83326   0.00000  Uiso   1.00
C1064  C     0.15713   0.62529   0.79865   0.00000  Uiso   1.00
C1065  C     0.12495   0.59273   0.86802   0.00000  Uiso   1.00
C1066  C     0.37498   0.90720   0.79858   0.00000  Uiso   1.00
C1067  C     0.09299   0.84296   0.83394   0.00000  Uiso   1.00
C1068  C     0.40700   0.65705   0.83273   0.00000  Uiso   1.00
C1069  C     0.40691   0.84311   0.83329   0.00000  Uiso   1.00
C1070  C     0.09309   0.65689   0.83338   0.00000  Uiso   1.00
C1071  C     0.34300   0.59295   0.83394   0.00000  Uiso   1.00
C1072  C     0.15701   0.90704   0.83273   0.00000  Uiso   1.00
C1073  C     0.15691   0.59311   0.83329   0.00000  Uiso   1.00
C1074  C     0.05987   0.80984   0.83341   0.00000  Uiso   1.00
C1075  C     0.34309   0.90689   0.83338   0.00000  Uiso   1.00
C1076  C     0.35049   0.71558   0.82798   0.00000  Uiso   1.00
C1077  C     0.14948   0.78442   0.83898   0.00000  Uiso   1.00
C1078  C     0.03445   0.89938   0.83933   0.00000  Uiso   1.00
C1079  C     0.46554   0.60066   0.82705   0.00000  Uiso   1.00
C1080  C     0.05883   0.62288   0.90278   0.00000  Uiso   1.00
C1081  C     0.44102   0.87699   0.76373   0.00000  Uiso   1.00
C1082  C     0.37377   0.80889   0.90320   0.00000  Uiso   1.00
C1083  C     0.12636   0.69126   0.76362   0.00000  Uiso   1.00
C1084  C     0.10052   0.96558   0.82769   0.00000  Uiso   1.00
C1085  C     0.30992   0.94002   0.83337   0.00000  Uiso   1.00
C1086  C     0.39951   0.53442   0.83868   0.00000  Uiso   1.00
C1087  C     0.28446   0.64934   0.83962   0.00000  Uiso   1.00
C1088  C     0.21555   0.85062   0.82734   0.00000  Uiso   1.00
C1089  C     0.30898   0.87301   0.90294   0.00000  Uiso   1.00
C1090  C     0.19117   0.62712   0.76388   0.00000  Uiso   1.00
C1091  C     0.12364   0.55874   0.90305   0.00000  Uiso   1.00
C1092  C     0.37623   0.94111   0.76346   0.00000  Uiso   1.00
C1093  C     0.19008   0.55998   0.83329   0.00000  Uiso   1.00
C1094  C     0.19013   0.94016   0.83326   0.00000  Uiso   1.00
C1095  C     0.30988   0.55983   0.83341   0.00000  Uiso   1.00
C1096  C     0.01501   0.78583   0.69044   0.00000  Uiso   1.00
H1097  H     0.02717   0.81446   0.70834   0.00000  Uiso   1.00
H1098  H     0.47284   0.68553   0.95833   0.00000  Uiso   1.00
H1099  H     0.47326   0.68533   0.70897   0.00000  Uiso   1.00
H1100  H     0.02674   0.81467   0.95769   0.00000  Uiso   1.00
H1101  H     0.27716   0.56447   0.70834   0.00000  Uiso   1.00
H1102  H     0.22283   0.93554   0.95833   0.00000  Uiso   1.00
H1103  H     0.22326   0.93533   0.70897   0.00000  Uiso   1.00
H1104  H     0.27674   0.56467   0.95769   0.00000  Uiso   1.00
N1105  N     0.00000   0.75000   0.95240   0.00000  Uiso   1.00
N1106  N     0.46792   0.87868   0.73600   0.00000  Uiso   1.00
N1107  N     0.37271   0.78200   0.93111   0.00000  Uiso   1.00
N1108  N     0.12748   0.71821   0.73578   0.00000  Uiso   1.00
N1109  N     0.09033   0.50194   0.82324   0.00000  Uiso   1.00
N1110  N     0.40972   0.99805   0.84302   0.00000  Uiso   1.00
N1111  N     0.24813   0.65943   0.84429   0.00000  Uiso   1.00
N1112  N     0.25189   0.84051   0.82277   0.00000  Uiso   1.00
N1113  N     0.28208   0.87132   0.93067   0.00000  Uiso   1.00
N1114  N     0.21813   0.62886   0.73622   0.00000  Uiso   1.00
N1115  N     0.12252   0.53179   0.93089   0.00000  Uiso   1.00
N1116  N     0.00000   0.75000   0.71427   0.00000  Uiso   1.00
N1117  N     0.37729   0.96800   0.73556   0.00000  Uiso   1.00
N1118  N     0.25000   0.50000   0.95240   0.00000  Uiso   1.00
N1119  N     0.25000   0.50000   0.71427   0.00000  Uiso   1.00
N1120  N     0.34028   0.75195   0.82364   0.00000  Uiso   1.00
N1121  N     0.15967   0.74806   0.84342   0.00000  Uiso   1.00
N1122  N     0.49811   0.90949   0.84389   0.00000  Uiso   1.00
N1123  N     0.00187   0.59057   0.82238   0.00000  Uiso   1.00
N1124  N     0.03187   0.62114   0.93045   0.00000  Uiso   1.00
O1125  O     0.04581   0.70419   0.87154   0.00000  Uiso   1.00
O1126  O     0.20420   0.54581   0.79513   0.00000  Uiso   1.00
O1127  O     0.20420   0.54581   0.87154   0.00000  Uiso   1.00
O1128  O     0.29581   0.95419   0.79513   0.00000  Uiso   1.00
O1129  O     0.20420   0.95419   0.79513   0.00000  Uiso   1.00
O1130  O     0.29581   0.54581   0.87154   0.00000  Uiso   1.00
O1131  O     0.29581   0.54581   0.79513   0.00000  Uiso   1.00
O1132  O     0.20420   0.95419   0.87154   0.00000  Uiso   1.00
O1133  O     0.45420   0.79581   0.79513   0.00000  Uiso   1.00
O1134  O     0.45420   0.79581   0.87154   0.00000  Uiso   1.00
O1135  O     0.04581   0.70419   0.79513   0.00000  Uiso   1.00
O1136  O     0.45420   0.70419   0.79513   0.00000  Uiso   1.00
O1137  O     0.04581   0.79581   0.87154   0.00000  Uiso   1.00
O1138  O     0.04581   0.79581   0.79513   0.00000  Uiso   1.00
O1139  O     0.45420   0.70419   0.87154   0.00000  Uiso   1.00
O1140  O     0.29581   0.95419   0.87154   0.00000  Uiso   1.00
Zn1141 Zn    0.00000   0.75000   0.88437   0.00000  Uiso   1.00
Zn1142 Zn    0.00000   0.75000   0.78229   0.00000  Uiso   1.00
Zn1143 Zn    0.25000   0.50000   0.88437   0.00000  Uiso   1.00
Zn1144 Zn    0.25000   0.50000   0.78229   0.00000  Uiso   1.00
C1145  C     0.55992   0.69002   0.83337   0.00000  Uiso   1.00
C1146  C     0.98499   0.71417   0.97622   0.00000  Uiso   1.00
C1147  C     0.98510   0.71412   0.69080   0.00000  Uiso   1.00
C1148  C     0.51490   0.78588   0.97587   0.00000  Uiso   1.00
C1149  C     0.76501   0.53583   0.69044   0.00000  Uiso   1.00
C1150  C     0.73499   0.96417   0.97622   0.00000  Uiso   1.00
C1151  C     0.73510   0.96412   0.69080   0.00000  Uiso   1.00
C1152  C     0.76490   0.53588   0.97587   0.00000  Uiso   1.00
C1153  C     0.86273   0.66970   0.83262   0.00000  Uiso   1.00
C1154  C     0.63726   0.83030   0.83420   0.00000  Uiso   1.00
C1155  C     0.58030   0.88723   0.83440   0.00000  Uiso   1.00
C1156  C     0.94008   0.80998   0.83329   0.00000  Uiso   1.00
C1157  C     0.91970   0.61278   0.83212   0.00000  Uiso   1.00
C1158  C     0.59287   0.62471   0.86801   0.00000  Uiso   1.00
C1159  C     0.90706   0.87522   0.79858   0.00000  Uiso   1.00
C1160  C     0.87502   0.84280   0.86809   0.00000  Uiso   1.00
C1161  C     0.62505   0.65727   0.79865   0.00000  Uiso   1.00
C1162  C     0.61274   0.91970   0.83247   0.00000  Uiso   1.00
C1163  C     0.88727   0.58030   0.83404   0.00000  Uiso   1.00
C1164  C     0.83030   0.63722   0.83455   0.00000  Uiso   1.00
C1165  C     0.66970   0.86277   0.83227   0.00000  Uiso   1.00
C1166  C     0.84294   0.87478   0.86808   0.00000  Uiso   1.00
C1167  C     0.94012   0.69017   0.83326   0.00000  Uiso   1.00
C1168  C     0.65713   0.62529   0.79865   0.00000  Uiso   1.00
C1169  C     0.62495   0.59273   0.86802   0.00000  Uiso   1.00
C1170  C     0.87498   0.90720   0.79858   0.00000  Uiso   1.00
C1171  C     0.59299   0.84296   0.83394   0.00000  Uiso   1.00
C1172  C     0.90700   0.65705   0.83273   0.00000  Uiso   1.00
C1173  C     0.90691   0.84311   0.83329   0.00000  Uiso   1.00
C1174  C     0.59309   0.65689   0.83338   0.00000  Uiso   1.00
C1175  C     0.84300   0.59295   0.83394   0.00000  Uiso   1.00
C1176  C     0.65701   0.90704   0.83273   0.00000  Uiso   1.00
C1177  C     0.65691   0.59311   0.83329   0.00000  Uiso   1.00
C1178  C     0.55987   0.80984   0.83341   0.00000  Uiso   1.00
C1179  C     0.84309   0.90689   0.83338   0.00000  Uiso   1.00
C1180  C     0.85049   0.71558   0.82798   0.00000  Uiso   1.00
C1181  C     0.64948   0.78442   0.83898   0.00000  Uiso   1.00
C1182  C     0.53445   0.89938   0.83933   0.00000  Uiso   1.00
C1183  C     0.96554   0.60066   0.82705   0.00000  Uiso   1.00
C1184  C     0.55883   0.62288   0.90278   0.00000  Uiso   1.00
C1185  C     0.94102   0.87699   0.76373   0.00000  Uiso   1.00
C1186  C     0.87377   0.80889   0.90320   0.00000  Uiso   1.00
C1187  C     0.62636   0.69126   0.76362   0.00000  Uiso   1.00
C1188  C     0.60052   0.96558   0.82769   0.00000  Uiso   1.00
C1189  C     0.80992   0.94002   0.83337   0.00000  Uiso   1.00
C1190  C     0.89951   0.53442   0.83868   0.00000  Uiso   1.00
C1191  C     0.78446   0.64934   0.83962   0.00000  Uiso   1.00
C1192  C     0.71555   0.85062   0.82734   0.00000  Uiso   1.00
C1193  C     0.80898   0.87301   0.90294   0.00000  Uiso   1.00
C1194  C     0.69117   0.62712   0.76388   0.00000  Uiso   1.00
C1195  C     0.62364   0.55874   0.90305   0.00000  Uiso   1.00
C1196  C     0.87623   0.94111   0.76346   0.00000  Uiso   1.00
C1197  C     0.69008   0.55998   0.83329   0.00000  Uiso   1.00
C1198  C     0.69013   0.94016   0.83326   0.00000  Uiso   1.00
C1199  C     0.80988   0.55983   0.83341   0.00000  Uiso   1.00
C1200  C     0.51501   0.78583   0.69044   0.00000  Uiso   1.00
H1201  H     0.52717   0.81446   0.70834   0.00000  Uiso   1.00
H1202  H     0.97284   0.68553   0.95833   0.00000  Uiso   1.00
H1203  H     0.97326   0.68533   0.70897   0.00000  Uiso   1.00
H1204  H     0.52674   0.81467   0.95769   0.00000  Uiso   1.00
H1205  H     0.77716   0.56447   0.70834   0.00000  Uiso   1.00
H1206  H     0.72283   0.93554   0.95833   0.00000  Uiso   1.00
H1207  H     0.72326   0.93533   0.70897   0.00000  Uiso   1.00
H1208  H     0.77674   0.56467   0.95769   0.00000  Uiso   1.00
N1209  N     0.50000   0.75000   0.95240   0.00000  Uiso   1.00
N1210  N     0.96792   0.87868   0.73600   0.00000  Uiso   1.00
N1211  N     0.87271   0.78200   0.93111   0.00000  Uiso   1.00
N1212  N     0.62748   0.71821   0.73578   0.00000  Uiso   1.00
N1213  N     0.59033   0.50194   0.82324   0.00000  Uiso   1.00
N1214  N     0.90972   0.99805   0.84302   0.00000  Uiso   1.00
N1215  N     0.74813   0.65943   0.84429   0.00000  Uiso   1.00
N1216  N     0.75189   0.84051   0.82277   0.00000  Uiso   1.00
N1217  N     0.78208   0.87132   0.93067   0.00000  Uiso   1.00
N1218  N     0.71813   0.62886   0.73622   0.00000  Uiso   1.00
N1219  N     0.62252   0.53179   0.93089   0.00000  Uiso   1.00
N1220  N     0.50000   0.75000   0.71427   0.00000  Uiso   1.00
N1221  N     0.87729   0.96800   0.73556   0.00000  Uiso   1.00
N1222  N     0.75000   0.50000   0.95240   0.00000  Uiso   1.00
N1223  N     0.75000   0.50000   0.71427   0.00000  Uiso   1.00
N1224  N     0.84028   0.75195   0.82364   0.00000  Uiso   1.00
N1225  N     0.65967   0.74806   0.84342   0.00000  Uiso   1.00
N1226  N     0.99811   0.90949   0.84389   0.00000  Uiso   1.00
N1227  N     0.50187   0.59057   0.82238   0.00000  Uiso   1.00
N1228  N     0.53187   0.62114   0.93045   0.00000  Uiso   1.00
O1229  O     0.54581   0.70419   0.87154   0.00000  Uiso   1.00
O1230  O     0.70420   0.54581   0.79513   0.00000  Uiso   1.00
O1231  O     0.70420   0.54581   0.87154   0.00000  Uiso   1.00
O1232  O     0.79581   0.95419   0.79513   0.00000  Uiso   1.00
O1233  O     0.70420   0.95419   0.79513   0.00000  Uiso   1.00
O1234  O     0.79581   0.54581   0.87154   0.00000  Uiso   1.00
O1235  O     0.79581   0.54581   0.79513   0.00000  Uiso   1.00
O1236  O     0.70420   0.95419   0.87154   0.00000  Uiso   1.00
O1237  O     0.95420   0.79581   0.79513   0.00000  Uiso   1.00
O1238  O     0.95420   0.79581   0.87154   0.00000  Uiso   1.00
O1239  O     0.54581   0.70419   0.79513   0.00000  Uiso   1.00
O1240  O     0.95420   0.70419   0.79513   0.00000  Uiso   1.00
O1241  O     0.54581   0.79581   0.87154   0.00000  Uiso   1.00
O1242  O     0.54581   0.79581   0.79513   0.00000  Uiso   1.00
O1243  O     0.95420   0.70419   0.87154   0.00000  Uiso   1.00
O1244  O     0.79581   0.95419   0.87154   0.00000  Uiso   1.00
Zn1245 Zn    0.50000   0.75000   0.88437   0.00000  Uiso   1.00
Zn1246 Zn    0.50000   0.75000   0.78229   0.00000  Uiso   1.00
Zn1247 Zn    0.75000   0.50000   0.88437   0.00000  Uiso   1.00
Zn1248 Zn    0.75000   0.50000   0.78229   0.00000  Uiso   1.00
loop_
_geom_bond_atom_site_label_1
_geom_bond_atom_site_label_2
_geom_bond_distance
_geom_bond_site_symmetry_2
_ccdc_geom_bond_type
C1     O95     1.283   .     A
C1     O85     1.284   .     A
C1     C30     1.432   .     S
C2     N169    1.366   .     A
C2     H58     1.081   .     S
C2     C419    1.416   .     S
C3     H59     1.081   .     S
C3     C834    1.416   1_554 S
C3     N180    1.366   .     S
C4     H60     1.081   .     S
C4     C472    1.416   .     S
C4     N65     1.366   .     S
C5     N79     1.366   .     A
C5     H61     1.081   .     S
C5     C840    1.416   1_554 S
C6     N286    1.366   .     A
C6     H62     1.081   .     S
C6     C423    1.416   .     S
C7     H63     1.081   .     S
C7     C838    1.416   1_554 S
C7     N287    1.366   .     S
C8     H64     1.081   .     S
C8     C421    1.416   .     S
C8     N78     1.366   .     S
C9     C36     1.452   .     S
C9     C20     1.386   .     A
C9     C28     1.402   .     A
C10    C27     1.402   .     A
C10    C37     1.452   .     S
C10    C21     1.386   .     A
C11    C18     1.386   .     A
C11    C38     1.452   .     S
C11    C27     1.402   .     A
C12    C29     1.432   .     S
C12    O93     1.284   .     A
C12    O94     1.283   .     A
C13    C28     1.402   .     A
C13    C19     1.386   .     A
C13    C39     1.452   .     S
C14    C40     1.457   .     S
C14    C30     1.411   .     A
C14    C25     1.383   .     A
C15    C29     1.411   .     A
C15    C41     1.457   .     S
C15    C26     1.383   .     A
C16    C29     1.412   .     A
C16    C42     1.458   .     S
C16    C22     1.383   .     A
C17    C30     1.412   .     A
C17    C24     1.383   .     A
C17    C43     1.458   .     S
C18    C44     1.452   .     S
C18    C32     1.402   .     A
C19    C31     1.402   .     A
C19    C46     1.452   .     S
C20    C47     1.452   .     S
C20    C31     1.402   .     A
C21    C48     1.452   .     S
C21    C32     1.402   .     A
C22    C35     1.411   .     A
C22    C49     1.457   .     S
C23    O99     1.282   .     A
C23    O96     1.274   .     A
C23    C28     1.413   .     S
C24    C50     1.457   .     S
C24    C33     1.411   .     A
C25    C51     1.458   .     S
C25    C33     1.412   .     A
C26    C52     1.458   .     S
C26    C35     1.412   .     A
C27    C34     1.413   .     S
C31    C55     1.413   .     S
C32    C54     1.413   .     S
C33    C53     1.432   .     S
C34    O97     1.274   .     A
C34    O98     1.282   .     A
C35    C45     1.432   .     S
C36    N80     1.157   .     T
C37    N81     1.157   .     T
C38    N186    1.157   1_455 S
C39    N187    1.157   .     S
C40    N84     1.157   .     T
C41    N66     1.157   .     T
C42    N67     1.158   .     T
C43    N68     1.158   .     T
C44    N277    1.157   .     S
C45    O88     1.283   .     A
C45    O100    1.284   .     A
C46    N278    1.157   1_545 S
C47    N71     1.157   .     T
C48    N72     1.157   .     T
C49    N73     1.157   .     T
C50    N74     1.157   .     T
C51    N75     1.158   .     T
C52    N77     1.158   .     T
C53    O86     1.284   .     A
C53    O87     1.283   .     A
C54    O89     1.274   .     A
C54    O92     1.282   .     A
C55    O90     1.274   .     A
C55    O91     1.282   .     A
C56    N76     1.366   .     A
C56    H57     1.081   .     S
C56    C836    1.416   1_554 S
N65    Zn101   2.010   .     S
N65    C106    1.366   1_455 A
N69    C252    1.157   1_545 S
N70    C254    1.157   .     S
N76    Zn102   2.010   .     S
N76    C107    1.366   1_455 S
N78    C214    1.366   1_545 A
N78    Zn103   2.010   .     S
N79    C215    1.366   1_545 S
N79    Zn104   2.010   .     S
N82    C142    1.157   .     S
N83    C143    1.157   1_455 S
O85    Zn101   2.015   .     S
O86    Zn104   2.015   .     S
O87    Zn103   2.013   .     S
O88    Zn312   2.013   .     S
O89    Zn312   1.990   .     S
O90    Zn103   1.990   .     S
O91    Zn104   1.992   .     S
O92    Zn311   1.992   .     S
O93    Zn206   2.015   .     S
O94    Zn205   2.013   .     S
O95    Zn102   2.013   .     S
O96    Zn206   1.990   .     S
O97    Zn101   1.990   .     S
O98    Zn102   1.992   .     S
O99    Zn205   1.992   .     S
O100   Zn311   2.015   .     S
Zn101  O198    2.013   1_455 S
Zn101  O203    1.992   1_455 S
Zn102  O200    1.990   1_455 S
Zn102  O197    2.015   1_455 S
Zn103  O300    1.992   1_545 S
Zn103  O308    2.015   1_545 S
Zn104  O296    2.013   1_545 S
Zn104  O297    1.990   1_545 S
C105   O199    1.283   .     A
C105   O189    1.284   .     A
C105   C134    1.432   .     S
C106   N65     1.366   1_655 A
C106   H162    1.081   .     S
C106   C523    1.416   .     S
C107   H163    1.081   .     S
C107   C938    1.416   1_554 S
C107   N76     1.366   1_655 S
C108   H164    1.081   .     S
C108   C576    1.416   .     S
C108   N169    1.366   .     S
C109   N183    1.366   .     A
C109   H165    1.081   .     S
C109   C944    1.416   1_554 S
C110   N390    1.366   .     A
C110   H166    1.081   .     S
C110   C527    1.416   .     S
C111   H167    1.081   .     S
C111   C942    1.416   1_554 S
C111   N391    1.366   .     S
C112   H168    1.081   .     S
C112   C525    1.416   .     S
C112   N182    1.366   .     S
C113   C140    1.452   .     S
C113   C124    1.386   .     A
C113   C132    1.402   .     A
C114   C131    1.402   .     A
C114   C141    1.452   .     S
C114   C125    1.386   .     A
C115   C122    1.386   .     A
C115   C142    1.452   .     S
C115   C131    1.402   .     A
C116   C133    1.432   .     S
C116   O197    1.284   .     A
C116   O198    1.283   .     A
C117   C132    1.402   .     A
C117   C123    1.386   .     A
C117   C143    1.452   .     S
C118   C144    1.457   .     S
C118   C134    1.411   .     A
C118   C129    1.383   .     A
C119   C133    1.411   .     A
C119   C145    1.457   .     S
C119   C130    1.383   .     A
C120   C133    1.412   .     A
C120   C146    1.458   .     S
C120   C126    1.383   .     A
C121   C134    1.412   .     A
C121   C128    1.383   .     A
C121   C147    1.458   .     S
C122   C148    1.452   .     S
C122   C136    1.402   .     A
C123   C135    1.402   .     A
C123   C150    1.452   .     S
C124   C151    1.452   .     S
C124   C135    1.402   .     A
C125   C152    1.452   .     S
C125   C136    1.402   .     A
C126   C139    1.411   .     A
C126   C153    1.457   .     S
C127   O203    1.282   .     A
C127   O200    1.274   .     A
C127   C132    1.413   .     S
C128   C154    1.457   .     S
C128   C137    1.411   .     A
C129   C155    1.458   .     S
C129   C137    1.412   .     A
C130   C156    1.458   .     S
C130   C139    1.412   .     A
C131   C138    1.413   .     S
C135   C159    1.413   .     S
C136   C158    1.413   .     S
C137   C157    1.432   .     S
C138   O201    1.274   .     A
C138   O202    1.282   .     A
C139   C149    1.432   .     S
C140   N184    1.157   .     T
C141   N185    1.157   .     T
C143   N83     1.157   1_655 S
C144   N188    1.157   .     T
C145   N170    1.157   .     T
C146   N171    1.158   .     T
C147   N172    1.158   .     T
C148   N381    1.157   .     S
C149   O192    1.283   .     A
C149   O204    1.284   .     A
C150   N382    1.157   1_545 S
C151   N175    1.157   .     T
C152   N176    1.157   .     T
C153   N177    1.157   .     T
C154   N178    1.157   .     T
C155   N179    1.158   .     T
C156   N181    1.158   .     T
C157   O190    1.284   .     A
C157   O191    1.283   .     A
C158   O193    1.274   .     A
C158   O196    1.282   .     A
C159   O194    1.274   .     A
C159   O195    1.282   .     A
C160   N180    1.366   .     A
C160   H161    1.081   .     S
C160   C940    1.416   1_554 S
N169   Zn205   2.010   .     S
N173   C356    1.157   1_545 S
N174   C358    1.157   .     S
N180   Zn206   2.010   .     S
N182   C318    1.366   1_545 A
N182   Zn207   2.010   .     S
N183   C319    1.366   1_545 S
N183   Zn208   2.010   .     S
N186   C38     1.157   1_655 S
O189   Zn205   2.015   .     S
O190   Zn208   2.015   .     S
O191   Zn207   2.013   .     S
O192   Zn416   2.013   .     S
O193   Zn416   1.990   .     S
O194   Zn207   1.990   .     S
O195   Zn208   1.992   .     S
O196   Zn415   1.992   .     S
O197   Zn102   2.015   1_655 S
O198   Zn101   2.013   1_655 S
O199   Zn206   2.013   .     S
O200   Zn102   1.990   1_655 S
O201   Zn205   1.990   .     S
O202   Zn206   1.992   .     S
O203   Zn101   1.992   1_655 S
O204   Zn415   2.015   .     S
Zn207  O404    1.992   1_545 S
Zn207  O412    2.015   1_545 S
Zn208  O400    2.013   1_545 S
Zn208  O401    1.990   1_545 S
C209   O303    1.283   .     A
C209   O293    1.284   .     A
C209   C238    1.432   .     S
C210   N377    1.366   .     A
C210   H266    1.081   .     S
C210   C627    1.416   .     S
C211   H267    1.081   .     S
C211   C1042   1.416   1_554 S
C211   N388    1.366   .     S
C212   H268    1.081   .     S
C212   C680    1.416   .     S
C212   N273    1.366   .     S
C213   N287    1.366   .     A
C213   H269    1.081   .     S
C213   C1048   1.416   1_554 S
C214   N78     1.366   1_565 A
C214   H270    1.081   .     S
C214   C631    1.416   .     S
C215   H271    1.081   .     S
C215   C1046   1.416   1_554 S
C215   N79     1.366   1_565 S
C216   H272    1.081   .     S
C216   C629    1.416   .     S
C216   N286    1.366   .     S
C217   C244    1.452   .     S
C217   C228    1.386   .     A
C217   C236    1.402   .     A
C218   C235    1.402   .     A
C218   C245    1.452   .     S
C218   C229    1.386   .     A
C219   C226    1.386   .     A
C219   C246    1.452   .     S
C219   C235    1.402   .     A
C220   C237    1.432   .     S
C220   O301    1.284   .     A
C220   O302    1.283   .     A
C221   C236    1.402   .     A
C221   C227    1.386   .     A
C221   C247    1.452   .     S
C222   C248    1.457   .     S
C222   C238    1.411   .     A
C222   C233    1.383   .     A
C223   C237    1.411   .     A
C223   C249    1.457   .     S
C223   C234    1.383   .     A
C224   C237    1.412   .     A
C224   C250    1.458   .     S
C224   C230    1.383   .     A
C225   C238    1.412   .     A
C225   C232    1.383   .     A
C225   C251    1.458   .     S
C226   C252    1.452   .     S
C226   C240    1.402   .     A
C227   C239    1.402   .     A
C227   C254    1.452   .     S
C228   C255    1.452   .     S
C228   C239    1.402   .     A
C229   C256    1.452   .     S
C229   C240    1.402   .     A
C230   C243    1.411   .     A
C230   C257    1.457   .     S
C231   O307    1.282   .     A
C231   O304    1.274   .     A
C231   C236    1.413   .     S
C232   C258    1.457   .     S
C232   C241    1.411   .     A
C233   C259    1.458   .     S
C233   C241    1.412   .     A
C234   C260    1.458   .     S
C234   C243    1.412   .     A
C235   C242    1.413   .     S
C239   C263    1.413   .     S
C240   C262    1.413   .     S
C241   C261    1.432   .     S
C242   O305    1.274   .     A
C242   O306    1.282   .     A
C243   C253    1.432   .     S
C244   N288    1.157   .     T
C245   N289    1.157   .     T
C246   N394    1.157   1_455 S
C247   N395    1.157   .     S
C248   N292    1.157   .     T
C249   N274    1.157   .     T
C250   N275    1.158   .     T
C251   N276    1.158   .     T
C252   N69     1.157   1_565 S
C253   O296    1.283   .     A
C253   O308    1.284   .     A
C255   N279    1.157   .     T
C256   N280    1.157   .     T
C257   N281    1.157   .     T
C258   N282    1.157   .     T
C259   N283    1.158   .     T
C260   N285    1.158   .     T
C261   O294    1.284   .     A
C261   O295    1.283   .     A
C262   O297    1.274   .     A
C262   O300    1.282   .     A
C263   O298    1.274   .     A
C263   O299    1.282   .     A
C264   N284    1.366   .     A
C264   H265    1.081   .     S
C264   C1044   1.416   1_554 S
N273   Zn309   2.010   .     S
N273   C314    1.366   1_455 A
N278   C46     1.157   1_565 S
N284   Zn310   2.010   .     S
N284   C315    1.366   1_455 S
N286   Zn311   2.010   .     S
N287   Zn312   2.010   .     S
N290   C350    1.157   .     S
N291   C351    1.157   1_455 S
O293   Zn309   2.015   .     S
O294   Zn312   2.015   .     S
O295   Zn311   2.013   .     S
O296   Zn104   2.013   1_565 S
O297   Zn104   1.990   1_565 S
O298   Zn311   1.990   .     S
O299   Zn312   1.992   .     S
O300   Zn103   1.992   1_565 S
O301   Zn414   2.015   .     S
O302   Zn413   2.013   .     S
O303   Zn310   2.013   .     S
O304   Zn414   1.990   .     S
O305   Zn309   1.990   .     S
O306   Zn310   1.992   .     S
O307   Zn413   1.992   .     S
O308   Zn103   2.015   1_565 S
Zn309  O406    2.013   1_455 S
Zn309  O411    1.992   1_455 S
Zn310  O408    1.990   1_455 S
Zn310  O405    2.015   1_455 S
C313   O407    1.283   .     A
C313   O397    1.284   .     A
C313   C342    1.432   .     S
C314   N273    1.366   1_655 A
C314   H370    1.081   .     S
C314   C731    1.416   .     S
C315   H371    1.081   .     S
C315   C1146   1.416   1_554 S
C315   N284    1.366   1_655 S
C316   H372    1.081   .     S
C316   C784    1.416   .     S
C316   N377    1.366   .     S
C317   N391    1.366   .     A
C317   H373    1.081   .     S
C317   C1152   1.416   1_554 S
C318   N182    1.366   1_565 A
C318   H374    1.081   .     S
C318   C735    1.416   .     S
C319   H375    1.081   .     S
C319   C1150   1.416   1_554 S
C319   N183    1.366   1_565 S
C320   H376    1.081   .     S
C320   C733    1.416   .     S
C320   N390    1.366   .     S
C321   C348    1.452   .     S
C321   C332    1.386   .     A
C321   C340    1.402   .     A
C322   C339    1.402   .     A
C322   C349    1.452   .     S
C322   C333    1.386   .     A
C323   C330    1.386   .     A
C323   C350    1.452   .     S
C323   C339    1.402   .     A
C324   C341    1.432   .     S
C324   O405    1.284   .     A
C324   O406    1.283   .     A
C325   C340    1.402   .     A
C325   C331    1.386   .     A
C325   C351    1.452   .     S
C326   C352    1.457   .     S
C326   C342    1.411   .     A
C326   C337    1.383   .     A
C327   C341    1.411   .     A
C327   C353    1.457   .     S
C327   C338    1.383   .     A
C328   C341    1.412   .     A
C328   C354    1.458   .     S
C328   C334    1.383   .     A
C329   C342    1.412   .     A
C329   C336    1.383   .     A
C329   C355    1.458   .     S
C330   C356    1.452   .     S
C330   C344    1.402   .     A
C331   C343    1.402   .     A
C331   C358    1.452   .     S
C332   C359    1.452   .     S
C332   C343    1.402   .     A
C333   C360    1.452   .     S
C333   C344    1.402   .     A
C334   C347    1.411   .     A
C334   C361    1.457   .     S
C335   O411    1.282   .     A
C335   O408    1.274   .     A
C335   C340    1.413   .     S
C336   C362    1.457   .     S
C336   C345    1.411   .     A
C337   C363    1.458   .     S
C337   C345    1.412   .     A
C338   C364    1.458   .     S
C338   C347    1.412   .     A
C339   C346    1.413   .     S
C343   C367    1.413   .     S
C344   C366    1.413   .     S
C345   C365    1.432   .     S
C346   O409    1.274   .     A
C346   O410    1.282   .     A
C347   C357    1.432   .     S
C348   N392    1.157   .     T
C349   N393    1.157   .     T
C351   N291    1.157   1_655 S
C352   N396    1.157   .     T
C353   N378    1.157   .     T
C354   N379    1.158   .     T
C355   N380    1.158   .     T
C356   N173    1.157   1_565 S
C357   O400    1.283   .     A
C357   O412    1.284   .     A
C359   N383    1.157   .     T
C360   N384    1.157   .     T
C361   N385    1.157   .     T
C362   N386    1.157   .     T
C363   N387    1.158   .     T
C364   N389    1.158   .     T
C365   O398    1.284   .     A
C365   O399    1.283   .     A
C366   O401    1.274   .     A
C366   O404    1.282   .     A
C367   O402    1.274   .     A
C367   O403    1.282   .     A
C368   N388    1.366   .     A
C368   H369    1.081   .     S
C368   C1148   1.416   1_554 S
N377   Zn413   2.010   .     S
N382   C150    1.157   1_565 S
N388   Zn414   2.010   .     S
N390   Zn415   2.010   .     S
N391   Zn416   2.010   .     S
N394   C246    1.157   1_655 S
O397   Zn413   2.015   .     S
O398   Zn416   2.015   .     S
O399   Zn415   2.013   .     S
O400   Zn208   2.013   1_565 S
O401   Zn208   1.990   1_565 S
O402   Zn415   1.990   .     S
O403   Zn416   1.992   .     S
O404   Zn207   1.992   1_565 S
O405   Zn310   2.015   1_655 S
O406   Zn309   2.013   1_655 S
O407   Zn414   2.013   .     S
O408   Zn310   1.990   1_655 S
O409   Zn413   1.990   .     S
O410   Zn414   1.992   .     S
O411   Zn309   1.992   1_655 S
O412   Zn207   2.015   1_565 S
C417   O511    1.283   .     A
C417   O501    1.284   .     A
C417   C446    1.432   .     S
C418   N585    1.366   .     A
C418   H474    1.081   .     S
C418   C835    1.416   .     S
C419   H475    1.081   .     S
C419   N596    1.366   .     S
C420   H476    1.081   .     S
C420   C888    1.416   .     S
C420   N481    1.366   .     S
C421   N495    1.366   .     A
C421   H477    1.081   .     S
C422   N702    1.366   .     A
C422   H478    1.081   .     S
C422   C839    1.416   .     S
C423   H479    1.081   .     S
C423   N703    1.366   .     S
C424   H480    1.081   .     S
C424   C837    1.416   .     S
C424   N494    1.366   .     S
C425   C452    1.452   .     S
C425   C436    1.386   .     A
C425   C444    1.402   .     A
C426   C443    1.402   .     A
C426   C453    1.452   .     S
C426   C437    1.386   .     A
C427   C434    1.386   .     A
C427   C454    1.452   .     S
C427   C443    1.402   .     A
C428   C445    1.432   .     S
C428   O509    1.284   .     A
C428   O510    1.283   .     A
C429   C444    1.402   .     A
C429   C435    1.386   .     A
C429   C455    1.452   .     S
C430   C456    1.457   .     S
C430   C446    1.411   .     A
C430   C441    1.383   .     A
C431   C445    1.411   .     A
C431   C457    1.457   .     S
C431   C442    1.383   .     A
C432   C445    1.412   .     A
C432   C458    1.458   .     S
C432   C438    1.383   .     A
C433   C446    1.412   .     A
C433   C440    1.383   .     A
C433   C459    1.458   .     S
C434   C460    1.452   .     S
C434   C448    1.402   .     A
C435   C447    1.402   .     A
C435   C462    1.452   .     S
C436   C463    1.452   .     S
C436   C447    1.402   .     A
C437   C464    1.452   .     S
C437   C448    1.402   .     A
C438   C451    1.411   .     A
C438   C465    1.457   .     S
C439   O515    1.282   .     A
C439   O512    1.274   .     A
C439   C444    1.413   .     S
C440   C466    1.457   .     S
C440   C449    1.411   .     A
C441   C467    1.458   .     S
C441   C449    1.412   .     A
C442   C468    1.458   .     S
C442   C451    1.412   .     A
C443   C450    1.413   .     S
C447   C471    1.413   .     S
C448   C470    1.413   .     S
C449   C469    1.432   .     S
C450   O513    1.274   .     A
C450   O514    1.282   .     A
C451   C461    1.432   .     S
C452   N496    1.157   .     T
C453   N497    1.157   .     T
C454   N602    1.157   1_455 S
C455   N603    1.157   .     S
C456   N500    1.157   .     T
C457   N482    1.157   .     T
C458   N483    1.158   .     T
C459   N484    1.158   .     T
C460   N693    1.157   .     S
C461   O504    1.283   .     A
C461   O516    1.284   .     A
C462   N694    1.157   1_545 S
C463   N487    1.157   .     T
C464   N488    1.157   .     T
C465   N489    1.157   .     T
C466   N490    1.157   .     T
C467   N491    1.158   .     T
C468   N493    1.158   .     T
C469   O502    1.284   .     A
C469   O503    1.283   .     A
C470   O505    1.274   .     A
C470   O508    1.282   .     A
C471   O506    1.274   .     A
C471   O507    1.282   .     A
C472   N492    1.366   .     A
C472   H473    1.081   .     S
N481   Zn517   2.010   .     S
N481   C522    1.366   1_455 A
N485   C668    1.157   1_545 S
N486   C670    1.157   .     S
N492   Zn518   2.010   .     S
N492   C523    1.366   1_455 S
N494   C630    1.366   1_545 A
N494   Zn519   2.010   .     S
N495   C631    1.366   1_545 S
N495   Zn520   2.010   .     S
N498   C558    1.157   .     S
N499   C559    1.157   1_455 S
O501   Zn517   2.015   .     S
O502   Zn520   2.015   .     S
O503   Zn519   2.013   .     S
O504   Zn728   2.013   .     S
O505   Zn728   1.990   .     S
O506   Zn519   1.990   .     S
O507   Zn520   1.992   .     S
O508   Zn727   1.992   .     S
O509   Zn622   2.015   .     S
O510   Zn621   2.013   .     S
O511   Zn518   2.013   .     S
O512   Zn622   1.990   .     S
O513   Zn517   1.990   .     S
O514   Zn518   1.992   .     S
O515   Zn621   1.992   .     S
O516   Zn727   2.015   .     S
Zn517  O614    2.013   1_455 S
Zn517  O619    1.992   1_455 S
Zn518  O616    1.990   1_455 S
Zn518  O613    2.015   1_455 S
Zn519  O716    1.992   1_545 S
Zn519  O724    2.015   1_545 S
Zn520  O712    2.013   1_545 S
Zn520  O713    1.990   1_545 S
C521   O615    1.283   .     A
C521   O605    1.284   .     A
C521   C550    1.432   .     S
C522   N481    1.366   1_655 A
C522   H578    1.081   .     S
C522   C939    1.416   .     S
C523   H579    1.081   .     S
C523   N492    1.366   1_655 S
C524   H580    1.081   .     S
C524   C992    1.416   .     S
C524   N585    1.366   .     S
C525   N599    1.366   .     A
C525   H581    1.081   .     S
C526   N806    1.366   .     A
C526   H582    1.081   .     S
C526   C943    1.416   .     S
C527   H583    1.081   .     S
C527   N807    1.366   .     S
C528   H584    1.081   .     S
C528   C941    1.416   .     S
C528   N598    1.366   .     S
C529   C556    1.452   .     S
C529   C540    1.386   .     A
C529   C548    1.402   .     A
C530   C547    1.402   .     A
C530   C557    1.452   .     S
C530   C541    1.386   .     A
C531   C538    1.386   .     A
C531   C558    1.452   .     S
C531   C547    1.402   .     A
C532   C549    1.432   .     S
C532   O613    1.284   .     A
C532   O614    1.283   .     A
C533   C548    1.402   .     A
C533   C539    1.386   .     A
C533   C559    1.452   .     S
C534   C560    1.457   .     S
C534   C550    1.411   .     A
C534   C545    1.383   .     A
C535   C549    1.411   .     A
C535   C561    1.457   .     S
C535   C546    1.383   .     A
C536   C549    1.412   .     A
C536   C562    1.458   .     S
C536   C542    1.383   .     A
C537   C550    1.412   .     A
C537   C544    1.383   .     A
C537   C563    1.458   .     S
C538   C564    1.452   .     S
C538   C552    1.402   .     A
C539   C551    1.402   .     A
C539   C566    1.452   .     S
C540   C567    1.452   .     S
C540   C551    1.402   .     A
C541   C568    1.452   .     S
C541   C552    1.402   .     A
C542   C555    1.411   .     A
C542   C569    1.457   .     S
C543   O619    1.282   .     A
C543   O616    1.274   .     A
C543   C548    1.413   .     S
C544   C570    1.457   .     S
C544   C553    1.411   .     A
C545   C571    1.458   .     S
C545   C553    1.412   .     A
C546   C572    1.458   .     S
C546   C555    1.412   .     A
C547   C554    1.413   .     S
C551   C575    1.413   .     S
C552   C574    1.413   .     S
C553   C573    1.432   .     S
C554   O617    1.274   .     A
C554   O618    1.282   .     A
C555   C565    1.432   .     S
C556   N600    1.157   .     T
C557   N601    1.157   .     T
C559   N499    1.157   1_655 S
C560   N604    1.157   .     T
C561   N586    1.157   .     T
C562   N587    1.158   .     T
C563   N588    1.158   .     T
C564   N797    1.157   .     S
C565   O608    1.283   .     A
C565   O620    1.284   .     A
C566   N798    1.157   1_545 S
C567   N591    1.157   .     T
C568   N592    1.157   .     T
C569   N593    1.157   .     T
C570   N594    1.157   .     T
C571   N595    1.158   .     T
C572   N597    1.158   .     T
C573   O606    1.284   .     A
C573   O607    1.283   .     A
C574   O609    1.274   .     A
C574   O612    1.282   .     A
C575   O610    1.274   .     A
C575   O611    1.282   .     A
C576   N596    1.366   .     A
C576   H577    1.081   .     S
N585   Zn621   2.010   .     S
N589   C772    1.157   1_545 S
N590   C774    1.157   .     S
N596   Zn622   2.010   .     S
N598   C734    1.366   1_545 A
N598   Zn623   2.010   .     S
N599   C735    1.366   1_545 S
N599   Zn624   2.010   .     S
N602   C454    1.157   1_655 S
O605   Zn621   2.015   .     S
O606   Zn624   2.015   .     S
O607   Zn623   2.013   .     S
O608   Zn832   2.013   .     S
O609   Zn832   1.990   .     S
O610   Zn623   1.990   .     S
O611   Zn624   1.992   .     S
O612   Zn831   1.992   .     S
O613   Zn518   2.015   1_655 S
O614   Zn517   2.013   1_655 S
O615   Zn622   2.013   .     S
O616   Zn518   1.990   1_655 S
O617   Zn621   1.990   .     S
O618   Zn622   1.992   .     S
O619   Zn517   1.992   1_655 S
O620   Zn831   2.015   .     S
Zn623  O820    1.992   1_545 S
Zn623  O828    2.015   1_545 S
Zn624  O816    2.013   1_545 S
Zn624  O817    1.990   1_545 S
C625   O719    1.283   .     A
C625   O709    1.284   .     A
C625   C654    1.432   .     S
C626   N793    1.366   .     A
C626   H682    1.081   .     S
C626   C1043   1.416   .     S
C627   H683    1.081   .     S
C627   N804    1.366   .     S
C628   H684    1.081   .     S
C628   C1096   1.416   .     S
C628   N689    1.366   .     S
C629   N703    1.366   .     A
C629   H685    1.081   .     S
C630   N494    1.366   1_565 A
C630   H686    1.081   .     S
C630   C1047   1.416   .     S
C631   H687    1.081   .     S
C631   N495    1.366   1_565 S
C632   H688    1.081   .     S
C632   C1045   1.416   .     S
C632   N702    1.366   .     S
C633   C660    1.452   .     S
C633   C644    1.386   .     A
C633   C652    1.402   .     A
C634   C651    1.402   .     A
C634   C661    1.452   .     S
C634   C645    1.386   .     A
C635   C642    1.386   .     A
C635   C662    1.452   .     S
C635   C651    1.402   .     A
C636   C653    1.432   .     S
C636   O717    1.284   .     A
C636   O718    1.283   .     A
C637   C652    1.402   .     A
C637   C643    1.386   .     A
C637   C663    1.452   .     S
C638   C664    1.457   .     S
C638   C654    1.411   .     A
C638   C649    1.383   .     A
C639   C653    1.411   .     A
C639   C665    1.457   .     S
C639   C650    1.383   .     A
C640   C653    1.412   .     A
C640   C666    1.458   .     S
C640   C646    1.383   .     A
C641   C654    1.412   .     A
C641   C648    1.383   .     A
C641   C667    1.458   .     S
C642   C668    1.452   .     S
C642   C656    1.402   .     A
C643   C655    1.402   .     A
C643   C670    1.452   .     S
C644   C671    1.452   .     S
C644   C655    1.402   .     A
C645   C672    1.452   .     S
C645   C656    1.402   .     A
C646   C659    1.411   .     A
C646   C673    1.457   .     S
C647   O723    1.282   .     A
C647   O720    1.274   .     A
C647   C652    1.413   .     S
C648   C674    1.457   .     S
C648   C657    1.411   .     A
C649   C675    1.458   .     S
C649   C657    1.412   .     A
C650   C676    1.458   .     S
C650   C659    1.412   .     A
C651   C658    1.413   .     S
C655   C679    1.413   .     S
C656   C678    1.413   .     S
C657   C677    1.432   .     S
C658   O721    1.274   .     A
C658   O722    1.282   .     A
C659   C669    1.432   .     S
C660   N704    1.157   .     T
C661   N705    1.157   .     T
C662   N810    1.157   1_455 S
C663   N811    1.157   .     S
C664   N708    1.157   .     T
C665   N690    1.157   .     T
C666   N691    1.158   .     T
C667   N692    1.158   .     T
C668   N485    1.157   1_565 S
C669   O712    1.283   .     A
C669   O724    1.284   .     A
C671   N695    1.157   .     T
C672   N696    1.157   .     T
C673   N697    1.157   .     T
C674   N698    1.157   .     T
C675   N699    1.158   .     T
C676   N701    1.158   .     T
C677   O710    1.284   .     A
C677   O711    1.283   .     A
C678   O713    1.274   .     A
C678   O716    1.282   .     A
C679   O714    1.274   .     A
C679   O715    1.282   .     A
C680   N700    1.366   .     A
C680   H681    1.081   .     S
N689   Zn725   2.010   .     S
N689   C730    1.366   1_455 A
N694   C462    1.157   1_565 S
N700   Zn726   2.010   .     S
N700   C731    1.366   1_455 S
N702   Zn727   2.010   .     S
N703   Zn728   2.010   .     S
N706   C766    1.157   .     S
N707   C767    1.157   1_455 S
O709   Zn725   2.015   .     S
O710   Zn728   2.015   .     S
O711   Zn727   2.013   .     S
O712   Zn520   2.013   1_565 S
O713   Zn520   1.990   1_565 S
O714   Zn727   1.990   .     S
O715   Zn728   1.992   .     S
O716   Zn519   1.992   1_565 S
O717   Zn830   2.015   .     S
O718   Zn829   2.013   .     S
O719   Zn726   2.013   .     S
O720   Zn830   1.990   .     S
O721   Zn725   1.990   .     S
O722   Zn726   1.992   .     S
O723   Zn829   1.992   .     S
O724   Zn519   2.015   1_565 S
Zn725  O822    2.013   1_455 S
Zn725  O827    1.992   1_455 S
Zn726  O824    1.990   1_455 S
Zn726  O821    2.015   1_455 S
C729   O823    1.283   .     A
C729   O813    1.284   .     A
C729   C758    1.432   .     S
C730   N689    1.366   1_655 A
C730   H786    1.081   .     S
C730   C1147   1.416   .     S
C731   H787    1.081   .     S
C731   N700    1.366   1_655 S
C732   H788    1.081   .     S
C732   C1200   1.416   .     S
C732   N793    1.366   .     S
C733   N807    1.366   .     A
C733   H789    1.081   .     S
C734   N598    1.366   1_565 A
C734   H790    1.081   .     S
C734   C1151   1.416   .     S
C735   H791    1.081   .     S
C735   N599    1.366   1_565 S
C736   H792    1.081   .     S
C736   C1149   1.416   .     S
C736   N806    1.366   .     S
C737   C764    1.452   .     S
C737   C748    1.386   .     A
C737   C756    1.402   .     A
C738   C755    1.402   .     A
C738   C765    1.452   .     S
C738   C749    1.386   .     A
C739   C746    1.386   .     A
C739   C766    1.452   .     S
C739   C755    1.402   .     A
C740   C757    1.432   .     S
C740   O821    1.284   .     A
C740   O822    1.283   .     A
C741   C756    1.402   .     A
C741   C747    1.386   .     A
C741   C767    1.452   .     S
C742   C768    1.457   .     S
C742   C758    1.411   .     A
C742   C753    1.383   .     A
C743   C757    1.411   .     A
C743   C769    1.457   .     S
C743   C754    1.383   .     A
C744   C757    1.412   .     A
C744   C770    1.458   .     S
C744   C750    1.383   .     A
C745   C758    1.412   .     A
C745   C752    1.383   .     A
C745   C771    1.458   .     S
C746   C772    1.452   .     S
C746   C760    1.402   .     A
C747   C759    1.402   .     A
C747   C774    1.452   .     S
C748   C775    1.452   .     S
C748   C759    1.402   .     A
C749   C776    1.452   .     S
C749   C760    1.402   .     A
C750   C763    1.411   .     A
C750   C777    1.457   .     S
C751   O827    1.282   .     A
C751   O824    1.274   .     A
C751   C756    1.413   .     S
C752   C778    1.457   .     S
C752   C761    1.411   .     A
C753   C779    1.458   .     S
C753   C761    1.412   .     A
C754   C780    1.458   .     S
C754   C763    1.412   .     A
C755   C762    1.413   .     S
C759   C783    1.413   .     S
C760   C782    1.413   .     S
C761   C781    1.432   .     S
C762   O825    1.274   .     A
C762   O826    1.282   .     A
C763   C773    1.432   .     S
C764   N808    1.157   .     T
C765   N809    1.157   .     T
C767   N707    1.157   1_655 S
C768   N812    1.157   .     T
C769   N794    1.157   .     T
C770   N795    1.158   .     T
C771   N796    1.158   .     T
C772   N589    1.157   1_565 S
C773   O816    1.283   .     A
C773   O828    1.284   .     A
C775   N799    1.157   .     T
C776   N800    1.157   .     T
C777   N801    1.157   .     T
C778   N802    1.157   .     T
C779   N803    1.158   .     T
C780   N805    1.158   .     T
C781   O814    1.284   .     A
C781   O815    1.283   .     A
C782   O817    1.274   .     A
C782   O820    1.282   .     A
C783   O818    1.274   .     A
C783   O819    1.282   .     A
C784   N804    1.366   .     A
C784   H785    1.081   .     S
N793   Zn829   2.010   .     S
N798   C566    1.157   1_565 S
N804   Zn830   2.010   .     S
N806   Zn831   2.010   .     S
N807   Zn832   2.010   .     S
N810   C662    1.157   1_655 S
O813   Zn829   2.015   .     S
O814   Zn832   2.015   .     S
O815   Zn831   2.013   .     S
O816   Zn624   2.013   1_565 S
O817   Zn624   1.990   1_565 S
O818   Zn831   1.990   .     S
O819   Zn832   1.992   .     S
O820   Zn623   1.992   1_565 S
O821   Zn726   2.015   1_655 S
O822   Zn725   2.013   1_655 S
O823   Zn830   2.013   .     S
O824   Zn726   1.990   1_655 S
O825   Zn829   1.990   .     S
O826   Zn830   1.992   .     S
O827   Zn725   1.992   1_655 S
O828   Zn623   2.015   1_565 S
C833   O927    1.283   .     A
C833   O917    1.284   .     A
C833   C862    1.432   .     S
C834   N1001   1.366   .     A
C834   H890    1.081   .     S
C834   C3      1.416   1_556 S
C835   H891    1.081   .     S
C835   N1012   1.366   .     S
C836   H892    1.081   .     S
C836   C56     1.416   1_556 S
C836   N897    1.366   .     S
C837   N911    1.366   .     A
C837   H893    1.081   .     S
C838   N1118   1.366   .     A
C838   H894    1.081   .     S
C838   C7      1.416   1_556 S
C839   H895    1.081   .     S
C839   N1119   1.366   .     S
C840   H896    1.081   .     S
C840   C5      1.416   1_556 S
C840   N910    1.366   .     S
C841   C868    1.452   .     S
C841   C852    1.386   .     A
C841   C860    1.402   .     A
C842   C859    1.402   .     A
C842   C869    1.452   .     S
C842   C853    1.386   .     A
C843   C850    1.386   .     A
C843   C870    1.452   .     S
C843   C859    1.402   .     A
C844   C861    1.432   .     S
C844   O925    1.284   .     A
C844   O926    1.283   .     A
C845   C860    1.402   .     A
C845   C851    1.386   .     A
C845   C871    1.452   .     S
C846   C872    1.457   .     S
C846   C862    1.411   .     A
C846   C857    1.383   .     A
C847   C861    1.411   .     A
C847   C873    1.457   .     S
C847   C858    1.383   .     A
C848   C861    1.412   .     A
C848   C874    1.458   .     S
C848   C854    1.383   .     A
C849   C862    1.412   .     A
C849   C856    1.383   .     A
C849   C875    1.458   .     S
C850   C876    1.452   .     S
C850   C864    1.402   .     A
C851   C863    1.402   .     A
C851   C878    1.452   .     S
C852   C879    1.452   .     S
C852   C863    1.402   .     A
C853   C880    1.452   .     S
C853   C864    1.402   .     A
C854   C867    1.411   .     A
C854   C881    1.457   .     S
C855   O931    1.282   .     A
C855   O928    1.274   .     A
C855   C860    1.413   .     S
C856   C882    1.457   .     S
C856   C865    1.411   .     A
C857   C883    1.458   .     S
C857   C865    1.412   .     A
C858   C884    1.458   .     S
C858   C867    1.412   .     A
C859   C866    1.413   .     S
C863   C887    1.413   .     S
C864   C886    1.413   .     S
C865   C885    1.432   .     S
C866   O929    1.274   .     A
C866   O930    1.282   .     A
C867   C877    1.432   .     S
C868   N912    1.157   .     T
C869   N913    1.157   .     T
C870   N1018   1.157   1_455 S
C871   N1019   1.157   .     S
C872   N916    1.157   .     T
C873   N898    1.157   .     T
C874   N899    1.158   .     T
C875   N900    1.158   .     T
C876   N1109   1.157   .     S
C877   O920    1.283   .     A
C877   O932    1.284   .     A
C878   N1110   1.157   1_545 S
C879   N903    1.157   .     T
C880   N904    1.157   .     T
C881   N905    1.157   .     T
C882   N906    1.157   .     T
C883   N907    1.158   .     T
C884   N909    1.158   .     T
C885   O918    1.284   .     A
C885   O919    1.283   .     A
C886   O921    1.274   .     A
C886   O924    1.282   .     A
C887   O922    1.274   .     A
C887   O923    1.282   .     A
C888   N908    1.366   .     A
C888   H889    1.081   .     S
N897   Zn933   2.010   .     S
N897   C938    1.366   1_455 A
N901   C1084   1.157   1_545 S
N902   C1086   1.157   .     S
N908   Zn934   2.010   .     S
N908   C939    1.366   1_455 S
N910   C1046   1.366   1_545 A
N910   Zn935   2.010   .     S
N911   C1047   1.366   1_545 S
N911   Zn936   2.010   .     S
N914   C974    1.157   .     S
N915   C975    1.157   1_455 S
O917   Zn933   2.015   .     S
O918   Zn936   2.015   .     S
O919   Zn935   2.013   .     S
O920   Zn1144  2.013   .     S
O921   Zn1144  1.990   .     S
O922   Zn935   1.990   .     S
O923   Zn936   1.992   .     S
O924   Zn1143  1.992   .     S
O925   Zn1038  2.015   .     S
O926   Zn1037  2.013   .     S
O927   Zn934   2.013   .     S
O928   Zn1038  1.990   .     S
O929   Zn933   1.990   .     S
O930   Zn934   1.992   .     S
O931   Zn1037  1.992   .     S
O932   Zn1143  2.015   .     S
Zn933  O1030   2.013   1_455 S
Zn933  O1035   1.992   1_455 S
Zn934  O1032   1.990   1_455 S
Zn934  O1029   2.015   1_455 S
Zn935  O1132   1.992   1_545 S
Zn935  O1140   2.015   1_545 S
Zn936  O1128   2.013   1_545 S
Zn936  O1129   1.990   1_545 S
C937   O1031   1.283   .     A
C937   O1021   1.284   .     A
C937   C966    1.432   .     S
C938   N897    1.366   1_655 A
C938   H994    1.081   .     S
C938   C107    1.416   1_556 S
C939   H995    1.081   .     S
C939   N908    1.366   1_655 S
C940   H996    1.081   .     S
C940   C160    1.416   1_556 S
C940   N1001   1.366   .     S
C941   N1015   1.366   .     A
C941   H997    1.081   .     S
C942   N1222   1.366   .     A
C942   H998    1.081   .     S
C942   C111    1.416   1_556 S
C943   H999    1.081   .     S
C943   N1223   1.366   .     S
C944   H1000   1.081   .     S
C944   C109    1.416   1_556 S
C944   N1014   1.366   .     S
C945   C972    1.452   .     S
C945   C956    1.386   .     A
C945   C964    1.402   .     A
C946   C963    1.402   .     A
C946   C973    1.452   .     S
C946   C957    1.386   .     A
C947   C954    1.386   .     A
C947   C974    1.452   .     S
C947   C963    1.402   .     A
C948   C965    1.432   .     S
C948   O1029   1.284   .     A
C948   O1030   1.283   .     A
C949   C964    1.402   .     A
C949   C955    1.386   .     A
C949   C975    1.452   .     S
C950   C976    1.457   .     S
C950   C966    1.411   .     A
C950   C961    1.383   .     A
C951   C965    1.411   .     A
C951   C977    1.457   .     S
C951   C962    1.383   .     A
C952   C965    1.412   .     A
C952   C978    1.458   .     S
C952   C958    1.383   .     A
C953   C966    1.412   .     A
C953   C960    1.383   .     A
C953   C979    1.458   .     S
C954   C980    1.452   .     S
C954   C968    1.402   .     A
C955   C967    1.402   .     A
C955   C982    1.452   .     S
C956   C983    1.452   .     S
C956   C967    1.402   .     A
C957   C984    1.452   .     S
C957   C968    1.402   .     A
C958   C971    1.411   .     A
C958   C985    1.457   .     S
C959   O1035   1.282   .     A
C959   O1032   1.274   .     A
C959   C964    1.413   .     S
C960   C986    1.457   .     S
C960   C969    1.411   .     A
C961   C987    1.458   .     S
C961   C969    1.412   .     A
C962   C988    1.458   .     S
C962   C971    1.412   .     A
C963   C970    1.413   .     S
C967   C991    1.413   .     S
C968   C990    1.413   .     S
C969   C989    1.432   .     S
C970   O1033   1.274   .     A
C970   O1034   1.282   .     A
C971   C981    1.432   .     S
C972   N1016   1.157   .     T
C973   N1017   1.157   .     T
C975   N915    1.157   1_655 S
C976   N1020   1.157   .     T
C977   N1002   1.157   .     T
C978   N1003   1.158   .     T
C979   N1004   1.158   .     T
C980   N1213   1.157   .     S
C981   O1024   1.283   .     A
C981   O1036   1.284   .     A
C982   N1214   1.157   1_545 S
C983   N1007   1.157   .     T
C984   N1008   1.157   .     T
C985   N1009   1.157   .     T
C986   N1010   1.157   .     T
C987   N1011   1.158   .     T
C988   N1013   1.158   .     T
C989   O1022   1.284   .     A
C989   O1023   1.283   .     A
C990   O1025   1.274   .     A
C990   O1028   1.282   .     A
C991   O1026   1.274   .     A
C991   O1027   1.282   .     A
C992   N1012   1.366   .     A
C992   H993    1.081   .     S
N1001  Zn1037  2.010   .     S
N1005  C1188   1.157   1_545 S
N1006  C1190   1.157   .     S
N1012  Zn1038  2.010   .     S
N1014  C1150   1.366   1_545 A
N1014  Zn1039  2.010   .     S
N1015  C1151   1.366   1_545 S
N1015  Zn1040  2.010   .     S
N1018  C870    1.157   1_655 S
O1021  Zn1037  2.015   .     S
O1022  Zn1040  2.015   .     S
O1023  Zn1039  2.013   .     S
O1024  Zn1248  2.013   .     S
O1025  Zn1248  1.990   .     S
O1026  Zn1039  1.990   .     S
O1027  Zn1040  1.992   .     S
O1028  Zn1247  1.992   .     S
O1029  Zn934   2.015   1_655 S
O1030  Zn933   2.013   1_655 S
O1031  Zn1038  2.013   .     S
O1032  Zn934   1.990   1_655 S
O1033  Zn1037  1.990   .     S
O1034  Zn1038  1.992   .     S
O1035  Zn933   1.992   1_655 S
O1036  Zn1247  2.015   .     S
Zn1039 O1236   1.992   1_545 S
Zn1039 O1244   2.015   1_545 S
Zn1040 O1232   2.013   1_545 S
Zn1040 O1233   1.990   1_545 S
C1041  O1135   1.283   .     A
C1041  O1125   1.284   .     A
C1041  C1070   1.432   .     S
C1042  N1209   1.366   .     A
C1042  H1098   1.081   .     S
C1042  C211    1.416   1_556 S
C1043  H1099   1.081   .     S
C1043  N1220   1.366   .     S
C1044  H1100   1.081   .     S
C1044  C264    1.416   1_556 S
C1044  N1105   1.366   .     S
C1045  N1119   1.366   .     A
C1045  H1101   1.081   .     S
C1046  N910    1.366   1_565 A
C1046  H1102   1.081   .     S
C1046  C215    1.416   1_556 S
C1047  H1103   1.081   .     S
C1047  N911    1.366   1_565 S
C1048  H1104   1.081   .     S
C1048  C213    1.416   1_556 S
C1048  N1118   1.366   .     S
C1049  C1076   1.452   .     S
C1049  C1060   1.386   .     A
C1049  C1068   1.402   .     A
C1050  C1067   1.402   .     A
C1050  C1077   1.452   .     S
C1050  C1061   1.386   .     A
C1051  C1058   1.386   .     A
C1051  C1078   1.452   .     S
C1051  C1067   1.402   .     A
C1052  C1069   1.432   .     S
C1052  O1133   1.284   .     A
C1052  O1134   1.283   .     A
C1053  C1068   1.402   .     A
C1053  C1059   1.386   .     A
C1053  C1079   1.452   .     S
C1054  C1080   1.457   .     S
C1054  C1070   1.411   .     A
C1054  C1065   1.383   .     A
C1055  C1069   1.411   .     A
C1055  C1081   1.457   .     S
C1055  C1066   1.383   .     A
C1056  C1069   1.412   .     A
C1056  C1082   1.458   .     S
C1056  C1062   1.383   .     A
C1057  C1070   1.412   .     A
C1057  C1064   1.383   .     A
C1057  C1083   1.458   .     S
C1058  C1084   1.452   .     S
C1058  C1072   1.402   .     A
C1059  C1071   1.402   .     A
C1059  C1086   1.452   .     S
C1060  C1087   1.452   .     S
C1060  C1071   1.402   .     A
C1061  C1088   1.452   .     S
C1061  C1072   1.402   .     A
C1062  C1075   1.411   .     A
C1062  C1089   1.457   .     S
C1063  O1139   1.282   .     A
C1063  O1136   1.274   .     A
C1063  C1068   1.413   .     S
C1064  C1090   1.457   .     S
C1064  C1073   1.411   .     A
C1065  C1091   1.458   .     S
C1065  C1073   1.412   .     A
C1066  C1092   1.458   .     S
C1066  C1075   1.412   .     A
C1067  C1074   1.413   .     S
C1071  C1095   1.413   .     S
C1072  C1094   1.413   .     S
C1073  C1093   1.432   .     S
C1074  O1137   1.274   .     A
C1074  O1138   1.282   .     A
C1075  C1085   1.432   .     S
C1076  N1120   1.157   .     T
C1077  N1121   1.157   .     T
C1078  N1226   1.157   1_455 S
C1079  N1227   1.157   .     S
C1080  N1124   1.157   .     T
C1081  N1106   1.157   .     T
C1082  N1107   1.158   .     T
C1083  N1108   1.158   .     T
C1084  N901    1.157   1_565 S
C1085  O1128   1.283   .     A
C1085  O1140   1.284   .     A
C1087  N1111   1.157   .     T
C1088  N1112   1.157   .     T
C1089  N1113   1.157   .     T
C1090  N1114   1.157   .     T
C1091  N1115   1.158   .     T
C1092  N1117   1.158   .     T
C1093  O1126   1.284   .     A
C1093  O1127   1.283   .     A
C1094  O1129   1.274   .     A
C1094  O1132   1.282   .     A
C1095  O1130   1.274   .     A
C1095  O1131   1.282   .     A
C1096  N1116   1.366   .     A
C1096  H1097   1.081   .     S
N1105  Zn1141  2.010   .     S
N1105  C1146   1.366   1_455 A
N1110  C878    1.157   1_565 S
N1116  Zn1142  2.010   .     S
N1116  C1147   1.366   1_455 S
N1118  Zn1143  2.010   .     S
N1119  Zn1144  2.010   .     S
N1122  C1182   1.157   .     S
N1123  C1183   1.157   1_455 S
O1125  Zn1141  2.015   .     S
O1126  Zn1144  2.015   .     S
O1127  Zn1143  2.013   .     S
O1128  Zn936   2.013   1_565 S
O1129  Zn936   1.990   1_565 S
O1130  Zn1143  1.990   .     S
O1131  Zn1144  1.992   .     S
O1132  Zn935   1.992   1_565 S
O1133  Zn1246  2.015   .     S
O1134  Zn1245  2.013   .     S
O1135  Zn1142  2.013   .     S
O1136  Zn1246  1.990   .     S
O1137  Zn1141  1.990   .     S
O1138  Zn1142  1.992   .     S
O1139  Zn1245  1.992   .     S
O1140  Zn935   2.015   1_565 S
Zn1141 O1238   2.013   1_455 S
Zn1141 O1243   1.992   1_455 S
Zn1142 O1240   1.990   1_455 S
Zn1142 O1237   2.015   1_455 S
C1145  O1239   1.283   .     A
C1145  O1229   1.284   .     A
C1145  C1174   1.432   .     S
C1146  N1105   1.366   1_655 A
C1146  H1202   1.081   .     S
C1146  C315    1.416   1_556 S
C1147  H1203   1.081   .     S
C1147  N1116   1.366   1_655 S
C1148  H1204   1.081   .     S
C1148  C368    1.416   1_556 S
C1148  N1209   1.366   .     S
C1149  N1223   1.366   .     A
C1149  H1205   1.081   .     S
C1150  N1014   1.366   1_565 A
C1150  H1206   1.081   .     S
C1150  C319    1.416   1_556 S
C1151  H1207   1.081   .     S
C1151  N1015   1.366   1_565 S
C1152  H1208   1.081   .     S
C1152  C317    1.416   1_556 S
C1152  N1222   1.366   .     S
C1153  C1180   1.452   .     S
C1153  C1164   1.386   .     A
C1153  C1172   1.402   .     A
C1154  C1171   1.402   .     A
C1154  C1181   1.452   .     S
C1154  C1165   1.386   .     A
C1155  C1162   1.386   .     A
C1155  C1182   1.452   .     S
C1155  C1171   1.402   .     A
C1156  C1173   1.432   .     S
C1156  O1237   1.284   .     A
C1156  O1238   1.283   .     A
C1157  C1172   1.402   .     A
C1157  C1163   1.386   .     A
C1157  C1183   1.452   .     S
C1158  C1184   1.457   .     S
C1158  C1174   1.411   .     A
C1158  C1169   1.383   .     A
C1159  C1173   1.411   .     A
C1159  C1185   1.457   .     S
C1159  C1170   1.383   .     A
C1160  C1173   1.412   .     A
C1160  C1186   1.458   .     S
C1160  C1166   1.383   .     A
C1161  C1174   1.412   .     A
C1161  C1168   1.383   .     A
C1161  C1187   1.458   .     S
C1162  C1188   1.452   .     S
C1162  C1176   1.402   .     A
C1163  C1175   1.402   .     A
C1163  C1190   1.452   .     S
C1164  C1191   1.452   .     S
C1164  C1175   1.402   .     A
C1165  C1192   1.452   .     S
C1165  C1176   1.402   .     A
C1166  C1179   1.411   .     A
C1166  C1193   1.457   .     S
C1167  O1243   1.282   .     A
C1167  O1240   1.274   .     A
C1167  C1172   1.413   .     S
C1168  C1194   1.457   .     S
C1168  C1177   1.411   .     A
C1169  C1195   1.458   .     S
C1169  C1177   1.412   .     A
C1170  C1196   1.458   .     S
C1170  C1179   1.412   .     A
C1171  C1178   1.413   .     S
C1175  C1199   1.413   .     S
C1176  C1198   1.413   .     S
C1177  C1197   1.432   .     S
C1178  O1241   1.274   .     A
C1178  O1242   1.282   .     A
C1179  C1189   1.432   .     S
C1180  N1224   1.157   .     T
C1181  N1225   1.157   .     T
C1183  N1123   1.157   1_655 S
C1184  N1228   1.157   .     T
C1185  N1210   1.157   .     T
C1186  N1211   1.158   .     T
C1187  N1212   1.158   .     T
C1188  N1005   1.157   1_565 S
C1189  O1232   1.283   .     A
C1189  O1244   1.284   .     A
C1191  N1215   1.157   .     T
C1192  N1216   1.157   .     T
C1193  N1217   1.157   .     T
C1194  N1218   1.157   .     T
C1195  N1219   1.158   .     T
C1196  N1221   1.158   .     T
C1197  O1230   1.284   .     A
C1197  O1231   1.283   .     A
C1198  O1233   1.274   .     A
C1198  O1236   1.282   .     A
C1199  O1234   1.274   .     A
C1199  O1235   1.282   .     A
C1200  N1220   1.366   .     A
C1200  H1201   1.081   .     S
N1209  Zn1245  2.010   .     S
N1214  C982    1.157   1_565 S
N1220  Zn1246  2.010   .     S
N1222  Zn1247  2.010   .     S
N1223  Zn1248  2.010   .     S
N1226  C1078   1.157   1_655 S
O1229  Zn1245  2.015   .     S
O1230  Zn1248  2.015   .     S
O1231  Zn1247  2.013   .     S
O1232  Zn1040  2.013   1_565 S
O1233  Zn1040  1.990   1_565 S
O1234  Zn1247  1.990   .     S
O1235  Zn1248  1.992   .     S
O1236  Zn1039  1.992   1_565 S
O1237  Zn1142  2.015   1_655 S
O1238  Zn1141  2.013   1_655 S
O1239  Zn1246  2.013   .     S
O1240  Zn1142  1.990   1_655 S
O1241  Zn1245  1.990   .     S
O1242  Zn1246  1.992   .     S
O1243  Zn1141  1.992   1_655 S
O1244  Zn1039  2.015   1_565 S
