data_str_m1_o10_o18_pcu_sym.97
_audit_creation_date              2020-01-03
_audit_creation_method            'Materials Studio'
_symmetry_space_group_name_H-M    'P1'
_symmetry_Int_Tables_number       1
_symmetry_cell_setting            triclinic
loop_
_symmetry_equiv_pos_as_xyz
  x,y,z
_cell_length_a                    32.5662
_cell_length_b                    32.5295
_cell_length_c                    35.7149
_cell_angle_alpha                 98.2457
_cell_angle_beta                  73.1499
_cell_angle_gamma                 98.5976
loop_
_atom_site_label
_atom_site_type_symbol
_atom_site_fract_x
_atom_site_fract_y
_atom_site_fract_z
_atom_site_U_iso_or_equiv
_atom_site_adp_type
_atom_site_occupancy
C1     C     0.05249   0.15990   0.25872   0.00000  Uiso   1.00
C2     C     0.18516   0.11690   0.46176   0.00000  Uiso   1.00
C3     C     0.20951   0.10151   0.48186   0.00000  Uiso   1.00
C4     C     0.28104   0.17356   0.24122   0.00000  Uiso   1.00
C5     C     0.20560   0.11447   0.02145   0.00000  Uiso   1.00
C6     C     0.17488   0.14202   0.04266   0.00000  Uiso   1.00
C7     C     0.23117   0.09868   0.04042   0.00000  Uiso   1.00
C8     C     0.22642   0.10964   0.08042   0.00000  Uiso   1.00
C9     C     0.17098   0.15285   0.08314   0.00000  Uiso   1.00
C10    C     0.32699   0.17621   0.23766   0.00000  Uiso   1.00
C11    C     0.00711   0.15746   0.26213   0.00000  Uiso   1.00
C12    C     0.09796   0.21466   0.42089   0.00000  Uiso   1.00
C13    C     0.18088   0.32215   0.23818   0.00000  Uiso   1.00
C14    C     0.15151   0.01206   0.26208   0.00000  Uiso   1.00
C15    C     0.15591   0.05610   0.25889   0.00000  Uiso   1.00
C16    C     0.17685   0.27766   0.24137   0.00000  Uiso   1.00
C17    C     0.18813   0.14522   0.14407   0.00000  Uiso   1.00
C18    C     0.14536   0.18765   0.35619   0.00000  Uiso   1.00
C19    C     0.13294   0.19294   0.39946   0.00000  Uiso   1.00
C20    C     0.19615   0.13648   0.10169   0.00000  Uiso   1.00
C21    C     0.08500   0.21697   0.46180   0.00000  Uiso   1.00
C22    C     0.14560   0.06890   0.42288   0.00000  Uiso   1.00
C23    C     0.15456   0.17357   0.41943   0.00000  Uiso   1.00
C24    C     0.13951   0.17205   0.46038   0.00000  Uiso   1.00
C25    C     0.10577   0.19626   0.48168   0.00000  Uiso   1.00
C26    C     0.15857   0.14912   0.48092   0.00000  Uiso   1.00
C27    C     0.14988   0.15820   0.02257   0.00000  Uiso   1.00
C28    C     0.11606   0.18267   0.04275   0.00000  Uiso   1.00
C29    C     0.09366   0.20025   0.02259   0.00000  Uiso   1.00
H30    H     0.06768   0.21844   0.03920   0.00000  Uiso   1.00
H31    H     0.05863   0.23487   0.47792   0.00000  Uiso   1.00
H32    H     0.08071   0.22994   0.40610   0.00000  Uiso   1.00
H33    H     0.18396   0.16091   0.40256   0.00000  Uiso   1.00
H34    H     0.10521   0.18802   0.07434   0.00000  Uiso   1.00
H35    H     0.21214   0.08289   0.40859   0.00000  Uiso   1.00
H36    H     0.14705   0.05623   0.39201   0.00000  Uiso   1.00
H37    H     0.11669   0.08600   0.43478   0.00000  Uiso   1.00
H38    H     0.14247   0.04242   0.44041   0.00000  Uiso   1.00
H39    H     0.25449   0.07741   0.02438   0.00000  Uiso   1.00
H40    H     0.01666   0.19347   0.21504   0.00000  Uiso   1.00
H41    H     0.31811   0.14016   0.28503   0.00000  Uiso   1.00
H42    H     0.20802   0.00278   0.21620   0.00000  Uiso   1.00
H43    H     0.12398   0.33220   0.28411   0.00000  Uiso   1.00
H44    H     0.14899   0.17415   0.10121   0.00000  Uiso   1.00
H45    H     0.24571   0.09663   0.09494   0.00000  Uiso   1.00
H46    H     0.23066   0.07800   0.46663   0.00000  Uiso   1.00
N47    N     0.18457   0.09653   0.42378   0.00000  Uiso   1.00
O48    O     0.16667   0.16667   0.25000   0.00000  Uiso   1.00
O49    O     0.15693   0.12393   0.16625   0.00000  Uiso   1.00
O50    O     0.12687   0.20646   0.33749   0.00000  Uiso   1.00
O51    O     0.21088   0.17493   0.15877   0.00000  Uiso   1.00
O52    O     0.17198   0.16135   0.33749   0.00000  Uiso   1.00
O53    O     0.17849   0.08101   0.27820   0.00000  Uiso   1.00
O54    O     0.14581   0.26136   0.26767   0.00000  Uiso   1.00
O55    O     0.07452   0.13251   0.23607   0.00000  Uiso   1.00
O56    O     0.26785   0.19179   0.21806   0.00000  Uiso   1.00
O57    O     0.06990   0.18960   0.27820   0.00000  Uiso   1.00
O58    O     0.25440   0.15277   0.26767   0.00000  Uiso   1.00
O59    O     0.13800   0.06903   0.23607   0.00000  Uiso   1.00
O60    O     0.20437   0.25527   0.21806   0.00000  Uiso   1.00
Zn61   Zn    0.19244   0.14090   0.28277   0.00000  Uiso   1.00
Zn62   Zn    0.13459   0.12378   0.22257   0.00000  Uiso   1.00
Zn63   Zn    0.21166   0.19664   0.21188   0.00000  Uiso   1.00
Zn64   Zn    0.12798   0.20535   0.28277   0.00000  Uiso   1.00
C65    C     0.38582   0.15990   0.25872   0.00000  Uiso   1.00
C66    C     0.51849   0.11690   0.46176   0.00000  Uiso   1.00
C67    C     0.54284   0.10151   0.48186   0.00000  Uiso   1.00
C68    C     0.61437   0.17356   0.24122   0.00000  Uiso   1.00
C69    C     0.53894   0.11447   0.02145   0.00000  Uiso   1.00
C70    C     0.50821   0.14202   0.04266   0.00000  Uiso   1.00
C71    C     0.56451   0.09868   0.04042   0.00000  Uiso   1.00
C72    C     0.55975   0.10964   0.08042   0.00000  Uiso   1.00
C73    C     0.50431   0.15285   0.08314   0.00000  Uiso   1.00
C74    C     0.66033   0.17621   0.23766   0.00000  Uiso   1.00
C75    C     0.34045   0.15746   0.26213   0.00000  Uiso   1.00
C76    C     0.43129   0.21466   0.42089   0.00000  Uiso   1.00
C77    C     0.51422   0.32215   0.23818   0.00000  Uiso   1.00
C78    C     0.48485   0.01206   0.26208   0.00000  Uiso   1.00
C79    C     0.48924   0.05610   0.25889   0.00000  Uiso   1.00
C80    C     0.51018   0.27766   0.24137   0.00000  Uiso   1.00
C81    C     0.52146   0.14522   0.14407   0.00000  Uiso   1.00
C82    C     0.47870   0.18765   0.35619   0.00000  Uiso   1.00
C83    C     0.46627   0.19294   0.39946   0.00000  Uiso   1.00
C84    C     0.52948   0.13648   0.10169   0.00000  Uiso   1.00
C85    C     0.41833   0.21697   0.46180   0.00000  Uiso   1.00
C86    C     0.47894   0.06890   0.42288   0.00000  Uiso   1.00
C87    C     0.48790   0.17357   0.41943   0.00000  Uiso   1.00
C88    C     0.47284   0.17205   0.46038   0.00000  Uiso   1.00
C89    C     0.43910   0.19626   0.48168   0.00000  Uiso   1.00
C90    C     0.49190   0.14912   0.48092   0.00000  Uiso   1.00
C91    C     0.48321   0.15820   0.02257   0.00000  Uiso   1.00
C92    C     0.44939   0.18267   0.04275   0.00000  Uiso   1.00
C93    C     0.42699   0.20025   0.02259   0.00000  Uiso   1.00
H94    H     0.40102   0.21844   0.03920   0.00000  Uiso   1.00
H95    H     0.39196   0.23487   0.47792   0.00000  Uiso   1.00
H96    H     0.41404   0.22994   0.40610   0.00000  Uiso   1.00
H97    H     0.51729   0.16091   0.40256   0.00000  Uiso   1.00
H98    H     0.43854   0.18802   0.07434   0.00000  Uiso   1.00
H99    H     0.54548   0.08289   0.40859   0.00000  Uiso   1.00
H100   H     0.48039   0.05623   0.39201   0.00000  Uiso   1.00
H101   H     0.45003   0.08600   0.43478   0.00000  Uiso   1.00
H102   H     0.47580   0.04242   0.44041   0.00000  Uiso   1.00
H103   H     0.58782   0.07741   0.02438   0.00000  Uiso   1.00
H104   H     0.34999   0.19347   0.21504   0.00000  Uiso   1.00
H105   H     0.65144   0.14016   0.28503   0.00000  Uiso   1.00
H106   H     0.54135   0.00278   0.21620   0.00000  Uiso   1.00
H107   H     0.45731   0.33220   0.28411   0.00000  Uiso   1.00
H108   H     0.48233   0.17415   0.10121   0.00000  Uiso   1.00
H109   H     0.57904   0.09663   0.09494   0.00000  Uiso   1.00
H110   H     0.56400   0.07800   0.46663   0.00000  Uiso   1.00
N111   N     0.51791   0.09653   0.42378   0.00000  Uiso   1.00
O112   O     0.50000   0.16667   0.25000   0.00000  Uiso   1.00
O113   O     0.49027   0.12393   0.16625   0.00000  Uiso   1.00
O114   O     0.46020   0.20646   0.33749   0.00000  Uiso   1.00
O115   O     0.54421   0.17493   0.15877   0.00000  Uiso   1.00
O116   O     0.50532   0.16135   0.33749   0.00000  Uiso   1.00
O117   O     0.51182   0.08101   0.27820   0.00000  Uiso   1.00
O118   O     0.47914   0.26136   0.26767   0.00000  Uiso   1.00
O119   O     0.40785   0.13251   0.23607   0.00000  Uiso   1.00
O120   O     0.60119   0.19179   0.21806   0.00000  Uiso   1.00
O121   O     0.40323   0.18960   0.27820   0.00000  Uiso   1.00
O122   O     0.58773   0.15277   0.26767   0.00000  Uiso   1.00
O123   O     0.47133   0.06903   0.23607   0.00000  Uiso   1.00
O124   O     0.53771   0.25527   0.21806   0.00000  Uiso   1.00
Zn125  Zn    0.52577   0.14090   0.28277   0.00000  Uiso   1.00
Zn126  Zn    0.46792   0.12378   0.22257   0.00000  Uiso   1.00
Zn127  Zn    0.54500   0.19664   0.21188   0.00000  Uiso   1.00
Zn128  Zn    0.46131   0.20535   0.28277   0.00000  Uiso   1.00
C129   C     0.71915   0.15990   0.25872   0.00000  Uiso   1.00
C130   C     0.85182   0.11690   0.46176   0.00000  Uiso   1.00
C131   C     0.87617   0.10151   0.48186   0.00000  Uiso   1.00
C132   C     0.94770   0.17356   0.24122   0.00000  Uiso   1.00
C133   C     0.87227   0.11447   0.02145   0.00000  Uiso   1.00
C134   C     0.84154   0.14202   0.04266   0.00000  Uiso   1.00
C135   C     0.89784   0.09868   0.04042   0.00000  Uiso   1.00
C136   C     0.89308   0.10964   0.08042   0.00000  Uiso   1.00
C137   C     0.83764   0.15285   0.08314   0.00000  Uiso   1.00
C138   C     0.99366   0.17621   0.23766   0.00000  Uiso   1.00
C139   C     0.67378   0.15746   0.26213   0.00000  Uiso   1.00
C140   C     0.76463   0.21466   0.42089   0.00000  Uiso   1.00
C141   C     0.84755   0.32215   0.23818   0.00000  Uiso   1.00
C142   C     0.81818   0.01206   0.26208   0.00000  Uiso   1.00
C143   C     0.82257   0.05610   0.25889   0.00000  Uiso   1.00
C144   C     0.84351   0.27766   0.24137   0.00000  Uiso   1.00
C145   C     0.85479   0.14522   0.14407   0.00000  Uiso   1.00
C146   C     0.81203   0.18765   0.35619   0.00000  Uiso   1.00
C147   C     0.79960   0.19294   0.39946   0.00000  Uiso   1.00
C148   C     0.86282   0.13648   0.10169   0.00000  Uiso   1.00
C149   C     0.75166   0.21697   0.46180   0.00000  Uiso   1.00
C150   C     0.81227   0.06890   0.42288   0.00000  Uiso   1.00
C151   C     0.82123   0.17357   0.41943   0.00000  Uiso   1.00
C152   C     0.80617   0.17205   0.46038   0.00000  Uiso   1.00
C153   C     0.77244   0.19626   0.48168   0.00000  Uiso   1.00
C154   C     0.82524   0.14912   0.48092   0.00000  Uiso   1.00
C155   C     0.81655   0.15820   0.02257   0.00000  Uiso   1.00
C156   C     0.78273   0.18267   0.04275   0.00000  Uiso   1.00
C157   C     0.76032   0.20025   0.02259   0.00000  Uiso   1.00
H158   H     0.73435   0.21844   0.03920   0.00000  Uiso   1.00
H159   H     0.72529   0.23487   0.47792   0.00000  Uiso   1.00
H160   H     0.74737   0.22994   0.40610   0.00000  Uiso   1.00
H161   H     0.85063   0.16091   0.40256   0.00000  Uiso   1.00
H162   H     0.77188   0.18802   0.07434   0.00000  Uiso   1.00
H163   H     0.87881   0.08289   0.40859   0.00000  Uiso   1.00
H164   H     0.81372   0.05623   0.39201   0.00000  Uiso   1.00
H165   H     0.78336   0.08600   0.43478   0.00000  Uiso   1.00
H166   H     0.80914   0.04242   0.44041   0.00000  Uiso   1.00
H167   H     0.92116   0.07741   0.02438   0.00000  Uiso   1.00
H168   H     0.68333   0.19347   0.21504   0.00000  Uiso   1.00
H169   H     0.98478   0.14016   0.28503   0.00000  Uiso   1.00
H170   H     0.87468   0.00278   0.21620   0.00000  Uiso   1.00
H171   H     0.79064   0.33220   0.28411   0.00000  Uiso   1.00
H172   H     0.81566   0.17415   0.10121   0.00000  Uiso   1.00
H173   H     0.91237   0.09663   0.09494   0.00000  Uiso   1.00
H174   H     0.89733   0.07800   0.46663   0.00000  Uiso   1.00
N175   N     0.85124   0.09653   0.42378   0.00000  Uiso   1.00
O176   O     0.83333   0.16667   0.25000   0.00000  Uiso   1.00
O177   O     0.82360   0.12393   0.16625   0.00000  Uiso   1.00
O178   O     0.79354   0.20646   0.33749   0.00000  Uiso   1.00
O179   O     0.87755   0.17493   0.15877   0.00000  Uiso   1.00
O180   O     0.83865   0.16135   0.33749   0.00000  Uiso   1.00
O181   O     0.84515   0.08101   0.27820   0.00000  Uiso   1.00
O182   O     0.81247   0.26136   0.26767   0.00000  Uiso   1.00
O183   O     0.74119   0.13251   0.23607   0.00000  Uiso   1.00
O184   O     0.93452   0.19179   0.21806   0.00000  Uiso   1.00
O185   O     0.73656   0.18960   0.27820   0.00000  Uiso   1.00
O186   O     0.92106   0.15277   0.26767   0.00000  Uiso   1.00
O187   O     0.80467   0.06903   0.23607   0.00000  Uiso   1.00
O188   O     0.87104   0.25527   0.21806   0.00000  Uiso   1.00
Zn189  Zn    0.85910   0.14090   0.28277   0.00000  Uiso   1.00
Zn190  Zn    0.80125   0.12378   0.22257   0.00000  Uiso   1.00
Zn191  Zn    0.87833   0.19664   0.21188   0.00000  Uiso   1.00
Zn192  Zn    0.79465   0.20535   0.28277   0.00000  Uiso   1.00
C193   C     0.05249   0.49323   0.25872   0.00000  Uiso   1.00
C194   C     0.18516   0.45023   0.46176   0.00000  Uiso   1.00
C195   C     0.20951   0.43485   0.48186   0.00000  Uiso   1.00
C196   C     0.28104   0.50689   0.24122   0.00000  Uiso   1.00
C197   C     0.20560   0.44780   0.02145   0.00000  Uiso   1.00
C198   C     0.17488   0.47535   0.04266   0.00000  Uiso   1.00
C199   C     0.23117   0.43201   0.04042   0.00000  Uiso   1.00
C200   C     0.22642   0.44298   0.08042   0.00000  Uiso   1.00
C201   C     0.17098   0.48619   0.08314   0.00000  Uiso   1.00
C202   C     0.32699   0.50954   0.23766   0.00000  Uiso   1.00
C203   C     0.00711   0.49080   0.26213   0.00000  Uiso   1.00
C204   C     0.09796   0.54799   0.42089   0.00000  Uiso   1.00
C205   C     0.18088   0.65548   0.23818   0.00000  Uiso   1.00
C206   C     0.15151   0.34540   0.26208   0.00000  Uiso   1.00
C207   C     0.15591   0.38943   0.25889   0.00000  Uiso   1.00
C208   C     0.17685   0.61099   0.24137   0.00000  Uiso   1.00
C209   C     0.18813   0.47855   0.14407   0.00000  Uiso   1.00
C210   C     0.14536   0.52098   0.35619   0.00000  Uiso   1.00
C211   C     0.13294   0.52628   0.39946   0.00000  Uiso   1.00
C212   C     0.19615   0.46981   0.10169   0.00000  Uiso   1.00
C213   C     0.08500   0.55030   0.46180   0.00000  Uiso   1.00
C214   C     0.14560   0.40223   0.42288   0.00000  Uiso   1.00
C215   C     0.15456   0.50691   0.41943   0.00000  Uiso   1.00
C216   C     0.13951   0.50538   0.46038   0.00000  Uiso   1.00
C217   C     0.10577   0.52959   0.48168   0.00000  Uiso   1.00
C218   C     0.15857   0.48245   0.48092   0.00000  Uiso   1.00
C219   C     0.14988   0.49153   0.02257   0.00000  Uiso   1.00
C220   C     0.11606   0.51601   0.04275   0.00000  Uiso   1.00
C221   C     0.09366   0.53358   0.02259   0.00000  Uiso   1.00
H222   H     0.06768   0.55178   0.03920   0.00000  Uiso   1.00
H223   H     0.05863   0.56820   0.47792   0.00000  Uiso   1.00
H224   H     0.08071   0.56327   0.40610   0.00000  Uiso   1.00
H225   H     0.18396   0.49424   0.40256   0.00000  Uiso   1.00
H226   H     0.10521   0.52136   0.07434   0.00000  Uiso   1.00
H227   H     0.21214   0.41623   0.40859   0.00000  Uiso   1.00
H228   H     0.14705   0.38957   0.39201   0.00000  Uiso   1.00
H229   H     0.11669   0.41934   0.43478   0.00000  Uiso   1.00
H230   H     0.14247   0.37576   0.44041   0.00000  Uiso   1.00
H231   H     0.25449   0.41074   0.02438   0.00000  Uiso   1.00
H232   H     0.01666   0.52680   0.21504   0.00000  Uiso   1.00
H233   H     0.31811   0.47349   0.28503   0.00000  Uiso   1.00
H234   H     0.20802   0.33611   0.21620   0.00000  Uiso   1.00
H235   H     0.12398   0.66554   0.28411   0.00000  Uiso   1.00
H236   H     0.14899   0.50749   0.10121   0.00000  Uiso   1.00
H237   H     0.24571   0.42996   0.09494   0.00000  Uiso   1.00
H238   H     0.23066   0.41133   0.46663   0.00000  Uiso   1.00
N239   N     0.18457   0.42986   0.42378   0.00000  Uiso   1.00
O240   O     0.16667   0.50000   0.25000   0.00000  Uiso   1.00
O241   O     0.15693   0.45726   0.16625   0.00000  Uiso   1.00
O242   O     0.12687   0.53979   0.33749   0.00000  Uiso   1.00
O243   O     0.21088   0.50826   0.15877   0.00000  Uiso   1.00
O244   O     0.17198   0.49468   0.33749   0.00000  Uiso   1.00
O245   O     0.17849   0.41434   0.27820   0.00000  Uiso   1.00
O246   O     0.14581   0.59469   0.26767   0.00000  Uiso   1.00
O247   O     0.07452   0.46584   0.23607   0.00000  Uiso   1.00
O248   O     0.26785   0.52512   0.21806   0.00000  Uiso   1.00
O249   O     0.06990   0.52293   0.27820   0.00000  Uiso   1.00
O250   O     0.25440   0.48610   0.26767   0.00000  Uiso   1.00
O251   O     0.13800   0.40236   0.23607   0.00000  Uiso   1.00
O252   O     0.20437   0.58860   0.21806   0.00000  Uiso   1.00
Zn253  Zn    0.19244   0.47423   0.28277   0.00000  Uiso   1.00
Zn254  Zn    0.13459   0.45711   0.22257   0.00000  Uiso   1.00
Zn255  Zn    0.21166   0.52997   0.21188   0.00000  Uiso   1.00
Zn256  Zn    0.12798   0.53868   0.28277   0.00000  Uiso   1.00
C257   C     0.38582   0.49323   0.25872   0.00000  Uiso   1.00
C258   C     0.51849   0.45023   0.46176   0.00000  Uiso   1.00
C259   C     0.54284   0.43485   0.48186   0.00000  Uiso   1.00
C260   C     0.61437   0.50689   0.24122   0.00000  Uiso   1.00
C261   C     0.53894   0.44780   0.02145   0.00000  Uiso   1.00
C262   C     0.50821   0.47535   0.04266   0.00000  Uiso   1.00
C263   C     0.56451   0.43201   0.04042   0.00000  Uiso   1.00
C264   C     0.55975   0.44298   0.08042   0.00000  Uiso   1.00
C265   C     0.50431   0.48619   0.08314   0.00000  Uiso   1.00
C266   C     0.66033   0.50954   0.23766   0.00000  Uiso   1.00
C267   C     0.34045   0.49080   0.26213   0.00000  Uiso   1.00
C268   C     0.43129   0.54799   0.42089   0.00000  Uiso   1.00
C269   C     0.51422   0.65548   0.23818   0.00000  Uiso   1.00
C270   C     0.48485   0.34540   0.26208   0.00000  Uiso   1.00
C271   C     0.48924   0.38943   0.25889   0.00000  Uiso   1.00
C272   C     0.51018   0.61099   0.24137   0.00000  Uiso   1.00
C273   C     0.52146   0.47855   0.14407   0.00000  Uiso   1.00
C274   C     0.47870   0.52098   0.35619   0.00000  Uiso   1.00
C275   C     0.46627   0.52628   0.39946   0.00000  Uiso   1.00
C276   C     0.52948   0.46981   0.10169   0.00000  Uiso   1.00
C277   C     0.41833   0.55030   0.46180   0.00000  Uiso   1.00
C278   C     0.47894   0.40223   0.42288   0.00000  Uiso   1.00
C279   C     0.48790   0.50691   0.41943   0.00000  Uiso   1.00
C280   C     0.47284   0.50538   0.46038   0.00000  Uiso   1.00
C281   C     0.43910   0.52959   0.48168   0.00000  Uiso   1.00
C282   C     0.49190   0.48245   0.48092   0.00000  Uiso   1.00
C283   C     0.48321   0.49153   0.02257   0.00000  Uiso   1.00
C284   C     0.44939   0.51601   0.04275   0.00000  Uiso   1.00
C285   C     0.42699   0.53358   0.02259   0.00000  Uiso   1.00
H286   H     0.40102   0.55178   0.03920   0.00000  Uiso   1.00
H287   H     0.39196   0.56820   0.47792   0.00000  Uiso   1.00
H288   H     0.41404   0.56327   0.40610   0.00000  Uiso   1.00
H289   H     0.51729   0.49424   0.40256   0.00000  Uiso   1.00
H290   H     0.43854   0.52136   0.07434   0.00000  Uiso   1.00
H291   H     0.54548   0.41623   0.40859   0.00000  Uiso   1.00
H292   H     0.48039   0.38957   0.39201   0.00000  Uiso   1.00
H293   H     0.45003   0.41934   0.43478   0.00000  Uiso   1.00
H294   H     0.47580   0.37576   0.44041   0.00000  Uiso   1.00
H295   H     0.58782   0.41074   0.02438   0.00000  Uiso   1.00
H296   H     0.34999   0.52680   0.21504   0.00000  Uiso   1.00
H297   H     0.65144   0.47349   0.28503   0.00000  Uiso   1.00
H298   H     0.54135   0.33611   0.21620   0.00000  Uiso   1.00
H299   H     0.45731   0.66554   0.28411   0.00000  Uiso   1.00
H300   H     0.48233   0.50749   0.10121   0.00000  Uiso   1.00
H301   H     0.57904   0.42996   0.09494   0.00000  Uiso   1.00
H302   H     0.56400   0.41133   0.46663   0.00000  Uiso   1.00
N303   N     0.51791   0.42986   0.42378   0.00000  Uiso   1.00
O304   O     0.50000   0.50000   0.25000   0.00000  Uiso   1.00
O305   O     0.49027   0.45726   0.16625   0.00000  Uiso   1.00
O306   O     0.46020   0.53979   0.33749   0.00000  Uiso   1.00
O307   O     0.54421   0.50826   0.15877   0.00000  Uiso   1.00
O308   O     0.50532   0.49468   0.33749   0.00000  Uiso   1.00
O309   O     0.51182   0.41434   0.27820   0.00000  Uiso   1.00
O310   O     0.47914   0.59469   0.26767   0.00000  Uiso   1.00
O311   O     0.40785   0.46584   0.23607   0.00000  Uiso   1.00
O312   O     0.60119   0.52512   0.21806   0.00000  Uiso   1.00
O313   O     0.40323   0.52293   0.27820   0.00000  Uiso   1.00
O314   O     0.58773   0.48610   0.26767   0.00000  Uiso   1.00
O315   O     0.47133   0.40236   0.23607   0.00000  Uiso   1.00
O316   O     0.53771   0.58860   0.21806   0.00000  Uiso   1.00
Zn317  Zn    0.52577   0.47423   0.28277   0.00000  Uiso   1.00
Zn318  Zn    0.46792   0.45711   0.22257   0.00000  Uiso   1.00
Zn319  Zn    0.54500   0.52997   0.21188   0.00000  Uiso   1.00
Zn320  Zn    0.46131   0.53868   0.28277   0.00000  Uiso   1.00
C321   C     0.71915   0.49323   0.25872   0.00000  Uiso   1.00
C322   C     0.85182   0.45023   0.46176   0.00000  Uiso   1.00
C323   C     0.87617   0.43485   0.48186   0.00000  Uiso   1.00
C324   C     0.94770   0.50689   0.24122   0.00000  Uiso   1.00
C325   C     0.87227   0.44780   0.02145   0.00000  Uiso   1.00
C326   C     0.84154   0.47535   0.04266   0.00000  Uiso   1.00
C327   C     0.89784   0.43201   0.04042   0.00000  Uiso   1.00
C328   C     0.89308   0.44298   0.08042   0.00000  Uiso   1.00
C329   C     0.83764   0.48619   0.08314   0.00000  Uiso   1.00
C330   C     0.99366   0.50954   0.23766   0.00000  Uiso   1.00
C331   C     0.67378   0.49080   0.26213   0.00000  Uiso   1.00
C332   C     0.76463   0.54799   0.42089   0.00000  Uiso   1.00
C333   C     0.84755   0.65548   0.23818   0.00000  Uiso   1.00
C334   C     0.81818   0.34540   0.26208   0.00000  Uiso   1.00
C335   C     0.82257   0.38943   0.25889   0.00000  Uiso   1.00
C336   C     0.84351   0.61099   0.24137   0.00000  Uiso   1.00
C337   C     0.85479   0.47855   0.14407   0.00000  Uiso   1.00
C338   C     0.81203   0.52098   0.35619   0.00000  Uiso   1.00
C339   C     0.79960   0.52628   0.39946   0.00000  Uiso   1.00
C340   C     0.86282   0.46981   0.10169   0.00000  Uiso   1.00
C341   C     0.75166   0.55030   0.46180   0.00000  Uiso   1.00
C342   C     0.81227   0.40223   0.42288   0.00000  Uiso   1.00
C343   C     0.82123   0.50691   0.41943   0.00000  Uiso   1.00
C344   C     0.80617   0.50538   0.46038   0.00000  Uiso   1.00
C345   C     0.77244   0.52959   0.48168   0.00000  Uiso   1.00
C346   C     0.82524   0.48245   0.48092   0.00000  Uiso   1.00
C347   C     0.81655   0.49153   0.02257   0.00000  Uiso   1.00
C348   C     0.78273   0.51601   0.04275   0.00000  Uiso   1.00
C349   C     0.76032   0.53358   0.02259   0.00000  Uiso   1.00
H350   H     0.73435   0.55178   0.03920   0.00000  Uiso   1.00
H351   H     0.72529   0.56820   0.47792   0.00000  Uiso   1.00
H352   H     0.74737   0.56327   0.40610   0.00000  Uiso   1.00
H353   H     0.85063   0.49424   0.40256   0.00000  Uiso   1.00
H354   H     0.77188   0.52136   0.07434   0.00000  Uiso   1.00
H355   H     0.87881   0.41623   0.40859   0.00000  Uiso   1.00
H356   H     0.81372   0.38957   0.39201   0.00000  Uiso   1.00
H357   H     0.78336   0.41934   0.43478   0.00000  Uiso   1.00
H358   H     0.80914   0.37576   0.44041   0.00000  Uiso   1.00
H359   H     0.92116   0.41074   0.02438   0.00000  Uiso   1.00
H360   H     0.68333   0.52680   0.21504   0.00000  Uiso   1.00
H361   H     0.98478   0.47349   0.28503   0.00000  Uiso   1.00
H362   H     0.87468   0.33611   0.21620   0.00000  Uiso   1.00
H363   H     0.79064   0.66554   0.28411   0.00000  Uiso   1.00
H364   H     0.81566   0.50749   0.10121   0.00000  Uiso   1.00
H365   H     0.91237   0.42996   0.09494   0.00000  Uiso   1.00
H366   H     0.89733   0.41133   0.46663   0.00000  Uiso   1.00
N367   N     0.85124   0.42986   0.42378   0.00000  Uiso   1.00
O368   O     0.83333   0.50000   0.25000   0.00000  Uiso   1.00
O369   O     0.82360   0.45726   0.16625   0.00000  Uiso   1.00
O370   O     0.79354   0.53979   0.33749   0.00000  Uiso   1.00
O371   O     0.87755   0.50826   0.15877   0.00000  Uiso   1.00
O372   O     0.83865   0.49468   0.33749   0.00000  Uiso   1.00
O373   O     0.84515   0.41434   0.27820   0.00000  Uiso   1.00
O374   O     0.81247   0.59469   0.26767   0.00000  Uiso   1.00
O375   O     0.74119   0.46584   0.23607   0.00000  Uiso   1.00
O376   O     0.93452   0.52512   0.21806   0.00000  Uiso   1.00
O377   O     0.73656   0.52293   0.27820   0.00000  Uiso   1.00
O378   O     0.92106   0.48610   0.26767   0.00000  Uiso   1.00
O379   O     0.80467   0.40236   0.23607   0.00000  Uiso   1.00
O380   O     0.87104   0.58860   0.21806   0.00000  Uiso   1.00
Zn381  Zn    0.85910   0.47423   0.28277   0.00000  Uiso   1.00
Zn382  Zn    0.80125   0.45711   0.22257   0.00000  Uiso   1.00
Zn383  Zn    0.87833   0.52997   0.21188   0.00000  Uiso   1.00
Zn384  Zn    0.79465   0.53868   0.28277   0.00000  Uiso   1.00
C385   C     0.05249   0.82657   0.25872   0.00000  Uiso   1.00
C386   C     0.18516   0.78356   0.46176   0.00000  Uiso   1.00
C387   C     0.20951   0.76818   0.48186   0.00000  Uiso   1.00
C388   C     0.28104   0.84022   0.24122   0.00000  Uiso   1.00
C389   C     0.20560   0.78113   0.02145   0.00000  Uiso   1.00
C390   C     0.17488   0.80869   0.04266   0.00000  Uiso   1.00
C391   C     0.23117   0.76535   0.04042   0.00000  Uiso   1.00
C392   C     0.22642   0.77631   0.08042   0.00000  Uiso   1.00
C393   C     0.17098   0.81952   0.08314   0.00000  Uiso   1.00
C394   C     0.32699   0.84287   0.23766   0.00000  Uiso   1.00
C395   C     0.00711   0.82413   0.26213   0.00000  Uiso   1.00
C396   C     0.09796   0.88132   0.42089   0.00000  Uiso   1.00
C397   C     0.18088   0.98882   0.23818   0.00000  Uiso   1.00
C398   C     0.15151   0.67873   0.26208   0.00000  Uiso   1.00
C399   C     0.15591   0.72277   0.25889   0.00000  Uiso   1.00
C400   C     0.17685   0.94433   0.24137   0.00000  Uiso   1.00
C401   C     0.18813   0.81189   0.14407   0.00000  Uiso   1.00
C402   C     0.14536   0.85432   0.35619   0.00000  Uiso   1.00
C403   C     0.13294   0.85961   0.39946   0.00000  Uiso   1.00
C404   C     0.19615   0.80315   0.10169   0.00000  Uiso   1.00
C405   C     0.08500   0.88364   0.46180   0.00000  Uiso   1.00
C406   C     0.14560   0.73556   0.42288   0.00000  Uiso   1.00
C407   C     0.15456   0.84024   0.41943   0.00000  Uiso   1.00
C408   C     0.13951   0.83872   0.46038   0.00000  Uiso   1.00
C409   C     0.10577   0.86293   0.48168   0.00000  Uiso   1.00
C410   C     0.15857   0.81579   0.48092   0.00000  Uiso   1.00
C411   C     0.14988   0.82487   0.02257   0.00000  Uiso   1.00
C412   C     0.11606   0.84934   0.04275   0.00000  Uiso   1.00
C413   C     0.09366   0.86692   0.02259   0.00000  Uiso   1.00
H414   H     0.06768   0.88511   0.03920   0.00000  Uiso   1.00
H415   H     0.05863   0.90154   0.47792   0.00000  Uiso   1.00
H416   H     0.08071   0.89660   0.40610   0.00000  Uiso   1.00
H417   H     0.18396   0.82757   0.40256   0.00000  Uiso   1.00
H418   H     0.10521   0.85469   0.07434   0.00000  Uiso   1.00
H419   H     0.21214   0.74956   0.40859   0.00000  Uiso   1.00
H420   H     0.14705   0.72290   0.39201   0.00000  Uiso   1.00
H421   H     0.11669   0.75267   0.43478   0.00000  Uiso   1.00
H422   H     0.14247   0.70909   0.44041   0.00000  Uiso   1.00
H423   H     0.25449   0.74407   0.02438   0.00000  Uiso   1.00
H424   H     0.01666   0.86013   0.21504   0.00000  Uiso   1.00
H425   H     0.31811   0.80682   0.28503   0.00000  Uiso   1.00
H426   H     0.20802   0.66944   0.21620   0.00000  Uiso   1.00
H427   H     0.12398   0.99887   0.28411   0.00000  Uiso   1.00
H428   H     0.14899   0.84082   0.10121   0.00000  Uiso   1.00
H429   H     0.24571   0.76330   0.09494   0.00000  Uiso   1.00
H430   H     0.23066   0.74466   0.46663   0.00000  Uiso   1.00
N431   N     0.18457   0.76320   0.42378   0.00000  Uiso   1.00
O432   O     0.16667   0.83333   0.25000   0.00000  Uiso   1.00
O433   O     0.15693   0.79060   0.16625   0.00000  Uiso   1.00
O434   O     0.12687   0.87313   0.33749   0.00000  Uiso   1.00
O435   O     0.21088   0.84159   0.15877   0.00000  Uiso   1.00
O436   O     0.17198   0.82802   0.33749   0.00000  Uiso   1.00
O437   O     0.17849   0.74768   0.27820   0.00000  Uiso   1.00
O438   O     0.14581   0.92803   0.26767   0.00000  Uiso   1.00
O439   O     0.07452   0.79917   0.23607   0.00000  Uiso   1.00
O440   O     0.26785   0.85845   0.21806   0.00000  Uiso   1.00
O441   O     0.06990   0.85627   0.27820   0.00000  Uiso   1.00
O442   O     0.25440   0.81944   0.26767   0.00000  Uiso   1.00
O443   O     0.13800   0.73570   0.23607   0.00000  Uiso   1.00
O444   O     0.20437   0.92193   0.21806   0.00000  Uiso   1.00
Zn445  Zn    0.19244   0.80756   0.28277   0.00000  Uiso   1.00
Zn446  Zn    0.13459   0.79044   0.22257   0.00000  Uiso   1.00
Zn447  Zn    0.21166   0.86331   0.21188   0.00000  Uiso   1.00
Zn448  Zn    0.12798   0.87202   0.28277   0.00000  Uiso   1.00
C449   C     0.38582   0.82657   0.25872   0.00000  Uiso   1.00
C450   C     0.51849   0.78356   0.46176   0.00000  Uiso   1.00
C451   C     0.54284   0.76818   0.48186   0.00000  Uiso   1.00
C452   C     0.61437   0.84022   0.24122   0.00000  Uiso   1.00
C453   C     0.53894   0.78113   0.02145   0.00000  Uiso   1.00
C454   C     0.50821   0.80869   0.04266   0.00000  Uiso   1.00
C455   C     0.56451   0.76535   0.04042   0.00000  Uiso   1.00
C456   C     0.55975   0.77631   0.08042   0.00000  Uiso   1.00
C457   C     0.50431   0.81952   0.08314   0.00000  Uiso   1.00
C458   C     0.66033   0.84287   0.23766   0.00000  Uiso   1.00
C459   C     0.34045   0.82413   0.26213   0.00000  Uiso   1.00
C460   C     0.43129   0.88132   0.42089   0.00000  Uiso   1.00
C461   C     0.51422   0.98882   0.23818   0.00000  Uiso   1.00
C462   C     0.48485   0.67873   0.26208   0.00000  Uiso   1.00
C463   C     0.48924   0.72277   0.25889   0.00000  Uiso   1.00
C464   C     0.51018   0.94433   0.24137   0.00000  Uiso   1.00
C465   C     0.52146   0.81189   0.14407   0.00000  Uiso   1.00
C466   C     0.47870   0.85432   0.35619   0.00000  Uiso   1.00
C467   C     0.46627   0.85961   0.39946   0.00000  Uiso   1.00
C468   C     0.52948   0.80315   0.10169   0.00000  Uiso   1.00
C469   C     0.41833   0.88364   0.46180   0.00000  Uiso   1.00
C470   C     0.47894   0.73556   0.42288   0.00000  Uiso   1.00
C471   C     0.48790   0.84024   0.41943   0.00000  Uiso   1.00
C472   C     0.47284   0.83872   0.46038   0.00000  Uiso   1.00
C473   C     0.43910   0.86293   0.48168   0.00000  Uiso   1.00
C474   C     0.49190   0.81579   0.48092   0.00000  Uiso   1.00
C475   C     0.48321   0.82487   0.02257   0.00000  Uiso   1.00
C476   C     0.44939   0.84934   0.04275   0.00000  Uiso   1.00
C477   C     0.42699   0.86692   0.02259   0.00000  Uiso   1.00
H478   H     0.40102   0.88511   0.03920   0.00000  Uiso   1.00
H479   H     0.39196   0.90154   0.47792   0.00000  Uiso   1.00
H480   H     0.41404   0.89660   0.40610   0.00000  Uiso   1.00
H481   H     0.51729   0.82757   0.40256   0.00000  Uiso   1.00
H482   H     0.43854   0.85469   0.07434   0.00000  Uiso   1.00
H483   H     0.54548   0.74956   0.40859   0.00000  Uiso   1.00
H484   H     0.48039   0.72290   0.39201   0.00000  Uiso   1.00
H485   H     0.45003   0.75267   0.43478   0.00000  Uiso   1.00
H486   H     0.47580   0.70909   0.44041   0.00000  Uiso   1.00
H487   H     0.58782   0.74407   0.02438   0.00000  Uiso   1.00
H488   H     0.34999   0.86013   0.21504   0.00000  Uiso   1.00
H489   H     0.65144   0.80682   0.28503   0.00000  Uiso   1.00
H490   H     0.54135   0.66944   0.21620   0.00000  Uiso   1.00
H491   H     0.45731   0.99887   0.28411   0.00000  Uiso   1.00
H492   H     0.48233   0.84082   0.10121   0.00000  Uiso   1.00
H493   H     0.57904   0.76330   0.09494   0.00000  Uiso   1.00
H494   H     0.56400   0.74466   0.46663   0.00000  Uiso   1.00
N495   N     0.51791   0.76320   0.42378   0.00000  Uiso   1.00
O496   O     0.50000   0.83333   0.25000   0.00000  Uiso   1.00
O497   O     0.49027   0.79060   0.16625   0.00000  Uiso   1.00
O498   O     0.46020   0.87313   0.33749   0.00000  Uiso   1.00
O499   O     0.54421   0.84159   0.15877   0.00000  Uiso   1.00
O500   O     0.50532   0.82802   0.33749   0.00000  Uiso   1.00
O501   O     0.51182   0.74768   0.27820   0.00000  Uiso   1.00
O502   O     0.47914   0.92803   0.26767   0.00000  Uiso   1.00
O503   O     0.40785   0.79917   0.23607   0.00000  Uiso   1.00
O504   O     0.60119   0.85845   0.21806   0.00000  Uiso   1.00
O505   O     0.40323   0.85627   0.27820   0.00000  Uiso   1.00
O506   O     0.58773   0.81944   0.26767   0.00000  Uiso   1.00
O507   O     0.47133   0.73570   0.23607   0.00000  Uiso   1.00
O508   O     0.53771   0.92193   0.21806   0.00000  Uiso   1.00
Zn509  Zn    0.52577   0.80756   0.28277   0.00000  Uiso   1.00
Zn510  Zn    0.46792   0.79044   0.22257   0.00000  Uiso   1.00
Zn511  Zn    0.54500   0.86331   0.21188   0.00000  Uiso   1.00
Zn512  Zn    0.46131   0.87202   0.28277   0.00000  Uiso   1.00
C513   C     0.71915   0.82657   0.25872   0.00000  Uiso   1.00
C514   C     0.85182   0.78356   0.46176   0.00000  Uiso   1.00
C515   C     0.87617   0.76818   0.48186   0.00000  Uiso   1.00
C516   C     0.94770   0.84022   0.24122   0.00000  Uiso   1.00
C517   C     0.87227   0.78113   0.02145   0.00000  Uiso   1.00
C518   C     0.84154   0.80869   0.04266   0.00000  Uiso   1.00
C519   C     0.89784   0.76535   0.04042   0.00000  Uiso   1.00
C520   C     0.89308   0.77631   0.08042   0.00000  Uiso   1.00
C521   C     0.83764   0.81952   0.08314   0.00000  Uiso   1.00
C522   C     0.99366   0.84287   0.23766   0.00000  Uiso   1.00
C523   C     0.67378   0.82413   0.26213   0.00000  Uiso   1.00
C524   C     0.76463   0.88132   0.42089   0.00000  Uiso   1.00
C525   C     0.84755   0.98882   0.23818   0.00000  Uiso   1.00
C526   C     0.81818   0.67873   0.26208   0.00000  Uiso   1.00
C527   C     0.82257   0.72277   0.25889   0.00000  Uiso   1.00
C528   C     0.84351   0.94433   0.24137   0.00000  Uiso   1.00
C529   C     0.85479   0.81189   0.14407   0.00000  Uiso   1.00
C530   C     0.81203   0.85432   0.35619   0.00000  Uiso   1.00
C531   C     0.79960   0.85961   0.39946   0.00000  Uiso   1.00
C532   C     0.86282   0.80315   0.10169   0.00000  Uiso   1.00
C533   C     0.75166   0.88364   0.46180   0.00000  Uiso   1.00
C534   C     0.81227   0.73556   0.42288   0.00000  Uiso   1.00
C535   C     0.82123   0.84024   0.41943   0.00000  Uiso   1.00
C536   C     0.80617   0.83872   0.46038   0.00000  Uiso   1.00
C537   C     0.77244   0.86293   0.48168   0.00000  Uiso   1.00
C538   C     0.82524   0.81579   0.48092   0.00000  Uiso   1.00
C539   C     0.81655   0.82487   0.02257   0.00000  Uiso   1.00
C540   C     0.78273   0.84934   0.04275   0.00000  Uiso   1.00
C541   C     0.76032   0.86692   0.02259   0.00000  Uiso   1.00
H542   H     0.73435   0.88511   0.03920   0.00000  Uiso   1.00
H543   H     0.72529   0.90154   0.47792   0.00000  Uiso   1.00
H544   H     0.74737   0.89660   0.40610   0.00000  Uiso   1.00
H545   H     0.85063   0.82757   0.40256   0.00000  Uiso   1.00
H546   H     0.77188   0.85469   0.07434   0.00000  Uiso   1.00
H547   H     0.87881   0.74956   0.40859   0.00000  Uiso   1.00
H548   H     0.81372   0.72290   0.39201   0.00000  Uiso   1.00
H549   H     0.78336   0.75267   0.43478   0.00000  Uiso   1.00
H550   H     0.80914   0.70909   0.44041   0.00000  Uiso   1.00
H551   H     0.92116   0.74407   0.02438   0.00000  Uiso   1.00
H552   H     0.68333   0.86013   0.21504   0.00000  Uiso   1.00
H553   H     0.98478   0.80682   0.28503   0.00000  Uiso   1.00
H554   H     0.87468   0.66944   0.21620   0.00000  Uiso   1.00
H555   H     0.79064   0.99887   0.28411   0.00000  Uiso   1.00
H556   H     0.81566   0.84082   0.10121   0.00000  Uiso   1.00
H557   H     0.91237   0.76330   0.09494   0.00000  Uiso   1.00
H558   H     0.89733   0.74466   0.46663   0.00000  Uiso   1.00
N559   N     0.85124   0.76320   0.42378   0.00000  Uiso   1.00
O560   O     0.83333   0.83333   0.25000   0.00000  Uiso   1.00
O561   O     0.82360   0.79060   0.16625   0.00000  Uiso   1.00
O562   O     0.79354   0.87313   0.33749   0.00000  Uiso   1.00
O563   O     0.87755   0.84159   0.15877   0.00000  Uiso   1.00
O564   O     0.83865   0.82802   0.33749   0.00000  Uiso   1.00
O565   O     0.84515   0.74768   0.27820   0.00000  Uiso   1.00
O566   O     0.81247   0.92803   0.26767   0.00000  Uiso   1.00
O567   O     0.74119   0.79917   0.23607   0.00000  Uiso   1.00
O568   O     0.93452   0.85845   0.21806   0.00000  Uiso   1.00
O569   O     0.73656   0.85627   0.27820   0.00000  Uiso   1.00
O570   O     0.92106   0.81944   0.26767   0.00000  Uiso   1.00
O571   O     0.80467   0.73570   0.23607   0.00000  Uiso   1.00
O572   O     0.87104   0.92193   0.21806   0.00000  Uiso   1.00
Zn573  Zn    0.85910   0.80756   0.28277   0.00000  Uiso   1.00
Zn574  Zn    0.80125   0.79044   0.22257   0.00000  Uiso   1.00
Zn575  Zn    0.87833   0.86331   0.21188   0.00000  Uiso   1.00
Zn576  Zn    0.79465   0.87202   0.28277   0.00000  Uiso   1.00
C577   C     0.05249   0.15990   0.75872   0.00000  Uiso   1.00
C578   C     0.18516   0.11690   0.96176   0.00000  Uiso   1.00
C579   C     0.20951   0.10151   0.98186   0.00000  Uiso   1.00
C580   C     0.28104   0.17356   0.74122   0.00000  Uiso   1.00
C581   C     0.20560   0.11447   0.52145   0.00000  Uiso   1.00
C582   C     0.17488   0.14202   0.54266   0.00000  Uiso   1.00
C583   C     0.23117   0.09868   0.54042   0.00000  Uiso   1.00
C584   C     0.22642   0.10964   0.58042   0.00000  Uiso   1.00
C585   C     0.17098   0.15285   0.58314   0.00000  Uiso   1.00
C586   C     0.32699   0.17621   0.73766   0.00000  Uiso   1.00
C587   C     0.00711   0.15746   0.76213   0.00000  Uiso   1.00
C588   C     0.09796   0.21466   0.92089   0.00000  Uiso   1.00
C589   C     0.18088   0.32215   0.73818   0.00000  Uiso   1.00
C590   C     0.15151   0.01206   0.76208   0.00000  Uiso   1.00
C591   C     0.15591   0.05610   0.75889   0.00000  Uiso   1.00
C592   C     0.17685   0.27766   0.74137   0.00000  Uiso   1.00
C593   C     0.18813   0.14522   0.64407   0.00000  Uiso   1.00
C594   C     0.14536   0.18765   0.85619   0.00000  Uiso   1.00
C595   C     0.13294   0.19294   0.89946   0.00000  Uiso   1.00
C596   C     0.19615   0.13648   0.60169   0.00000  Uiso   1.00
C597   C     0.08500   0.21697   0.96180   0.00000  Uiso   1.00
C598   C     0.14560   0.06890   0.92288   0.00000  Uiso   1.00
C599   C     0.15456   0.17357   0.91943   0.00000  Uiso   1.00
C600   C     0.13951   0.17205   0.96038   0.00000  Uiso   1.00
C601   C     0.10577   0.19626   0.98168   0.00000  Uiso   1.00
C602   C     0.15857   0.14912   0.98092   0.00000  Uiso   1.00
C603   C     0.14988   0.15820   0.52257   0.00000  Uiso   1.00
C604   C     0.11606   0.18267   0.54275   0.00000  Uiso   1.00
C605   C     0.09366   0.20025   0.52259   0.00000  Uiso   1.00
H606   H     0.06768   0.21844   0.53920   0.00000  Uiso   1.00
H607   H     0.05863   0.23487   0.97792   0.00000  Uiso   1.00
H608   H     0.08071   0.22994   0.90610   0.00000  Uiso   1.00
H609   H     0.18396   0.16091   0.90256   0.00000  Uiso   1.00
H610   H     0.10521   0.18802   0.57434   0.00000  Uiso   1.00
H611   H     0.21214   0.08289   0.90859   0.00000  Uiso   1.00
H612   H     0.14705   0.05623   0.89201   0.00000  Uiso   1.00
H613   H     0.11669   0.08600   0.93478   0.00000  Uiso   1.00
H614   H     0.14247   0.04242   0.94041   0.00000  Uiso   1.00
H615   H     0.25449   0.07741   0.52438   0.00000  Uiso   1.00
H616   H     0.01666   0.19347   0.71504   0.00000  Uiso   1.00
H617   H     0.31811   0.14016   0.78503   0.00000  Uiso   1.00
H618   H     0.20802   0.00278   0.71620   0.00000  Uiso   1.00
H619   H     0.12398   0.33220   0.78411   0.00000  Uiso   1.00
H620   H     0.14899   0.17415   0.60121   0.00000  Uiso   1.00
H621   H     0.24571   0.09663   0.59494   0.00000  Uiso   1.00
H622   H     0.23066   0.07800   0.96663   0.00000  Uiso   1.00
N623   N     0.18457   0.09653   0.92378   0.00000  Uiso   1.00
O624   O     0.16667   0.16667   0.75000   0.00000  Uiso   1.00
O625   O     0.15693   0.12393   0.66625   0.00000  Uiso   1.00
O626   O     0.12687   0.20646   0.83749   0.00000  Uiso   1.00
O627   O     0.21088   0.17493   0.65877   0.00000  Uiso   1.00
O628   O     0.17198   0.16135   0.83749   0.00000  Uiso   1.00
O629   O     0.17849   0.08101   0.77820   0.00000  Uiso   1.00
O630   O     0.14581   0.26136   0.76767   0.00000  Uiso   1.00
O631   O     0.07452   0.13251   0.73607   0.00000  Uiso   1.00
O632   O     0.26785   0.19179   0.71806   0.00000  Uiso   1.00
O633   O     0.06990   0.18960   0.77820   0.00000  Uiso   1.00
O634   O     0.25440   0.15277   0.76767   0.00000  Uiso   1.00
O635   O     0.13800   0.06903   0.73607   0.00000  Uiso   1.00
O636   O     0.20437   0.25527   0.71806   0.00000  Uiso   1.00
Zn637  Zn    0.19244   0.14090   0.78277   0.00000  Uiso   1.00
Zn638  Zn    0.13459   0.12378   0.72257   0.00000  Uiso   1.00
Zn639  Zn    0.21166   0.19664   0.71188   0.00000  Uiso   1.00
Zn640  Zn    0.12798   0.20535   0.78277   0.00000  Uiso   1.00
C641   C     0.38582   0.15990   0.75872   0.00000  Uiso   1.00
C642   C     0.51849   0.11690   0.96176   0.00000  Uiso   1.00
C643   C     0.54284   0.10151   0.98186   0.00000  Uiso   1.00
C644   C     0.61437   0.17356   0.74122   0.00000  Uiso   1.00
C645   C     0.53894   0.11447   0.52145   0.00000  Uiso   1.00
C646   C     0.50821   0.14202   0.54266   0.00000  Uiso   1.00
C647   C     0.56451   0.09868   0.54042   0.00000  Uiso   1.00
C648   C     0.55975   0.10964   0.58042   0.00000  Uiso   1.00
C649   C     0.50431   0.15285   0.58314   0.00000  Uiso   1.00
C650   C     0.66033   0.17621   0.73766   0.00000  Uiso   1.00
C651   C     0.34045   0.15746   0.76213   0.00000  Uiso   1.00
C652   C     0.43129   0.21466   0.92089   0.00000  Uiso   1.00
C653   C     0.51422   0.32215   0.73818   0.00000  Uiso   1.00
C654   C     0.48485   0.01206   0.76208   0.00000  Uiso   1.00
C655   C     0.48924   0.05610   0.75889   0.00000  Uiso   1.00
C656   C     0.51018   0.27766   0.74137   0.00000  Uiso   1.00
C657   C     0.52146   0.14522   0.64407   0.00000  Uiso   1.00
C658   C     0.47870   0.18765   0.85619   0.00000  Uiso   1.00
C659   C     0.46627   0.19294   0.89946   0.00000  Uiso   1.00
C660   C     0.52948   0.13648   0.60169   0.00000  Uiso   1.00
C661   C     0.41833   0.21697   0.96180   0.00000  Uiso   1.00
C662   C     0.47894   0.06890   0.92288   0.00000  Uiso   1.00
C663   C     0.48790   0.17357   0.91943   0.00000  Uiso   1.00
C664   C     0.47284   0.17205   0.96038   0.00000  Uiso   1.00
C665   C     0.43910   0.19626   0.98168   0.00000  Uiso   1.00
C666   C     0.49190   0.14912   0.98092   0.00000  Uiso   1.00
C667   C     0.48321   0.15820   0.52257   0.00000  Uiso   1.00
C668   C     0.44939   0.18267   0.54275   0.00000  Uiso   1.00
C669   C     0.42699   0.20025   0.52259   0.00000  Uiso   1.00
H670   H     0.40102   0.21844   0.53920   0.00000  Uiso   1.00
H671   H     0.39196   0.23487   0.97792   0.00000  Uiso   1.00
H672   H     0.41404   0.22994   0.90610   0.00000  Uiso   1.00
H673   H     0.51729   0.16091   0.90256   0.00000  Uiso   1.00
H674   H     0.43854   0.18802   0.57434   0.00000  Uiso   1.00
H675   H     0.54548   0.08289   0.90859   0.00000  Uiso   1.00
H676   H     0.48039   0.05623   0.89201   0.00000  Uiso   1.00
H677   H     0.45003   0.08600   0.93478   0.00000  Uiso   1.00
H678   H     0.47580   0.04242   0.94041   0.00000  Uiso   1.00
H679   H     0.58782   0.07741   0.52438   0.00000  Uiso   1.00
H680   H     0.34999   0.19347   0.71504   0.00000  Uiso   1.00
H681   H     0.65144   0.14016   0.78503   0.00000  Uiso   1.00
H682   H     0.54135   0.00278   0.71620   0.00000  Uiso   1.00
H683   H     0.45731   0.33220   0.78411   0.00000  Uiso   1.00
H684   H     0.48233   0.17415   0.60121   0.00000  Uiso   1.00
H685   H     0.57904   0.09663   0.59494   0.00000  Uiso   1.00
H686   H     0.56400   0.07800   0.96663   0.00000  Uiso   1.00
N687   N     0.51791   0.09653   0.92378   0.00000  Uiso   1.00
O688   O     0.50000   0.16667   0.75000   0.00000  Uiso   1.00
O689   O     0.49027   0.12393   0.66625   0.00000  Uiso   1.00
O690   O     0.46020   0.20646   0.83749   0.00000  Uiso   1.00
O691   O     0.54421   0.17493   0.65877   0.00000  Uiso   1.00
O692   O     0.50532   0.16135   0.83749   0.00000  Uiso   1.00
O693   O     0.51182   0.08101   0.77820   0.00000  Uiso   1.00
O694   O     0.47914   0.26136   0.76767   0.00000  Uiso   1.00
O695   O     0.40785   0.13251   0.73607   0.00000  Uiso   1.00
O696   O     0.60119   0.19179   0.71806   0.00000  Uiso   1.00
O697   O     0.40323   0.18960   0.77820   0.00000  Uiso   1.00
O698   O     0.58773   0.15277   0.76767   0.00000  Uiso   1.00
O699   O     0.47133   0.06903   0.73607   0.00000  Uiso   1.00
O700   O     0.53771   0.25527   0.71806   0.00000  Uiso   1.00
Zn701  Zn    0.52577   0.14090   0.78277   0.00000  Uiso   1.00
Zn702  Zn    0.46792   0.12378   0.72257   0.00000  Uiso   1.00
Zn703  Zn    0.54500   0.19664   0.71188   0.00000  Uiso   1.00
Zn704  Zn    0.46131   0.20535   0.78277   0.00000  Uiso   1.00
C705   C     0.71915   0.15990   0.75872   0.00000  Uiso   1.00
C706   C     0.85182   0.11690   0.96176   0.00000  Uiso   1.00
C707   C     0.87617   0.10151   0.98186   0.00000  Uiso   1.00
C708   C     0.94770   0.17356   0.74122   0.00000  Uiso   1.00
C709   C     0.87227   0.11447   0.52145   0.00000  Uiso   1.00
C710   C     0.84154   0.14202   0.54266   0.00000  Uiso   1.00
C711   C     0.89784   0.09868   0.54042   0.00000  Uiso   1.00
C712   C     0.89308   0.10964   0.58042   0.00000  Uiso   1.00
C713   C     0.83764   0.15285   0.58314   0.00000  Uiso   1.00
C714   C     0.99366   0.17621   0.73766   0.00000  Uiso   1.00
C715   C     0.67378   0.15746   0.76213   0.00000  Uiso   1.00
C716   C     0.76463   0.21466   0.92089   0.00000  Uiso   1.00
C717   C     0.84755   0.32215   0.73818   0.00000  Uiso   1.00
C718   C     0.81818   0.01206   0.76208   0.00000  Uiso   1.00
C719   C     0.82257   0.05610   0.75889   0.00000  Uiso   1.00
C720   C     0.84351   0.27766   0.74137   0.00000  Uiso   1.00
C721   C     0.85479   0.14522   0.64407   0.00000  Uiso   1.00
C722   C     0.81203   0.18765   0.85619   0.00000  Uiso   1.00
C723   C     0.79960   0.19294   0.89946   0.00000  Uiso   1.00
C724   C     0.86282   0.13648   0.60169   0.00000  Uiso   1.00
C725   C     0.75166   0.21697   0.96180   0.00000  Uiso   1.00
C726   C     0.81227   0.06890   0.92288   0.00000  Uiso   1.00
C727   C     0.82123   0.17357   0.91943   0.00000  Uiso   1.00
C728   C     0.80617   0.17205   0.96038   0.00000  Uiso   1.00
C729   C     0.77244   0.19626   0.98168   0.00000  Uiso   1.00
C730   C     0.82524   0.14912   0.98092   0.00000  Uiso   1.00
C731   C     0.81655   0.15820   0.52257   0.00000  Uiso   1.00
C732   C     0.78273   0.18267   0.54275   0.00000  Uiso   1.00
C733   C     0.76032   0.20025   0.52259   0.00000  Uiso   1.00
H734   H     0.73435   0.21844   0.53920   0.00000  Uiso   1.00
H735   H     0.72529   0.23487   0.97792   0.00000  Uiso   1.00
H736   H     0.74737   0.22994   0.90610   0.00000  Uiso   1.00
H737   H     0.85063   0.16091   0.90256   0.00000  Uiso   1.00
H738   H     0.77188   0.18802   0.57434   0.00000  Uiso   1.00
H739   H     0.87881   0.08289   0.90859   0.00000  Uiso   1.00
H740   H     0.81372   0.05623   0.89201   0.00000  Uiso   1.00
H741   H     0.78336   0.08600   0.93478   0.00000  Uiso   1.00
H742   H     0.80914   0.04242   0.94041   0.00000  Uiso   1.00
H743   H     0.92116   0.07741   0.52438   0.00000  Uiso   1.00
H744   H     0.68333   0.19347   0.71504   0.00000  Uiso   1.00
H745   H     0.98478   0.14016   0.78503   0.00000  Uiso   1.00
H746   H     0.87468   0.00278   0.71620   0.00000  Uiso   1.00
H747   H     0.79064   0.33220   0.78411   0.00000  Uiso   1.00
H748   H     0.81566   0.17415   0.60121   0.00000  Uiso   1.00
H749   H     0.91237   0.09663   0.59494   0.00000  Uiso   1.00
H750   H     0.89733   0.07800   0.96663   0.00000  Uiso   1.00
N751   N     0.85124   0.09653   0.92378   0.00000  Uiso   1.00
O752   O     0.83333   0.16667   0.75000   0.00000  Uiso   1.00
O753   O     0.82360   0.12393   0.66625   0.00000  Uiso   1.00
O754   O     0.79354   0.20646   0.83749   0.00000  Uiso   1.00
O755   O     0.87755   0.17493   0.65877   0.00000  Uiso   1.00
O756   O     0.83865   0.16135   0.83749   0.00000  Uiso   1.00
O757   O     0.84515   0.08101   0.77820   0.00000  Uiso   1.00
O758   O     0.81247   0.26136   0.76767   0.00000  Uiso   1.00
O759   O     0.74119   0.13251   0.73607   0.00000  Uiso   1.00
O760   O     0.93452   0.19179   0.71806   0.00000  Uiso   1.00
O761   O     0.73656   0.18960   0.77820   0.00000  Uiso   1.00
O762   O     0.92106   0.15277   0.76767   0.00000  Uiso   1.00
O763   O     0.80467   0.06903   0.73607   0.00000  Uiso   1.00
O764   O     0.87104   0.25527   0.71806   0.00000  Uiso   1.00
Zn765  Zn    0.85910   0.14090   0.78277   0.00000  Uiso   1.00
Zn766  Zn    0.80125   0.12378   0.72257   0.00000  Uiso   1.00
Zn767  Zn    0.87833   0.19664   0.71188   0.00000  Uiso   1.00
Zn768  Zn    0.79465   0.20535   0.78277   0.00000  Uiso   1.00
C769   C     0.05249   0.49323   0.75872   0.00000  Uiso   1.00
C770   C     0.18516   0.45023   0.96176   0.00000  Uiso   1.00
C771   C     0.20951   0.43485   0.98186   0.00000  Uiso   1.00
C772   C     0.28104   0.50689   0.74122   0.00000  Uiso   1.00
C773   C     0.20560   0.44780   0.52145   0.00000  Uiso   1.00
C774   C     0.17488   0.47535   0.54266   0.00000  Uiso   1.00
C775   C     0.23117   0.43201   0.54042   0.00000  Uiso   1.00
C776   C     0.22642   0.44298   0.58042   0.00000  Uiso   1.00
C777   C     0.17098   0.48619   0.58314   0.00000  Uiso   1.00
C778   C     0.32699   0.50954   0.73766   0.00000  Uiso   1.00
C779   C     0.00711   0.49080   0.76213   0.00000  Uiso   1.00
C780   C     0.09796   0.54799   0.92089   0.00000  Uiso   1.00
C781   C     0.18088   0.65548   0.73818   0.00000  Uiso   1.00
C782   C     0.15151   0.34540   0.76208   0.00000  Uiso   1.00
C783   C     0.15591   0.38943   0.75889   0.00000  Uiso   1.00
C784   C     0.17685   0.61099   0.74137   0.00000  Uiso   1.00
C785   C     0.18813   0.47855   0.64407   0.00000  Uiso   1.00
C786   C     0.14536   0.52098   0.85619   0.00000  Uiso   1.00
C787   C     0.13294   0.52628   0.89946   0.00000  Uiso   1.00
C788   C     0.19615   0.46981   0.60169   0.00000  Uiso   1.00
C789   C     0.08500   0.55030   0.96180   0.00000  Uiso   1.00
C790   C     0.14560   0.40223   0.92288   0.00000  Uiso   1.00
C791   C     0.15456   0.50691   0.91943   0.00000  Uiso   1.00
C792   C     0.13951   0.50538   0.96038   0.00000  Uiso   1.00
C793   C     0.10577   0.52959   0.98168   0.00000  Uiso   1.00
C794   C     0.15857   0.48245   0.98092   0.00000  Uiso   1.00
C795   C     0.14988   0.49153   0.52257   0.00000  Uiso   1.00
C796   C     0.11606   0.51601   0.54275   0.00000  Uiso   1.00
C797   C     0.09366   0.53358   0.52259   0.00000  Uiso   1.00
H798   H     0.06768   0.55178   0.53920   0.00000  Uiso   1.00
H799   H     0.05863   0.56820   0.97792   0.00000  Uiso   1.00
H800   H     0.08071   0.56327   0.90610   0.00000  Uiso   1.00
H801   H     0.18396   0.49424   0.90256   0.00000  Uiso   1.00
H802   H     0.10521   0.52136   0.57434   0.00000  Uiso   1.00
H803   H     0.21214   0.41623   0.90859   0.00000  Uiso   1.00
H804   H     0.14705   0.38957   0.89201   0.00000  Uiso   1.00
H805   H     0.11669   0.41934   0.93478   0.00000  Uiso   1.00
H806   H     0.14247   0.37576   0.94041   0.00000  Uiso   1.00
H807   H     0.25449   0.41074   0.52438   0.00000  Uiso   1.00
H808   H     0.01666   0.52680   0.71504   0.00000  Uiso   1.00
H809   H     0.31811   0.47349   0.78503   0.00000  Uiso   1.00
H810   H     0.20802   0.33611   0.71620   0.00000  Uiso   1.00
H811   H     0.12398   0.66554   0.78411   0.00000  Uiso   1.00
H812   H     0.14899   0.50749   0.60121   0.00000  Uiso   1.00
H813   H     0.24571   0.42996   0.59494   0.00000  Uiso   1.00
H814   H     0.23066   0.41133   0.96663   0.00000  Uiso   1.00
N815   N     0.18457   0.42986   0.92378   0.00000  Uiso   1.00
O816   O     0.16667   0.50000   0.75000   0.00000  Uiso   1.00
O817   O     0.15693   0.45726   0.66625   0.00000  Uiso   1.00
O818   O     0.12687   0.53979   0.83749   0.00000  Uiso   1.00
O819   O     0.21088   0.50826   0.65877   0.00000  Uiso   1.00
O820   O     0.17198   0.49468   0.83749   0.00000  Uiso   1.00
O821   O     0.17849   0.41434   0.77820   0.00000  Uiso   1.00
O822   O     0.14581   0.59469   0.76767   0.00000  Uiso   1.00
O823   O     0.07452   0.46584   0.73607   0.00000  Uiso   1.00
O824   O     0.26785   0.52512   0.71806   0.00000  Uiso   1.00
O825   O     0.06990   0.52293   0.77820   0.00000  Uiso   1.00
O826   O     0.25440   0.48610   0.76767   0.00000  Uiso   1.00
O827   O     0.13800   0.40236   0.73607   0.00000  Uiso   1.00
O828   O     0.20437   0.58860   0.71806   0.00000  Uiso   1.00
Zn829  Zn    0.19244   0.47423   0.78277   0.00000  Uiso   1.00
Zn830  Zn    0.13459   0.45711   0.72257   0.00000  Uiso   1.00
Zn831  Zn    0.21166   0.52997   0.71188   0.00000  Uiso   1.00
Zn832  Zn    0.12798   0.53868   0.78277   0.00000  Uiso   1.00
C833   C     0.38582   0.49323   0.75872   0.00000  Uiso   1.00
C834   C     0.51849   0.45023   0.96176   0.00000  Uiso   1.00
C835   C     0.54284   0.43485   0.98186   0.00000  Uiso   1.00
C836   C     0.61437   0.50689   0.74122   0.00000  Uiso   1.00
C837   C     0.53894   0.44780   0.52145   0.00000  Uiso   1.00
C838   C     0.50821   0.47535   0.54266   0.00000  Uiso   1.00
C839   C     0.56451   0.43201   0.54042   0.00000  Uiso   1.00
C840   C     0.55975   0.44298   0.58042   0.00000  Uiso   1.00
C841   C     0.50431   0.48619   0.58314   0.00000  Uiso   1.00
C842   C     0.66033   0.50954   0.73766   0.00000  Uiso   1.00
C843   C     0.34045   0.49080   0.76213   0.00000  Uiso   1.00
C844   C     0.43129   0.54799   0.92089   0.00000  Uiso   1.00
C845   C     0.51422   0.65548   0.73818   0.00000  Uiso   1.00
C846   C     0.48485   0.34540   0.76208   0.00000  Uiso   1.00
C847   C     0.48924   0.38943   0.75889   0.00000  Uiso   1.00
C848   C     0.51018   0.61099   0.74137   0.00000  Uiso   1.00
C849   C     0.52146   0.47855   0.64407   0.00000  Uiso   1.00
C850   C     0.47870   0.52098   0.85619   0.00000  Uiso   1.00
C851   C     0.46627   0.52628   0.89946   0.00000  Uiso   1.00
C852   C     0.52948   0.46981   0.60169   0.00000  Uiso   1.00
C853   C     0.41833   0.55030   0.96180   0.00000  Uiso   1.00
C854   C     0.47894   0.40223   0.92288   0.00000  Uiso   1.00
C855   C     0.48790   0.50691   0.91943   0.00000  Uiso   1.00
C856   C     0.47284   0.50538   0.96038   0.00000  Uiso   1.00
C857   C     0.43910   0.52959   0.98168   0.00000  Uiso   1.00
C858   C     0.49190   0.48245   0.98092   0.00000  Uiso   1.00
C859   C     0.48321   0.49153   0.52257   0.00000  Uiso   1.00
C860   C     0.44939   0.51601   0.54275   0.00000  Uiso   1.00
C861   C     0.42699   0.53358   0.52259   0.00000  Uiso   1.00
H862   H     0.40102   0.55178   0.53920   0.00000  Uiso   1.00
H863   H     0.39196   0.56820   0.97792   0.00000  Uiso   1.00
H864   H     0.41404   0.56327   0.90610   0.00000  Uiso   1.00
H865   H     0.51729   0.49424   0.90256   0.00000  Uiso   1.00
H866   H     0.43854   0.52136   0.57434   0.00000  Uiso   1.00
H867   H     0.54548   0.41623   0.90859   0.00000  Uiso   1.00
H868   H     0.48039   0.38957   0.89201   0.00000  Uiso   1.00
H869   H     0.45003   0.41934   0.93478   0.00000  Uiso   1.00
H870   H     0.47580   0.37576   0.94041   0.00000  Uiso   1.00
H871   H     0.58782   0.41074   0.52438   0.00000  Uiso   1.00
H872   H     0.34999   0.52680   0.71504   0.00000  Uiso   1.00
H873   H     0.65144   0.47349   0.78503   0.00000  Uiso   1.00
H874   H     0.54135   0.33611   0.71620   0.00000  Uiso   1.00
H875   H     0.45731   0.66554   0.78411   0.00000  Uiso   1.00
H876   H     0.48233   0.50749   0.60121   0.00000  Uiso   1.00
H877   H     0.57904   0.42996   0.59494   0.00000  Uiso   1.00
H878   H     0.56400   0.41133   0.96663   0.00000  Uiso   1.00
N879   N     0.51791   0.42986   0.92378   0.00000  Uiso   1.00
O880   O     0.50000   0.50000   0.75000   0.00000  Uiso   1.00
O881   O     0.49027   0.45726   0.66625   0.00000  Uiso   1.00
O882   O     0.46020   0.53979   0.83749   0.00000  Uiso   1.00
O883   O     0.54421   0.50826   0.65877   0.00000  Uiso   1.00
O884   O     0.50532   0.49468   0.83749   0.00000  Uiso   1.00
O885   O     0.51182   0.41434   0.77820   0.00000  Uiso   1.00
O886   O     0.47914   0.59469   0.76767   0.00000  Uiso   1.00
O887   O     0.40785   0.46584   0.73607   0.00000  Uiso   1.00
O888   O     0.60119   0.52512   0.71806   0.00000  Uiso   1.00
O889   O     0.40323   0.52293   0.77820   0.00000  Uiso   1.00
O890   O     0.58773   0.48610   0.76767   0.00000  Uiso   1.00
O891   O     0.47133   0.40236   0.73607   0.00000  Uiso   1.00
O892   O     0.53771   0.58860   0.71806   0.00000  Uiso   1.00
Zn893  Zn    0.52577   0.47423   0.78277   0.00000  Uiso   1.00
Zn894  Zn    0.46792   0.45711   0.72257   0.00000  Uiso   1.00
Zn895  Zn    0.54500   0.52997   0.71188   0.00000  Uiso   1.00
Zn896  Zn    0.46131   0.53868   0.78277   0.00000  Uiso   1.00
C897   C     0.71915   0.49323   0.75872   0.00000  Uiso   1.00
C898   C     0.85182   0.45023   0.96176   0.00000  Uiso   1.00
C899   C     0.87617   0.43485   0.98186   0.00000  Uiso   1.00
C900   C     0.94770   0.50689   0.74122   0.00000  Uiso   1.00
C901   C     0.87227   0.44780   0.52145   0.00000  Uiso   1.00
C902   C     0.84154   0.47535   0.54266   0.00000  Uiso   1.00
C903   C     0.89784   0.43201   0.54042   0.00000  Uiso   1.00
C904   C     0.89308   0.44298   0.58042   0.00000  Uiso   1.00
C905   C     0.83764   0.48619   0.58314   0.00000  Uiso   1.00
C906   C     0.99366   0.50954   0.73766   0.00000  Uiso   1.00
C907   C     0.67378   0.49080   0.76213   0.00000  Uiso   1.00
C908   C     0.76463   0.54799   0.92089   0.00000  Uiso   1.00
C909   C     0.84755   0.65548   0.73818   0.00000  Uiso   1.00
C910   C     0.81818   0.34540   0.76208   0.00000  Uiso   1.00
C911   C     0.82257   0.38943   0.75889   0.00000  Uiso   1.00
C912   C     0.84351   0.61099   0.74137   0.00000  Uiso   1.00
C913   C     0.85479   0.47855   0.64407   0.00000  Uiso   1.00
C914   C     0.81203   0.52098   0.85619   0.00000  Uiso   1.00
C915   C     0.79960   0.52628   0.89946   0.00000  Uiso   1.00
C916   C     0.86282   0.46981   0.60169   0.00000  Uiso   1.00
C917   C     0.75166   0.55030   0.96180   0.00000  Uiso   1.00
C918   C     0.81227   0.40223   0.92288   0.00000  Uiso   1.00
C919   C     0.82123   0.50691   0.91943   0.00000  Uiso   1.00
C920   C     0.80617   0.50538   0.96038   0.00000  Uiso   1.00
C921   C     0.77244   0.52959   0.98168   0.00000  Uiso   1.00
C922   C     0.82524   0.48245   0.98092   0.00000  Uiso   1.00
C923   C     0.81655   0.49153   0.52257   0.00000  Uiso   1.00
C924   C     0.78273   0.51601   0.54275   0.00000  Uiso   1.00
C925   C     0.76032   0.53358   0.52259   0.00000  Uiso   1.00
H926   H     0.73435   0.55178   0.53920   0.00000  Uiso   1.00
H927   H     0.72529   0.56820   0.97792   0.00000  Uiso   1.00
H928   H     0.74737   0.56327   0.90610   0.00000  Uiso   1.00
H929   H     0.85063   0.49424   0.90256   0.00000  Uiso   1.00
H930   H     0.77188   0.52136   0.57434   0.00000  Uiso   1.00
H931   H     0.87881   0.41623   0.90859   0.00000  Uiso   1.00
H932   H     0.81372   0.38957   0.89201   0.00000  Uiso   1.00
H933   H     0.78336   0.41934   0.93478   0.00000  Uiso   1.00
H934   H     0.80914   0.37576   0.94041   0.00000  Uiso   1.00
H935   H     0.92116   0.41074   0.52438   0.00000  Uiso   1.00
H936   H     0.68333   0.52680   0.71504   0.00000  Uiso   1.00
H937   H     0.98478   0.47349   0.78503   0.00000  Uiso   1.00
H938   H     0.87468   0.33611   0.71620   0.00000  Uiso   1.00
H939   H     0.79064   0.66554   0.78411   0.00000  Uiso   1.00
H940   H     0.81566   0.50749   0.60121   0.00000  Uiso   1.00
H941   H     0.91237   0.42996   0.59494   0.00000  Uiso   1.00
H942   H     0.89733   0.41133   0.96663   0.00000  Uiso   1.00
N943   N     0.85124   0.42986   0.92378   0.00000  Uiso   1.00
O944   O     0.83333   0.50000   0.75000   0.00000  Uiso   1.00
O945   O     0.82360   0.45726   0.66625   0.00000  Uiso   1.00
O946   O     0.79354   0.53979   0.83749   0.00000  Uiso   1.00
O947   O     0.87755   0.50826   0.65877   0.00000  Uiso   1.00
O948   O     0.83865   0.49468   0.83749   0.00000  Uiso   1.00
O949   O     0.84515   0.41434   0.77820   0.00000  Uiso   1.00
O950   O     0.81247   0.59469   0.76767   0.00000  Uiso   1.00
O951   O     0.74119   0.46584   0.73607   0.00000  Uiso   1.00
O952   O     0.93452   0.52512   0.71806   0.00000  Uiso   1.00
O953   O     0.73656   0.52293   0.77820   0.00000  Uiso   1.00
O954   O     0.92106   0.48610   0.76767   0.00000  Uiso   1.00
O955   O     0.80467   0.40236   0.73607   0.00000  Uiso   1.00
O956   O     0.87104   0.58860   0.71806   0.00000  Uiso   1.00
Zn957  Zn    0.85910   0.47423   0.78277   0.00000  Uiso   1.00
Zn958  Zn    0.80125   0.45711   0.72257   0.00000  Uiso   1.00
Zn959  Zn    0.87833   0.52997   0.71188   0.00000  Uiso   1.00
Zn960  Zn    0.79465   0.53868   0.78277   0.00000  Uiso   1.00
C961   C     0.05249   0.82657   0.75872   0.00000  Uiso   1.00
C962   C     0.18516   0.78356   0.96176   0.00000  Uiso   1.00
C963   C     0.20951   0.76818   0.98186   0.00000  Uiso   1.00
C964   C     0.28104   0.84022   0.74122   0.00000  Uiso   1.00
C965   C     0.20560   0.78113   0.52145   0.00000  Uiso   1.00
C966   C     0.17488   0.80869   0.54266   0.00000  Uiso   1.00
C967   C     0.23117   0.76535   0.54042   0.00000  Uiso   1.00
C968   C     0.22642   0.77631   0.58042   0.00000  Uiso   1.00
C969   C     0.17098   0.81952   0.58314   0.00000  Uiso   1.00
C970   C     0.32699   0.84287   0.73766   0.00000  Uiso   1.00
C971   C     0.00711   0.82413   0.76213   0.00000  Uiso   1.00
C972   C     0.09796   0.88132   0.92089   0.00000  Uiso   1.00
C973   C     0.18088   0.98882   0.73818   0.00000  Uiso   1.00
C974   C     0.15151   0.67873   0.76208   0.00000  Uiso   1.00
C975   C     0.15591   0.72277   0.75889   0.00000  Uiso   1.00
C976   C     0.17685   0.94433   0.74137   0.00000  Uiso   1.00
C977   C     0.18813   0.81189   0.64407   0.00000  Uiso   1.00
C978   C     0.14536   0.85432   0.85619   0.00000  Uiso   1.00
C979   C     0.13294   0.85961   0.89946   0.00000  Uiso   1.00
C980   C     0.19615   0.80315   0.60169   0.00000  Uiso   1.00
C981   C     0.08500   0.88364   0.96180   0.00000  Uiso   1.00
C982   C     0.14560   0.73556   0.92288   0.00000  Uiso   1.00
C983   C     0.15456   0.84024   0.91943   0.00000  Uiso   1.00
C984   C     0.13951   0.83872   0.96038   0.00000  Uiso   1.00
C985   C     0.10577   0.86293   0.98168   0.00000  Uiso   1.00
C986   C     0.15857   0.81579   0.98092   0.00000  Uiso   1.00
C987   C     0.14988   0.82487   0.52257   0.00000  Uiso   1.00
C988   C     0.11606   0.84934   0.54275   0.00000  Uiso   1.00
C989   C     0.09366   0.86692   0.52259   0.00000  Uiso   1.00
H990   H     0.06768   0.88511   0.53920   0.00000  Uiso   1.00
H991   H     0.05863   0.90154   0.97792   0.00000  Uiso   1.00
H992   H     0.08071   0.89660   0.90610   0.00000  Uiso   1.00
H993   H     0.18396   0.82757   0.90256   0.00000  Uiso   1.00
H994   H     0.10521   0.85469   0.57434   0.00000  Uiso   1.00
H995   H     0.21214   0.74956   0.90859   0.00000  Uiso   1.00
H996   H     0.14705   0.72290   0.89201   0.00000  Uiso   1.00
H997   H     0.11669   0.75267   0.93478   0.00000  Uiso   1.00
H998   H     0.14247   0.70909   0.94041   0.00000  Uiso   1.00
H999   H     0.25449   0.74407   0.52438   0.00000  Uiso   1.00
H1000  H     0.01666   0.86013   0.71504   0.00000  Uiso   1.00
H1001  H     0.31811   0.80682   0.78503   0.00000  Uiso   1.00
H1002  H     0.20802   0.66944   0.71620   0.00000  Uiso   1.00
H1003  H     0.12398   0.99887   0.78411   0.00000  Uiso   1.00
H1004  H     0.14899   0.84082   0.60121   0.00000  Uiso   1.00
H1005  H     0.24571   0.76330   0.59494   0.00000  Uiso   1.00
H1006  H     0.23066   0.74466   0.96663   0.00000  Uiso   1.00
N1007  N     0.18457   0.76320   0.92378   0.00000  Uiso   1.00
O1008  O     0.16667   0.83333   0.75000   0.00000  Uiso   1.00
O1009  O     0.15693   0.79060   0.66625   0.00000  Uiso   1.00
O1010  O     0.12687   0.87313   0.83749   0.00000  Uiso   1.00
O1011  O     0.21088   0.84159   0.65877   0.00000  Uiso   1.00
O1012  O     0.17198   0.82802   0.83749   0.00000  Uiso   1.00
O1013  O     0.17849   0.74768   0.77820   0.00000  Uiso   1.00
O1014  O     0.14581   0.92803   0.76767   0.00000  Uiso   1.00
O1015  O     0.07452   0.79917   0.73607   0.00000  Uiso   1.00
O1016  O     0.26785   0.85845   0.71806   0.00000  Uiso   1.00
O1017  O     0.06990   0.85627   0.77820   0.00000  Uiso   1.00
O1018  O     0.25440   0.81944   0.76767   0.00000  Uiso   1.00
O1019  O     0.13800   0.73570   0.73607   0.00000  Uiso   1.00
O1020  O     0.20437   0.92193   0.71806   0.00000  Uiso   1.00
Zn1021 Zn    0.19244   0.80756   0.78277   0.00000  Uiso   1.00
Zn1022 Zn    0.13459   0.79044   0.72257   0.00000  Uiso   1.00
Zn1023 Zn    0.21166   0.86331   0.71188   0.00000  Uiso   1.00
Zn1024 Zn    0.12798   0.87202   0.78277   0.00000  Uiso   1.00
C1025  C     0.38582   0.82657   0.75872   0.00000  Uiso   1.00
C1026  C     0.51849   0.78356   0.96176   0.00000  Uiso   1.00
C1027  C     0.54284   0.76818   0.98186   0.00000  Uiso   1.00
C1028  C     0.61437   0.84022   0.74122   0.00000  Uiso   1.00
C1029  C     0.53894   0.78113   0.52145   0.00000  Uiso   1.00
C1030  C     0.50821   0.80869   0.54266   0.00000  Uiso   1.00
C1031  C     0.56451   0.76535   0.54042   0.00000  Uiso   1.00
C1032  C     0.55975   0.77631   0.58042   0.00000  Uiso   1.00
C1033  C     0.50431   0.81952   0.58314   0.00000  Uiso   1.00
C1034  C     0.66033   0.84287   0.73766   0.00000  Uiso   1.00
C1035  C     0.34045   0.82413   0.76213   0.00000  Uiso   1.00
C1036  C     0.43129   0.88132   0.92089   0.00000  Uiso   1.00
C1037  C     0.51422   0.98882   0.73818   0.00000  Uiso   1.00
C1038  C     0.48485   0.67873   0.76208   0.00000  Uiso   1.00
C1039  C     0.48924   0.72277   0.75889   0.00000  Uiso   1.00
C1040  C     0.51018   0.94433   0.74137   0.00000  Uiso   1.00
C1041  C     0.52146   0.81189   0.64407   0.00000  Uiso   1.00
C1042  C     0.47870   0.85432   0.85619   0.00000  Uiso   1.00
C1043  C     0.46627   0.85961   0.89946   0.00000  Uiso   1.00
C1044  C     0.52948   0.80315   0.60169   0.00000  Uiso   1.00
C1045  C     0.41833   0.88364   0.96180   0.00000  Uiso   1.00
C1046  C     0.47894   0.73556   0.92288   0.00000  Uiso   1.00
C1047  C     0.48790   0.84024   0.91943   0.00000  Uiso   1.00
C1048  C     0.47284   0.83872   0.96038   0.00000  Uiso   1.00
C1049  C     0.43910   0.86293   0.98168   0.00000  Uiso   1.00
C1050  C     0.49190   0.81579   0.98092   0.00000  Uiso   1.00
C1051  C     0.48321   0.82487   0.52257   0.00000  Uiso   1.00
C1052  C     0.44939   0.84934   0.54275   0.00000  Uiso   1.00
C1053  C     0.42699   0.86692   0.52259   0.00000  Uiso   1.00
H1054  H     0.40102   0.88511   0.53920   0.00000  Uiso   1.00
H1055  H     0.39196   0.90154   0.97792   0.00000  Uiso   1.00
H1056  H     0.41404   0.89660   0.90610   0.00000  Uiso   1.00
H1057  H     0.51729   0.82757   0.90256   0.00000  Uiso   1.00
H1058  H     0.43854   0.85469   0.57434   0.00000  Uiso   1.00
H1059  H     0.54548   0.74956   0.90859   0.00000  Uiso   1.00
H1060  H     0.48039   0.72290   0.89201   0.00000  Uiso   1.00
H1061  H     0.45003   0.75267   0.93478   0.00000  Uiso   1.00
H1062  H     0.47580   0.70909   0.94041   0.00000  Uiso   1.00
H1063  H     0.58782   0.74407   0.52438   0.00000  Uiso   1.00
H1064  H     0.34999   0.86013   0.71504   0.00000  Uiso   1.00
H1065  H     0.65144   0.80682   0.78503   0.00000  Uiso   1.00
H1066  H     0.54135   0.66944   0.71620   0.00000  Uiso   1.00
H1067  H     0.45731   0.99887   0.78411   0.00000  Uiso   1.00
H1068  H     0.48233   0.84082   0.60121   0.00000  Uiso   1.00
H1069  H     0.57904   0.76330   0.59494   0.00000  Uiso   1.00
H1070  H     0.56400   0.74466   0.96663   0.00000  Uiso   1.00
N1071  N     0.51791   0.76320   0.92378   0.00000  Uiso   1.00
O1072  O     0.50000   0.83333   0.75000   0.00000  Uiso   1.00
O1073  O     0.49027   0.79060   0.66625   0.00000  Uiso   1.00
O1074  O     0.46020   0.87313   0.83749   0.00000  Uiso   1.00
O1075  O     0.54421   0.84159   0.65877   0.00000  Uiso   1.00
O1076  O     0.50532   0.82802   0.83749   0.00000  Uiso   1.00
O1077  O     0.51182   0.74768   0.77820   0.00000  Uiso   1.00
O1078  O     0.47914   0.92803   0.76767   0.00000  Uiso   1.00
O1079  O     0.40785   0.79917   0.73607   0.00000  Uiso   1.00
O1080  O     0.60119   0.85845   0.71806   0.00000  Uiso   1.00
O1081  O     0.40323   0.85627   0.77820   0.00000  Uiso   1.00
O1082  O     0.58773   0.81944   0.76767   0.00000  Uiso   1.00
O1083  O     0.47133   0.73570   0.73607   0.00000  Uiso   1.00
O1084  O     0.53771   0.92193   0.71806   0.00000  Uiso   1.00
Zn1085 Zn    0.52577   0.80756   0.78277   0.00000  Uiso   1.00
Zn1086 Zn    0.46792   0.79044   0.72257   0.00000  Uiso   1.00
Zn1087 Zn    0.54500   0.86331   0.71188   0.00000  Uiso   1.00
Zn1088 Zn    0.46131   0.87202   0.78277   0.00000  Uiso   1.00
C1089  C     0.71915   0.82657   0.75872   0.00000  Uiso   1.00
C1090  C     0.85182   0.78356   0.96176   0.00000  Uiso   1.00
C1091  C     0.87617   0.76818   0.98186   0.00000  Uiso   1.00
C1092  C     0.94770   0.84022   0.74122   0.00000  Uiso   1.00
C1093  C     0.87227   0.78113   0.52145   0.00000  Uiso   1.00
C1094  C     0.84154   0.80869   0.54266   0.00000  Uiso   1.00
C1095  C     0.89784   0.76535   0.54042   0.00000  Uiso   1.00
C1096  C     0.89308   0.77631   0.58042   0.00000  Uiso   1.00
C1097  C     0.83764   0.81952   0.58314   0.00000  Uiso   1.00
C1098  C     0.99366   0.84287   0.73766   0.00000  Uiso   1.00
C1099  C     0.67378   0.82413   0.76213   0.00000  Uiso   1.00
C1100  C     0.76463   0.88132   0.92089   0.00000  Uiso   1.00
C1101  C     0.84755   0.98882   0.73818   0.00000  Uiso   1.00
C1102  C     0.81818   0.67873   0.76208   0.00000  Uiso   1.00
C1103  C     0.82257   0.72277   0.75889   0.00000  Uiso   1.00
C1104  C     0.84351   0.94433   0.74137   0.00000  Uiso   1.00
C1105  C     0.85479   0.81189   0.64407   0.00000  Uiso   1.00
C1106  C     0.81203   0.85432   0.85619   0.00000  Uiso   1.00
C1107  C     0.79960   0.85961   0.89946   0.00000  Uiso   1.00
C1108  C     0.86282   0.80315   0.60169   0.00000  Uiso   1.00
C1109  C     0.75166   0.88364   0.96180   0.00000  Uiso   1.00
C1110  C     0.81227   0.73556   0.92288   0.00000  Uiso   1.00
C1111  C     0.82123   0.84024   0.91943   0.00000  Uiso   1.00
C1112  C     0.80617   0.83872   0.96038   0.00000  Uiso   1.00
C1113  C     0.77244   0.86293   0.98168   0.00000  Uiso   1.00
C1114  C     0.82524   0.81579   0.98092   0.00000  Uiso   1.00
C1115  C     0.81655   0.82487   0.52257   0.00000  Uiso   1.00
C1116  C     0.78273   0.84934   0.54275   0.00000  Uiso   1.00
C1117  C     0.76032   0.86692   0.52259   0.00000  Uiso   1.00
H1118  H     0.73435   0.88511   0.53920   0.00000  Uiso   1.00
H1119  H     0.72529   0.90154   0.97792   0.00000  Uiso   1.00
H1120  H     0.74737   0.89660   0.90610   0.00000  Uiso   1.00
H1121  H     0.85063   0.82757   0.90256   0.00000  Uiso   1.00
H1122  H     0.77188   0.85469   0.57434   0.00000  Uiso   1.00
H1123  H     0.87881   0.74956   0.90859   0.00000  Uiso   1.00
H1124  H     0.81372   0.72290   0.89201   0.00000  Uiso   1.00
H1125  H     0.78336   0.75267   0.93478   0.00000  Uiso   1.00
H1126  H     0.80914   0.70909   0.94041   0.00000  Uiso   1.00
H1127  H     0.92116   0.74407   0.52438   0.00000  Uiso   1.00
H1128  H     0.68333   0.86013   0.71504   0.00000  Uiso   1.00
H1129  H     0.98478   0.80682   0.78503   0.00000  Uiso   1.00
H1130  H     0.87468   0.66944   0.71620   0.00000  Uiso   1.00
H1131  H     0.79064   0.99887   0.78411   0.00000  Uiso   1.00
H1132  H     0.81566   0.84082   0.60121   0.00000  Uiso   1.00
H1133  H     0.91237   0.76330   0.59494   0.00000  Uiso   1.00
H1134  H     0.89733   0.74466   0.96663   0.00000  Uiso   1.00
N1135  N     0.85124   0.76320   0.92378   0.00000  Uiso   1.00
O1136  O     0.83333   0.83333   0.75000   0.00000  Uiso   1.00
O1137  O     0.82360   0.79060   0.66625   0.00000  Uiso   1.00
O1138  O     0.79354   0.87313   0.83749   0.00000  Uiso   1.00
O1139  O     0.87755   0.84159   0.65877   0.00000  Uiso   1.00
O1140  O     0.83865   0.82802   0.83749   0.00000  Uiso   1.00
O1141  O     0.84515   0.74768   0.77820   0.00000  Uiso   1.00
O1142  O     0.81247   0.92803   0.76767   0.00000  Uiso   1.00
O1143  O     0.74119   0.79917   0.73607   0.00000  Uiso   1.00
O1144  O     0.93452   0.85845   0.71806   0.00000  Uiso   1.00
O1145  O     0.73656   0.85627   0.77820   0.00000  Uiso   1.00
O1146  O     0.92106   0.81944   0.76767   0.00000  Uiso   1.00
O1147  O     0.80467   0.73570   0.73607   0.00000  Uiso   1.00
O1148  O     0.87104   0.92193   0.71806   0.00000  Uiso   1.00
Zn1149 Zn    0.85910   0.80756   0.78277   0.00000  Uiso   1.00
Zn1150 Zn    0.80125   0.79044   0.72257   0.00000  Uiso   1.00
Zn1151 Zn    0.87833   0.86331   0.71188   0.00000  Uiso   1.00
Zn1152 Zn    0.79465   0.87202   0.78277   0.00000  Uiso   1.00
loop_
_geom_bond_atom_site_label_1
_geom_bond_atom_site_label_2
_geom_bond_distance
_geom_bond_site_symmetry_2
_ccdc_geom_bond_type
C1     O57     1.269   .     A
C1     C11     1.438   .     S
C1     O55     1.269   .     A
C2     N47     1.426   .     S
C2     C3      1.395   .     A
C2     C26     1.428   .     A
C3     H46     1.085   .     S
C3     C581    1.391   .     S
C4     O56     1.282   .     A
C4     O58     1.279   .     A
C4     C10     1.455   .     S
C5     C6      1.419   .     A
C5     C7      1.404   .     A
C5     C579    1.391   1_554 S
C6     C27     1.425   .     A
C6     C9      1.411   .     A
C7     C8      1.391   .     A
C7     H39     1.084   .     S
C8     C20     1.394   .     A
C8     H45     1.083   .     S
C9     C20     1.393   .     A
C9     H44     1.078   .     S
C10    C75     1.335   .     S
C10    H104    1.088   .     S
C11    C138    1.335   1_455 S
C11    H169    1.086   1_455 S
C12    H32     1.083   .     S
C12    C19     1.401   .     A
C12    C21     1.392   .     A
C13    C16     1.451   .     S
C13    C206    1.332   .     S
C13    H234    1.088   .     S
C14    C15     1.436   .     S
C14    C397    1.332   1_545 S
C14    H427    1.086   1_545 S
C15    O59     1.276   .     A
C15    O53     1.276   .     A
C16    O54     1.272   .     A
C16    O60     1.271   .     A
C17    O51     1.275   .     A
C17    O49     1.273   .     A
C17    C20     1.452   .     S
C18    O52     1.285   .     A
C18    O50     1.282   .     A
C18    C19     1.471   .     S
C19    C23     1.398   .     A
C21    H31     1.084   .     S
C21    C25     1.403   .     A
C22    H38     1.112   .     S
C22    H37     1.111   .     S
C22    N47     1.447   .     S
C22    H36     1.110   .     S
C23    C24     1.407   .     A
C23    H33     1.078   .     S
C24    C26     1.428   .     A
C24    C25     1.417   .     A
C25    C605    1.391   .     S
C26    C603    1.427   .     S
C27    C28     1.415   .     A
C27    C602    1.427   1_554 S
C28    C29     1.387   .     A
C28    H34     1.077   .     S
C29    H30     1.084   .     S
C29    C601    1.391   1_554 S
H35    N47     1.032   .     S
H40    C138    1.088   1_455 S
H41    C75     1.086   .     S
H42    C397    1.088   1_545 S
H43    C206    1.086   .     S
O48    Zn62    1.940   .     S
O48    Zn61    1.959   .     S
O48    Zn64    1.933   .     S
O48    Zn63    1.936   .     S
O49    Zn62    1.931   .     S
O50    Zn64    1.939   .     S
O51    Zn63    1.933   .     S
O52    Zn61    1.926   .     S
O53    Zn61    1.927   .     S
O54    Zn64    1.932   .     S
O55    Zn62    1.929   .     S
O56    Zn63    1.937   .     S
O57    Zn64    1.932   .     S
O58    Zn61    1.925   .     S
O59    Zn62    1.937   .     S
O60    Zn63    1.930   .     S
C65    O121    1.269   .     A
C65    C75     1.438   .     S
C65    O119    1.269   .     A
C66    N111    1.426   .     S
C66    C67     1.395   .     A
C66    C90     1.428   .     A
C67    H110    1.085   .     S
C67    C645    1.391   .     S
C68    O120    1.282   .     A
C68    O122    1.279   .     A
C68    C74     1.455   .     S
C69    C70     1.419   .     A
C69    C71     1.404   .     A
C69    C643    1.391   1_554 S
C70    C91     1.425   .     A
C70    C73     1.411   .     A
C71    C72     1.391   .     A
C71    H103    1.084   .     S
C72    C84     1.394   .     A
C72    H109    1.083   .     S
C73    C84     1.393   .     A
C73    H108    1.078   .     S
C74    C139    1.335   .     S
C74    H168    1.088   .     S
C76    H96     1.083   .     S
C76    C83     1.401   .     A
C76    C85     1.392   .     A
C77    C80     1.451   .     S
C77    C270    1.332   .     S
C77    H298    1.088   .     S
C78    C79     1.436   .     S
C78    C461    1.332   1_545 S
C78    H491    1.086   1_545 S
C79    O123    1.276   .     A
C79    O117    1.276   .     A
C80    O118    1.272   .     A
C80    O124    1.271   .     A
C81    O115    1.275   .     A
C81    O113    1.273   .     A
C81    C84     1.452   .     S
C82    O116    1.285   .     A
C82    O114    1.282   .     A
C82    C83     1.471   .     S
C83    C87     1.398   .     A
C85    H95     1.084   .     S
C85    C89     1.403   .     A
C86    H102    1.112   .     S
C86    H101    1.111   .     S
C86    N111    1.447   .     S
C86    H100    1.110   .     S
C87    C88     1.407   .     A
C87    H97     1.078   .     S
C88    C90     1.428   .     A
C88    C89     1.417   .     A
C89    C669    1.391   .     S
C90    C667    1.427   .     S
C91    C92     1.415   .     A
C91    C666    1.427   1_554 S
C92    C93     1.387   .     A
C92    H98     1.077   .     S
C93    H94     1.084   .     S
C93    C665    1.391   1_554 S
H99    N111    1.032   .     S
H105   C139    1.086   .     S
H106   C461    1.088   1_545 S
H107   C270    1.086   .     S
O112   Zn126   1.940   .     S
O112   Zn125   1.959   .     S
O112   Zn128   1.933   .     S
O112   Zn127   1.936   .     S
O113   Zn126   1.931   .     S
O114   Zn128   1.939   .     S
O115   Zn127   1.933   .     S
O116   Zn125   1.926   .     S
O117   Zn125   1.927   .     S
O118   Zn128   1.932   .     S
O119   Zn126   1.929   .     S
O120   Zn127   1.937   .     S
O121   Zn128   1.932   .     S
O122   Zn125   1.925   .     S
O123   Zn126   1.937   .     S
O124   Zn127   1.930   .     S
C129   O185    1.269   .     A
C129   C139    1.438   .     S
C129   O183    1.269   .     A
C130   N175    1.426   .     S
C130   C131    1.395   .     A
C130   C154    1.428   .     A
C131   H174    1.085   .     S
C131   C709    1.391   .     S
C132   O184    1.282   .     A
C132   O186    1.279   .     A
C132   C138    1.455   .     S
C133   C134    1.419   .     A
C133   C135    1.404   .     A
C133   C707    1.391   1_554 S
C134   C155    1.425   .     A
C134   C137    1.411   .     A
C135   C136    1.391   .     A
C135   H167    1.084   .     S
C136   C148    1.394   .     A
C136   H173    1.083   .     S
C137   C148    1.393   .     A
C137   H172    1.078   .     S
C138   C11     1.335   1_655 S
C138   H40     1.088   1_655 S
C140   H160    1.083   .     S
C140   C147    1.401   .     A
C140   C149    1.392   .     A
C141   C144    1.451   .     S
C141   C334    1.332   .     S
C141   H362    1.088   .     S
C142   C143    1.436   .     S
C142   C525    1.332   1_545 S
C142   H555    1.086   1_545 S
C143   O187    1.276   .     A
C143   O181    1.276   .     A
C144   O182    1.272   .     A
C144   O188    1.271   .     A
C145   O179    1.275   .     A
C145   O177    1.273   .     A
C145   C148    1.452   .     S
C146   O180    1.285   .     A
C146   O178    1.282   .     A
C146   C147    1.471   .     S
C147   C151    1.398   .     A
C149   H159    1.084   .     S
C149   C153    1.403   .     A
C150   H166    1.112   .     S
C150   H165    1.111   .     S
C150   N175    1.447   .     S
C150   H164    1.110   .     S
C151   C152    1.407   .     A
C151   H161    1.078   .     S
C152   C154    1.428   .     A
C152   C153    1.417   .     A
C153   C733    1.391   .     S
C154   C731    1.427   .     S
C155   C156    1.415   .     A
C155   C730    1.427   1_554 S
C156   C157    1.387   .     A
C156   H162    1.077   .     S
C157   H158    1.084   .     S
C157   C729    1.391   1_554 S
H163   N175    1.032   .     S
H169   C11     1.086   1_655 S
H170   C525    1.088   1_545 S
H171   C334    1.086   .     S
O176   Zn190   1.940   .     S
O176   Zn189   1.959   .     S
O176   Zn192   1.933   .     S
O176   Zn191   1.936   .     S
O177   Zn190   1.931   .     S
O178   Zn192   1.939   .     S
O179   Zn191   1.933   .     S
O180   Zn189   1.926   .     S
O181   Zn189   1.927   .     S
O182   Zn192   1.932   .     S
O183   Zn190   1.929   .     S
O184   Zn191   1.937   .     S
O185   Zn192   1.932   .     S
O186   Zn189   1.925   .     S
O187   Zn190   1.937   .     S
O188   Zn191   1.930   .     S
C193   O249    1.269   .     A
C193   C203    1.438   .     S
C193   O247    1.269   .     A
C194   N239    1.426   .     S
C194   C195    1.395   .     A
C194   C218    1.428   .     A
C195   H238    1.085   .     S
C195   C773    1.391   .     S
C196   O248    1.282   .     A
C196   O250    1.279   .     A
C196   C202    1.455   .     S
C197   C198    1.419   .     A
C197   C199    1.404   .     A
C197   C771    1.391   1_554 S
C198   C219    1.425   .     A
C198   C201    1.411   .     A
C199   C200    1.391   .     A
C199   H231    1.084   .     S
C200   C212    1.394   .     A
C200   H237    1.083   .     S
C201   C212    1.393   .     A
C201   H236    1.078   .     S
C202   C267    1.335   .     S
C202   H296    1.088   .     S
C203   C330    1.335   1_455 S
C203   H361    1.086   1_455 S
C204   H224    1.083   .     S
C204   C211    1.401   .     A
C204   C213    1.392   .     A
C205   C208    1.451   .     S
C205   C398    1.332   .     S
C205   H426    1.088   .     S
C206   C207    1.436   .     S
C207   O251    1.276   .     A
C207   O245    1.276   .     A
C208   O246    1.272   .     A
C208   O252    1.271   .     A
C209   O243    1.275   .     A
C209   O241    1.273   .     A
C209   C212    1.452   .     S
C210   O244    1.285   .     A
C210   O242    1.282   .     A
C210   C211    1.471   .     S
C211   C215    1.398   .     A
C213   H223    1.084   .     S
C213   C217    1.403   .     A
C214   H230    1.112   .     S
C214   H229    1.111   .     S
C214   N239    1.447   .     S
C214   H228    1.110   .     S
C215   C216    1.407   .     A
C215   H225    1.078   .     S
C216   C218    1.428   .     A
C216   C217    1.417   .     A
C217   C797    1.391   .     S
C218   C795    1.427   .     S
C219   C220    1.415   .     A
C219   C794    1.427   1_554 S
C220   C221    1.387   .     A
C220   H226    1.077   .     S
C221   H222    1.084   .     S
C221   C793    1.391   1_554 S
H227   N239    1.032   .     S
H232   C330    1.088   1_455 S
H233   C267    1.086   .     S
H235   C398    1.086   .     S
O240   Zn254   1.940   .     S
O240   Zn253   1.959   .     S
O240   Zn256   1.933   .     S
O240   Zn255   1.936   .     S
O241   Zn254   1.931   .     S
O242   Zn256   1.939   .     S
O243   Zn255   1.933   .     S
O244   Zn253   1.926   .     S
O245   Zn253   1.927   .     S
O246   Zn256   1.932   .     S
O247   Zn254   1.929   .     S
O248   Zn255   1.937   .     S
O249   Zn256   1.932   .     S
O250   Zn253   1.925   .     S
O251   Zn254   1.937   .     S
O252   Zn255   1.930   .     S
C257   O313    1.269   .     A
C257   C267    1.438   .     S
C257   O311    1.269   .     A
C258   N303    1.426   .     S
C258   C259    1.395   .     A
C258   C282    1.428   .     A
C259   H302    1.085   .     S
C259   C837    1.391   .     S
C260   O312    1.282   .     A
C260   O314    1.279   .     A
C260   C266    1.455   .     S
C261   C262    1.419   .     A
C261   C263    1.404   .     A
C261   C835    1.391   1_554 S
C262   C283    1.425   .     A
C262   C265    1.411   .     A
C263   C264    1.391   .     A
C263   H295    1.084   .     S
C264   C276    1.394   .     A
C264   H301    1.083   .     S
C265   C276    1.393   .     A
C265   H300    1.078   .     S
C266   C331    1.335   .     S
C266   H360    1.088   .     S
C268   H288    1.083   .     S
C268   C275    1.401   .     A
C268   C277    1.392   .     A
C269   C272    1.451   .     S
C269   C462    1.332   .     S
C269   H490    1.088   .     S
C270   C271    1.436   .     S
C271   O315    1.276   .     A
C271   O309    1.276   .     A
C272   O310    1.272   .     A
C272   O316    1.271   .     A
C273   O307    1.275   .     A
C273   O305    1.273   .     A
C273   C276    1.452   .     S
C274   O308    1.285   .     A
C274   O306    1.282   .     A
C274   C275    1.471   .     S
C275   C279    1.398   .     A
C277   H287    1.084   .     S
C277   C281    1.403   .     A
C278   H294    1.112   .     S
C278   H293    1.111   .     S
C278   N303    1.447   .     S
C278   H292    1.110   .     S
C279   C280    1.407   .     A
C279   H289    1.078   .     S
C280   C282    1.428   .     A
C280   C281    1.417   .     A
C281   C861    1.391   .     S
C282   C859    1.427   .     S
C283   C284    1.415   .     A
C283   C858    1.427   1_554 S
C284   C285    1.387   .     A
C284   H290    1.077   .     S
C285   H286    1.084   .     S
C285   C857    1.391   1_554 S
H291   N303    1.032   .     S
H297   C331    1.086   .     S
H299   C462    1.086   .     S
O304   Zn318   1.940   .     S
O304   Zn317   1.959   .     S
O304   Zn320   1.933   .     S
O304   Zn319   1.936   .     S
O305   Zn318   1.931   .     S
O306   Zn320   1.939   .     S
O307   Zn319   1.933   .     S
O308   Zn317   1.926   .     S
O309   Zn317   1.927   .     S
O310   Zn320   1.932   .     S
O311   Zn318   1.929   .     S
O312   Zn319   1.937   .     S
O313   Zn320   1.932   .     S
O314   Zn317   1.925   .     S
O315   Zn318   1.937   .     S
O316   Zn319   1.930   .     S
C321   O377    1.269   .     A
C321   C331    1.438   .     S
C321   O375    1.269   .     A
C322   N367    1.426   .     S
C322   C323    1.395   .     A
C322   C346    1.428   .     A
C323   H366    1.085   .     S
C323   C901    1.391   .     S
C324   O376    1.282   .     A
C324   O378    1.279   .     A
C324   C330    1.455   .     S
C325   C326    1.419   .     A
C325   C327    1.404   .     A
C325   C899    1.391   1_554 S
C326   C347    1.425   .     A
C326   C329    1.411   .     A
C327   C328    1.391   .     A
C327   H359    1.084   .     S
C328   C340    1.394   .     A
C328   H365    1.083   .     S
C329   C340    1.393   .     A
C329   H364    1.078   .     S
C330   C203    1.335   1_655 S
C330   H232    1.088   1_655 S
C332   H352    1.083   .     S
C332   C339    1.401   .     A
C332   C341    1.392   .     A
C333   C336    1.451   .     S
C333   C526    1.332   .     S
C333   H554    1.088   .     S
C334   C335    1.436   .     S
C335   O379    1.276   .     A
C335   O373    1.276   .     A
C336   O374    1.272   .     A
C336   O380    1.271   .     A
C337   O371    1.275   .     A
C337   O369    1.273   .     A
C337   C340    1.452   .     S
C338   O372    1.285   .     A
C338   O370    1.282   .     A
C338   C339    1.471   .     S
C339   C343    1.398   .     A
C341   H351    1.084   .     S
C341   C345    1.403   .     A
C342   H358    1.112   .     S
C342   H357    1.111   .     S
C342   N367    1.447   .     S
C342   H356    1.110   .     S
C343   C344    1.407   .     A
C343   H353    1.078   .     S
C344   C346    1.428   .     A
C344   C345    1.417   .     A
C345   C925    1.391   .     S
C346   C923    1.427   .     S
C347   C348    1.415   .     A
C347   C922    1.427   1_554 S
C348   C349    1.387   .     A
C348   H354    1.077   .     S
C349   H350    1.084   .     S
C349   C921    1.391   1_554 S
H355   N367    1.032   .     S
H361   C203    1.086   1_655 S
H363   C526    1.086   .     S
O368   Zn382   1.940   .     S
O368   Zn381   1.959   .     S
O368   Zn384   1.933   .     S
O368   Zn383   1.936   .     S
O369   Zn382   1.931   .     S
O370   Zn384   1.939   .     S
O371   Zn383   1.933   .     S
O372   Zn381   1.926   .     S
O373   Zn381   1.927   .     S
O374   Zn384   1.932   .     S
O375   Zn382   1.929   .     S
O376   Zn383   1.937   .     S
O377   Zn384   1.932   .     S
O378   Zn381   1.925   .     S
O379   Zn382   1.937   .     S
O380   Zn383   1.930   .     S
C385   O441    1.269   .     A
C385   C395    1.438   .     S
C385   O439    1.269   .     A
C386   N431    1.426   .     S
C386   C387    1.395   .     A
C386   C410    1.428   .     A
C387   H430    1.085   .     S
C387   C965    1.391   .     S
C388   O440    1.282   .     A
C388   O442    1.279   .     A
C388   C394    1.455   .     S
C389   C390    1.419   .     A
C389   C391    1.404   .     A
C389   C963    1.391   1_554 S
C390   C411    1.425   .     A
C390   C393    1.411   .     A
C391   C392    1.391   .     A
C391   H423    1.084   .     S
C392   C404    1.394   .     A
C392   H429    1.083   .     S
C393   C404    1.393   .     A
C393   H428    1.078   .     S
C394   C459    1.335   .     S
C394   H488    1.088   .     S
C395   C522    1.335   1_455 S
C395   H553    1.086   1_455 S
C396   H416    1.083   .     S
C396   C403    1.401   .     A
C396   C405    1.392   .     A
C397   C400    1.451   .     S
C397   C14     1.332   1_565 S
C397   H42     1.088   1_565 S
C398   C399    1.436   .     S
C399   O443    1.276   .     A
C399   O437    1.276   .     A
C400   O438    1.272   .     A
C400   O444    1.271   .     A
C401   O435    1.275   .     A
C401   O433    1.273   .     A
C401   C404    1.452   .     S
C402   O436    1.285   .     A
C402   O434    1.282   .     A
C402   C403    1.471   .     S
C403   C407    1.398   .     A
C405   H415    1.084   .     S
C405   C409    1.403   .     A
C406   H422    1.112   .     S
C406   H421    1.111   .     S
C406   N431    1.447   .     S
C406   H420    1.110   .     S
C407   C408    1.407   .     A
C407   H417    1.078   .     S
C408   C410    1.428   .     A
C408   C409    1.417   .     A
C409   C989    1.391   .     S
C410   C987    1.427   .     S
C411   C412    1.415   .     A
C411   C986    1.427   1_554 S
C412   C413    1.387   .     A
C412   H418    1.077   .     S
C413   H414    1.084   .     S
C413   C985    1.391   1_554 S
H419   N431    1.032   .     S
H424   C522    1.088   1_455 S
H425   C459    1.086   .     S
H427   C14     1.086   1_565 S
O432   Zn446   1.940   .     S
O432   Zn445   1.959   .     S
O432   Zn448   1.933   .     S
O432   Zn447   1.936   .     S
O433   Zn446   1.931   .     S
O434   Zn448   1.939   .     S
O435   Zn447   1.933   .     S
O436   Zn445   1.926   .     S
O437   Zn445   1.927   .     S
O438   Zn448   1.932   .     S
O439   Zn446   1.929   .     S
O440   Zn447   1.937   .     S
O441   Zn448   1.932   .     S
O442   Zn445   1.925   .     S
O443   Zn446   1.937   .     S
O444   Zn447   1.930   .     S
C449   O505    1.269   .     A
C449   C459    1.438   .     S
C449   O503    1.269   .     A
C450   N495    1.426   .     S
C450   C451    1.395   .     A
C450   C474    1.428   .     A
C451   H494    1.085   .     S
C451   C1029   1.391   .     S
C452   O504    1.282   .     A
C452   O506    1.279   .     A
C452   C458    1.455   .     S
C453   C454    1.419   .     A
C453   C455    1.404   .     A
C453   C1027   1.391   1_554 S
C454   C475    1.425   .     A
C454   C457    1.411   .     A
C455   C456    1.391   .     A
C455   H487    1.084   .     S
C456   C468    1.394   .     A
C456   H493    1.083   .     S
C457   C468    1.393   .     A
C457   H492    1.078   .     S
C458   C523    1.335   .     S
C458   H552    1.088   .     S
C460   H480    1.083   .     S
C460   C467    1.401   .     A
C460   C469    1.392   .     A
C461   C464    1.451   .     S
C461   C78     1.332   1_565 S
C461   H106    1.088   1_565 S
C462   C463    1.436   .     S
C463   O507    1.276   .     A
C463   O501    1.276   .     A
C464   O502    1.272   .     A
C464   O508    1.271   .     A
C465   O499    1.275   .     A
C465   O497    1.273   .     A
C465   C468    1.452   .     S
C466   O500    1.285   .     A
C466   O498    1.282   .     A
C466   C467    1.471   .     S
C467   C471    1.398   .     A
C469   H479    1.084   .     S
C469   C473    1.403   .     A
C470   H486    1.112   .     S
C470   H485    1.111   .     S
C470   N495    1.447   .     S
C470   H484    1.110   .     S
C471   C472    1.407   .     A
C471   H481    1.078   .     S
C472   C474    1.428   .     A
C472   C473    1.417   .     A
C473   C1053   1.391   .     S
C474   C1051   1.427   .     S
C475   C476    1.415   .     A
C475   C1050   1.427   1_554 S
C476   C477    1.387   .     A
C476   H482    1.077   .     S
C477   H478    1.084   .     S
C477   C1049   1.391   1_554 S
H483   N495    1.032   .     S
H489   C523    1.086   .     S
H491   C78     1.086   1_565 S
O496   Zn510   1.940   .     S
O496   Zn509   1.959   .     S
O496   Zn512   1.933   .     S
O496   Zn511   1.936   .     S
O497   Zn510   1.931   .     S
O498   Zn512   1.939   .     S
O499   Zn511   1.933   .     S
O500   Zn509   1.926   .     S
O501   Zn509   1.927   .     S
O502   Zn512   1.932   .     S
O503   Zn510   1.929   .     S
O504   Zn511   1.937   .     S
O505   Zn512   1.932   .     S
O506   Zn509   1.925   .     S
O507   Zn510   1.937   .     S
O508   Zn511   1.930   .     S
C513   O569    1.269   .     A
C513   C523    1.438   .     S
C513   O567    1.269   .     A
C514   N559    1.426   .     S
C514   C515    1.395   .     A
C514   C538    1.428   .     A
C515   H558    1.085   .     S
C515   C1093   1.391   .     S
C516   O568    1.282   .     A
C516   O570    1.279   .     A
C516   C522    1.455   .     S
C517   C518    1.419   .     A
C517   C519    1.404   .     A
C517   C1091   1.391   1_554 S
C518   C539    1.425   .     A
C518   C521    1.411   .     A
C519   C520    1.391   .     A
C519   H551    1.084   .     S
C520   C532    1.394   .     A
C520   H557    1.083   .     S
C521   C532    1.393   .     A
C521   H556    1.078   .     S
C522   C395    1.335   1_655 S
C522   H424    1.088   1_655 S
C524   H544    1.083   .     S
C524   C531    1.401   .     A
C524   C533    1.392   .     A
C525   C528    1.451   .     S
C525   C142    1.332   1_565 S
C525   H170    1.088   1_565 S
C526   C527    1.436   .     S
C527   O571    1.276   .     A
C527   O565    1.276   .     A
C528   O566    1.272   .     A
C528   O572    1.271   .     A
C529   O563    1.275   .     A
C529   O561    1.273   .     A
C529   C532    1.452   .     S
C530   O564    1.285   .     A
C530   O562    1.282   .     A
C530   C531    1.471   .     S
C531   C535    1.398   .     A
C533   H543    1.084   .     S
C533   C537    1.403   .     A
C534   H550    1.112   .     S
C534   H549    1.111   .     S
C534   N559    1.447   .     S
C534   H548    1.110   .     S
C535   C536    1.407   .     A
C535   H545    1.078   .     S
C536   C538    1.428   .     A
C536   C537    1.417   .     A
C537   C1117   1.391   .     S
C538   C1115   1.427   .     S
C539   C540    1.415   .     A
C539   C1114   1.427   1_554 S
C540   C541    1.387   .     A
C540   H546    1.077   .     S
C541   H542    1.084   .     S
C541   C1113   1.391   1_554 S
H547   N559    1.032   .     S
H553   C395    1.086   1_655 S
H555   C142    1.086   1_565 S
O560   Zn574   1.940   .     S
O560   Zn573   1.959   .     S
O560   Zn576   1.933   .     S
O560   Zn575   1.936   .     S
O561   Zn574   1.931   .     S
O562   Zn576   1.939   .     S
O563   Zn575   1.933   .     S
O564   Zn573   1.926   .     S
O565   Zn573   1.927   .     S
O566   Zn576   1.932   .     S
O567   Zn574   1.929   .     S
O568   Zn575   1.937   .     S
O569   Zn576   1.932   .     S
O570   Zn573   1.925   .     S
O571   Zn574   1.937   .     S
O572   Zn575   1.930   .     S
C577   O633    1.269   .     A
C577   C587    1.438   .     S
C577   O631    1.269   .     A
C578   N623    1.426   .     S
C578   C579    1.395   .     A
C578   C602    1.428   .     A
C579   H622    1.085   .     S
C579   C5      1.391   1_556 S
C580   O632    1.282   .     A
C580   O634    1.279   .     A
C580   C586    1.455   .     S
C581   C582    1.419   .     A
C581   C583    1.404   .     A
C582   C603    1.425   .     A
C582   C585    1.411   .     A
C583   C584    1.391   .     A
C583   H615    1.084   .     S
C584   C596    1.394   .     A
C584   H621    1.083   .     S
C585   C596    1.393   .     A
C585   H620    1.078   .     S
C586   C651    1.335   .     S
C586   H680    1.088   .     S
C587   C714    1.335   1_455 S
C587   H745    1.086   1_455 S
C588   H608    1.083   .     S
C588   C595    1.401   .     A
C588   C597    1.392   .     A
C589   C592    1.451   .     S
C589   C782    1.332   .     S
C589   H810    1.088   .     S
C590   C591    1.436   .     S
C590   C973    1.332   1_545 S
C590   H1003   1.086   1_545 S
C591   O635    1.276   .     A
C591   O629    1.276   .     A
C592   O630    1.272   .     A
C592   O636    1.271   .     A
C593   O627    1.275   .     A
C593   O625    1.273   .     A
C593   C596    1.452   .     S
C594   O628    1.285   .     A
C594   O626    1.282   .     A
C594   C595    1.471   .     S
C595   C599    1.398   .     A
C597   H607    1.084   .     S
C597   C601    1.403   .     A
C598   H614    1.112   .     S
C598   H613    1.111   .     S
C598   N623    1.447   .     S
C598   H612    1.110   .     S
C599   C600    1.407   .     A
C599   H609    1.078   .     S
C600   C602    1.428   .     A
C600   C601    1.417   .     A
C601   C29     1.391   1_556 S
C602   C27     1.427   1_556 S
C603   C604    1.415   .     A
C604   C605    1.387   .     A
C604   H610    1.077   .     S
C605   H606    1.084   .     S
H611   N623    1.032   .     S
H616   C714    1.088   1_455 S
H617   C651    1.086   .     S
H618   C973    1.088   1_545 S
H619   C782    1.086   .     S
O624   Zn638   1.940   .     S
O624   Zn637   1.959   .     S
O624   Zn640   1.933   .     S
O624   Zn639   1.936   .     S
O625   Zn638   1.931   .     S
O626   Zn640   1.939   .     S
O627   Zn639   1.933   .     S
O628   Zn637   1.926   .     S
O629   Zn637   1.927   .     S
O630   Zn640   1.932   .     S
O631   Zn638   1.929   .     S
O632   Zn639   1.937   .     S
O633   Zn640   1.932   .     S
O634   Zn637   1.925   .     S
O635   Zn638   1.937   .     S
O636   Zn639   1.930   .     S
C641   O697    1.269   .     A
C641   C651    1.438   .     S
C641   O695    1.269   .     A
C642   N687    1.426   .     S
C642   C643    1.395   .     A
C642   C666    1.428   .     A
C643   H686    1.085   .     S
C643   C69     1.391   1_556 S
C644   O696    1.282   .     A
C644   O698    1.279   .     A
C644   C650    1.455   .     S
C645   C646    1.419   .     A
C645   C647    1.404   .     A
C646   C667    1.425   .     A
C646   C649    1.411   .     A
C647   C648    1.391   .     A
C647   H679    1.084   .     S
C648   C660    1.394   .     A
C648   H685    1.083   .     S
C649   C660    1.393   .     A
C649   H684    1.078   .     S
C650   C715    1.335   .     S
C650   H744    1.088   .     S
C652   H672    1.083   .     S
C652   C659    1.401   .     A
C652   C661    1.392   .     A
C653   C656    1.451   .     S
C653   C846    1.332   .     S
C653   H874    1.088   .     S
C654   C655    1.436   .     S
C654   C1037   1.332   1_545 S
C654   H1067   1.086   1_545 S
C655   O699    1.276   .     A
C655   O693    1.276   .     A
C656   O694    1.272   .     A
C656   O700    1.271   .     A
C657   O691    1.275   .     A
C657   O689    1.273   .     A
C657   C660    1.452   .     S
C658   O692    1.285   .     A
C658   O690    1.282   .     A
C658   C659    1.471   .     S
C659   C663    1.398   .     A
C661   H671    1.084   .     S
C661   C665    1.403   .     A
C662   H678    1.112   .     S
C662   H677    1.111   .     S
C662   N687    1.447   .     S
C662   H676    1.110   .     S
C663   C664    1.407   .     A
C663   H673    1.078   .     S
C664   C666    1.428   .     A
C664   C665    1.417   .     A
C665   C93     1.391   1_556 S
C666   C91     1.427   1_556 S
C667   C668    1.415   .     A
C668   C669    1.387   .     A
C668   H674    1.077   .     S
C669   H670    1.084   .     S
H675   N687    1.032   .     S
H681   C715    1.086   .     S
H682   C1037   1.088   1_545 S
H683   C846    1.086   .     S
O688   Zn702   1.940   .     S
O688   Zn701   1.959   .     S
O688   Zn704   1.933   .     S
O688   Zn703   1.936   .     S
O689   Zn702   1.931   .     S
O690   Zn704   1.939   .     S
O691   Zn703   1.933   .     S
O692   Zn701   1.926   .     S
O693   Zn701   1.927   .     S
O694   Zn704   1.932   .     S
O695   Zn702   1.929   .     S
O696   Zn703   1.937   .     S
O697   Zn704   1.932   .     S
O698   Zn701   1.925   .     S
O699   Zn702   1.937   .     S
O700   Zn703   1.930   .     S
C705   O761    1.269   .     A
C705   C715    1.438   .     S
C705   O759    1.269   .     A
C706   N751    1.426   .     S
C706   C707    1.395   .     A
C706   C730    1.428   .     A
C707   H750    1.085   .     S
C707   C133    1.391   1_556 S
C708   O760    1.282   .     A
C708   O762    1.279   .     A
C708   C714    1.455   .     S
C709   C710    1.419   .     A
C709   C711    1.404   .     A
C710   C731    1.425   .     A
C710   C713    1.411   .     A
C711   C712    1.391   .     A
C711   H743    1.084   .     S
C712   C724    1.394   .     A
C712   H749    1.083   .     S
C713   C724    1.393   .     A
C713   H748    1.078   .     S
C714   C587    1.335   1_655 S
C714   H616    1.088   1_655 S
C716   H736    1.083   .     S
C716   C723    1.401   .     A
C716   C725    1.392   .     A
C717   C720    1.451   .     S
C717   C910    1.332   .     S
C717   H938    1.088   .     S
C718   C719    1.436   .     S
C718   C1101   1.332   1_545 S
C718   H1131   1.086   1_545 S
C719   O763    1.276   .     A
C719   O757    1.276   .     A
C720   O758    1.272   .     A
C720   O764    1.271   .     A
C721   O755    1.275   .     A
C721   O753    1.273   .     A
C721   C724    1.452   .     S
C722   O756    1.285   .     A
C722   O754    1.282   .     A
C722   C723    1.471   .     S
C723   C727    1.398   .     A
C725   H735    1.084   .     S
C725   C729    1.403   .     A
C726   H742    1.112   .     S
C726   H741    1.111   .     S
C726   N751    1.447   .     S
C726   H740    1.110   .     S
C727   C728    1.407   .     A
C727   H737    1.078   .     S
C728   C730    1.428   .     A
C728   C729    1.417   .     A
C729   C157    1.391   1_556 S
C730   C155    1.427   1_556 S
C731   C732    1.415   .     A
C732   C733    1.387   .     A
C732   H738    1.077   .     S
C733   H734    1.084   .     S
H739   N751    1.032   .     S
H745   C587    1.086   1_655 S
H746   C1101   1.088   1_545 S
H747   C910    1.086   .     S
O752   Zn766   1.940   .     S
O752   Zn765   1.959   .     S
O752   Zn768   1.933   .     S
O752   Zn767   1.936   .     S
O753   Zn766   1.931   .     S
O754   Zn768   1.939   .     S
O755   Zn767   1.933   .     S
O756   Zn765   1.926   .     S
O757   Zn765   1.927   .     S
O758   Zn768   1.932   .     S
O759   Zn766   1.929   .     S
O760   Zn767   1.937   .     S
O761   Zn768   1.932   .     S
O762   Zn765   1.925   .     S
O763   Zn766   1.937   .     S
O764   Zn767   1.930   .     S
C769   O825    1.269   .     A
C769   C779    1.438   .     S
C769   O823    1.269   .     A
C770   N815    1.426   .     S
C770   C771    1.395   .     A
C770   C794    1.428   .     A
C771   H814    1.085   .     S
C771   C197    1.391   1_556 S
C772   O824    1.282   .     A
C772   O826    1.279   .     A
C772   C778    1.455   .     S
C773   C774    1.419   .     A
C773   C775    1.404   .     A
C774   C795    1.425   .     A
C774   C777    1.411   .     A
C775   C776    1.391   .     A
C775   H807    1.084   .     S
C776   C788    1.394   .     A
C776   H813    1.083   .     S
C777   C788    1.393   .     A
C777   H812    1.078   .     S
C778   C843    1.335   .     S
C778   H872    1.088   .     S
C779   C906    1.335   1_455 S
C779   H937    1.086   1_455 S
C780   H800    1.083   .     S
C780   C787    1.401   .     A
C780   C789    1.392   .     A
C781   C784    1.451   .     S
C781   C974    1.332   .     S
C781   H1002   1.088   .     S
C782   C783    1.436   .     S
C783   O827    1.276   .     A
C783   O821    1.276   .     A
C784   O822    1.272   .     A
C784   O828    1.271   .     A
C785   O819    1.275   .     A
C785   O817    1.273   .     A
C785   C788    1.452   .     S
C786   O820    1.285   .     A
C786   O818    1.282   .     A
C786   C787    1.471   .     S
C787   C791    1.398   .     A
C789   H799    1.084   .     S
C789   C793    1.403   .     A
C790   H806    1.112   .     S
C790   H805    1.111   .     S
C790   N815    1.447   .     S
C790   H804    1.110   .     S
C791   C792    1.407   .     A
C791   H801    1.078   .     S
C792   C794    1.428   .     A
C792   C793    1.417   .     A
C793   C221    1.391   1_556 S
C794   C219    1.427   1_556 S
C795   C796    1.415   .     A
C796   C797    1.387   .     A
C796   H802    1.077   .     S
C797   H798    1.084   .     S
H803   N815    1.032   .     S
H808   C906    1.088   1_455 S
H809   C843    1.086   .     S
H811   C974    1.086   .     S
O816   Zn830   1.940   .     S
O816   Zn829   1.959   .     S
O816   Zn832   1.933   .     S
O816   Zn831   1.936   .     S
O817   Zn830   1.931   .     S
O818   Zn832   1.939   .     S
O819   Zn831   1.933   .     S
O820   Zn829   1.926   .     S
O821   Zn829   1.927   .     S
O822   Zn832   1.932   .     S
O823   Zn830   1.929   .     S
O824   Zn831   1.937   .     S
O825   Zn832   1.932   .     S
O826   Zn829   1.925   .     S
O827   Zn830   1.937   .     S
O828   Zn831   1.930   .     S
C833   O889    1.269   .     A
C833   C843    1.438   .     S
C833   O887    1.269   .     A
C834   N879    1.426   .     S
C834   C835    1.395   .     A
C834   C858    1.428   .     A
C835   H878    1.085   .     S
C835   C261    1.391   1_556 S
C836   O888    1.282   .     A
C836   O890    1.279   .     A
C836   C842    1.455   .     S
C837   C838    1.419   .     A
C837   C839    1.404   .     A
C838   C859    1.425   .     A
C838   C841    1.411   .     A
C839   C840    1.391   .     A
C839   H871    1.084   .     S
C840   C852    1.394   .     A
C840   H877    1.083   .     S
C841   C852    1.393   .     A
C841   H876    1.078   .     S
C842   C907    1.335   .     S
C842   H936    1.088   .     S
C844   H864    1.083   .     S
C844   C851    1.401   .     A
C844   C853    1.392   .     A
C845   C848    1.451   .     S
C845   C1038   1.332   .     S
C845   H1066   1.088   .     S
C846   C847    1.436   .     S
C847   O891    1.276   .     A
C847   O885    1.276   .     A
C848   O886    1.272   .     A
C848   O892    1.271   .     A
C849   O883    1.275   .     A
C849   O881    1.273   .     A
C849   C852    1.452   .     S
C850   O884    1.285   .     A
C850   O882    1.282   .     A
C850   C851    1.471   .     S
C851   C855    1.398   .     A
C853   H863    1.084   .     S
C853   C857    1.403   .     A
C854   H870    1.112   .     S
C854   H869    1.111   .     S
C854   N879    1.447   .     S
C854   H868    1.110   .     S
C855   C856    1.407   .     A
C855   H865    1.078   .     S
C856   C858    1.428   .     A
C856   C857    1.417   .     A
C857   C285    1.391   1_556 S
C858   C283    1.427   1_556 S
C859   C860    1.415   .     A
C860   C861    1.387   .     A
C860   H866    1.077   .     S
C861   H862    1.084   .     S
H867   N879    1.032   .     S
H873   C907    1.086   .     S
H875   C1038   1.086   .     S
O880   Zn894   1.940   .     S
O880   Zn893   1.959   .     S
O880   Zn896   1.933   .     S
O880   Zn895   1.936   .     S
O881   Zn894   1.931   .     S
O882   Zn896   1.939   .     S
O883   Zn895   1.933   .     S
O884   Zn893   1.926   .     S
O885   Zn893   1.927   .     S
O886   Zn896   1.932   .     S
O887   Zn894   1.929   .     S
O888   Zn895   1.937   .     S
O889   Zn896   1.932   .     S
O890   Zn893   1.925   .     S
O891   Zn894   1.937   .     S
O892   Zn895   1.930   .     S
C897   O953    1.269   .     A
C897   C907    1.438   .     S
C897   O951    1.269   .     A
C898   N943    1.426   .     S
C898   C899    1.395   .     A
C898   C922    1.428   .     A
C899   H942    1.085   .     S
C899   C325    1.391   1_556 S
C900   O952    1.282   .     A
C900   O954    1.279   .     A
C900   C906    1.455   .     S
C901   C902    1.419   .     A
C901   C903    1.404   .     A
C902   C923    1.425   .     A
C902   C905    1.411   .     A
C903   C904    1.391   .     A
C903   H935    1.084   .     S
C904   C916    1.394   .     A
C904   H941    1.083   .     S
C905   C916    1.393   .     A
C905   H940    1.078   .     S
C906   C779    1.335   1_655 S
C906   H808    1.088   1_655 S
C908   H928    1.083   .     S
C908   C915    1.401   .     A
C908   C917    1.392   .     A
C909   C912    1.451   .     S
C909   C1102   1.332   .     S
C909   H1130   1.088   .     S
C910   C911    1.436   .     S
C911   O955    1.276   .     A
C911   O949    1.276   .     A
C912   O950    1.272   .     A
C912   O956    1.271   .     A
C913   O947    1.275   .     A
C913   O945    1.273   .     A
C913   C916    1.452   .     S
C914   O948    1.285   .     A
C914   O946    1.282   .     A
C914   C915    1.471   .     S
C915   C919    1.398   .     A
C917   H927    1.084   .     S
C917   C921    1.403   .     A
C918   H934    1.112   .     S
C918   H933    1.111   .     S
C918   N943    1.447   .     S
C918   H932    1.110   .     S
C919   C920    1.407   .     A
C919   H929    1.078   .     S
C920   C922    1.428   .     A
C920   C921    1.417   .     A
C921   C349    1.391   1_556 S
C922   C347    1.427   1_556 S
C923   C924    1.415   .     A
C924   C925    1.387   .     A
C924   H930    1.077   .     S
C925   H926    1.084   .     S
H931   N943    1.032   .     S
H937   C779    1.086   1_655 S
H939   C1102   1.086   .     S
O944   Zn958   1.940   .     S
O944   Zn957   1.959   .     S
O944   Zn960   1.933   .     S
O944   Zn959   1.936   .     S
O945   Zn958   1.931   .     S
O946   Zn960   1.939   .     S
O947   Zn959   1.933   .     S
O948   Zn957   1.926   .     S
O949   Zn957   1.927   .     S
O950   Zn960   1.932   .     S
O951   Zn958   1.929   .     S
O952   Zn959   1.937   .     S
O953   Zn960   1.932   .     S
O954   Zn957   1.925   .     S
O955   Zn958   1.937   .     S
O956   Zn959   1.930   .     S
C961   O1017   1.269   .     A
C961   C971    1.438   .     S
C961   O1015   1.269   .     A
C962   N1007   1.426   .     S
C962   C963    1.395   .     A
C962   C986    1.428   .     A
C963   H1006   1.085   .     S
C963   C389    1.391   1_556 S
C964   O1016   1.282   .     A
C964   O1018   1.279   .     A
C964   C970    1.455   .     S
C965   C966    1.419   .     A
C965   C967    1.404   .     A
C966   C987    1.425   .     A
C966   C969    1.411   .     A
C967   C968    1.391   .     A
C967   H999    1.084   .     S
C968   C980    1.394   .     A
C968   H1005   1.083   .     S
C969   C980    1.393   .     A
C969   H1004   1.078   .     S
C970   C1035   1.335   .     S
C970   H1064   1.088   .     S
C971   C1098   1.335   1_455 S
C971   H1129   1.086   1_455 S
C972   H992    1.083   .     S
C972   C979    1.401   .     A
C972   C981    1.392   .     A
C973   C976    1.451   .     S
C973   C590    1.332   1_565 S
C973   H618    1.088   1_565 S
C974   C975    1.436   .     S
C975   O1019   1.276   .     A
C975   O1013   1.276   .     A
C976   O1014   1.272   .     A
C976   O1020   1.271   .     A
C977   O1011   1.275   .     A
C977   O1009   1.273   .     A
C977   C980    1.452   .     S
C978   O1012   1.285   .     A
C978   O1010   1.282   .     A
C978   C979    1.471   .     S
C979   C983    1.398   .     A
C981   H991    1.084   .     S
C981   C985    1.403   .     A
C982   H998    1.112   .     S
C982   H997    1.111   .     S
C982   N1007   1.447   .     S
C982   H996    1.110   .     S
C983   C984    1.407   .     A
C983   H993    1.078   .     S
C984   C986    1.428   .     A
C984   C985    1.417   .     A
C985   C413    1.391   1_556 S
C986   C411    1.427   1_556 S
C987   C988    1.415   .     A
C988   C989    1.387   .     A
C988   H994    1.077   .     S
C989   H990    1.084   .     S
H995   N1007   1.032   .     S
H1000  C1098   1.088   1_455 S
H1001  C1035   1.086   .     S
H1003  C590    1.086   1_565 S
O1008  Zn1022  1.940   .     S
O1008  Zn1021  1.959   .     S
O1008  Zn1024  1.933   .     S
O1008  Zn1023  1.936   .     S
O1009  Zn1022  1.931   .     S
O1010  Zn1024  1.939   .     S
O1011  Zn1023  1.933   .     S
O1012  Zn1021  1.926   .     S
O1013  Zn1021  1.927   .     S
O1014  Zn1024  1.932   .     S
O1015  Zn1022  1.929   .     S
O1016  Zn1023  1.937   .     S
O1017  Zn1024  1.932   .     S
O1018  Zn1021  1.925   .     S
O1019  Zn1022  1.937   .     S
O1020  Zn1023  1.930   .     S
C1025  O1081   1.269   .     A
C1025  C1035   1.438   .     S
C1025  O1079   1.269   .     A
C1026  N1071   1.426   .     S
C1026  C1027   1.395   .     A
C1026  C1050   1.428   .     A
C1027  H1070   1.085   .     S
C1027  C453    1.391   1_556 S
C1028  O1080   1.282   .     A
C1028  O1082   1.279   .     A
C1028  C1034   1.455   .     S
C1029  C1030   1.419   .     A
C1029  C1031   1.404   .     A
C1030  C1051   1.425   .     A
C1030  C1033   1.411   .     A
C1031  C1032   1.391   .     A
C1031  H1063   1.084   .     S
C1032  C1044   1.394   .     A
C1032  H1069   1.083   .     S
C1033  C1044   1.393   .     A
C1033  H1068   1.078   .     S
C1034  C1099   1.335   .     S
C1034  H1128   1.088   .     S
C1036  H1056   1.083   .     S
C1036  C1043   1.401   .     A
C1036  C1045   1.392   .     A
C1037  C1040   1.451   .     S
C1037  C654    1.332   1_565 S
C1037  H682    1.088   1_565 S
C1038  C1039   1.436   .     S
C1039  O1083   1.276   .     A
C1039  O1077   1.276   .     A
C1040  O1078   1.272   .     A
C1040  O1084   1.271   .     A
C1041  O1075   1.275   .     A
C1041  O1073   1.273   .     A
C1041  C1044   1.452   .     S
C1042  O1076   1.285   .     A
C1042  O1074   1.282   .     A
C1042  C1043   1.471   .     S
C1043  C1047   1.398   .     A
C1045  H1055   1.084   .     S
C1045  C1049   1.403   .     A
C1046  H1062   1.112   .     S
C1046  H1061   1.111   .     S
C1046  N1071   1.447   .     S
C1046  H1060   1.110   .     S
C1047  C1048   1.407   .     A
C1047  H1057   1.078   .     S
C1048  C1050   1.428   .     A
C1048  C1049   1.417   .     A
C1049  C477    1.391   1_556 S
C1050  C475    1.427   1_556 S
C1051  C1052   1.415   .     A
C1052  C1053   1.387   .     A
C1052  H1058   1.077   .     S
C1053  H1054   1.084   .     S
H1059  N1071   1.032   .     S
H1065  C1099   1.086   .     S
H1067  C654    1.086   1_565 S
O1072  Zn1086  1.940   .     S
O1072  Zn1085  1.959   .     S
O1072  Zn1088  1.933   .     S
O1072  Zn1087  1.936   .     S
O1073  Zn1086  1.931   .     S
O1074  Zn1088  1.939   .     S
O1075  Zn1087  1.933   .     S
O1076  Zn1085  1.926   .     S
O1077  Zn1085  1.927   .     S
O1078  Zn1088  1.932   .     S
O1079  Zn1086  1.929   .     S
O1080  Zn1087  1.937   .     S
O1081  Zn1088  1.932   .     S
O1082  Zn1085  1.925   .     S
O1083  Zn1086  1.937   .     S
O1084  Zn1087  1.930   .     S
C1089  O1145   1.269   .     A
C1089  C1099   1.438   .     S
C1089  O1143   1.269   .     A
C1090  N1135   1.426   .     S
C1090  C1091   1.395   .     A
C1090  C1114   1.428   .     A
C1091  H1134   1.085   .     S
C1091  C517    1.391   1_556 S
C1092  O1144   1.282   .     A
C1092  O1146   1.279   .     A
C1092  C1098   1.455   .     S
C1093  C1094   1.419   .     A
C1093  C1095   1.404   .     A
C1094  C1115   1.425   .     A
C1094  C1097   1.411   .     A
C1095  C1096   1.391   .     A
C1095  H1127   1.084   .     S
C1096  C1108   1.394   .     A
C1096  H1133   1.083   .     S
C1097  C1108   1.393   .     A
C1097  H1132   1.078   .     S
C1098  C971    1.335   1_655 S
C1098  H1000   1.088   1_655 S
C1100  H1120   1.083   .     S
C1100  C1107   1.401   .     A
C1100  C1109   1.392   .     A
C1101  C1104   1.451   .     S
C1101  C718    1.332   1_565 S
C1101  H746    1.088   1_565 S
C1102  C1103   1.436   .     S
C1103  O1147   1.276   .     A
C1103  O1141   1.276   .     A
C1104  O1142   1.272   .     A
C1104  O1148   1.271   .     A
C1105  O1139   1.275   .     A
C1105  O1137   1.273   .     A
C1105  C1108   1.452   .     S
C1106  O1140   1.285   .     A
C1106  O1138   1.282   .     A
C1106  C1107   1.471   .     S
C1107  C1111   1.398   .     A
C1109  H1119   1.084   .     S
C1109  C1113   1.403   .     A
C1110  H1126   1.112   .     S
C1110  H1125   1.111   .     S
C1110  N1135   1.447   .     S
C1110  H1124   1.110   .     S
C1111  C1112   1.407   .     A
C1111  H1121   1.078   .     S
C1112  C1114   1.428   .     A
C1112  C1113   1.417   .     A
C1113  C541    1.391   1_556 S
C1114  C539    1.427   1_556 S
C1115  C1116   1.415   .     A
C1116  C1117   1.387   .     A
C1116  H1122   1.077   .     S
C1117  H1118   1.084   .     S
H1123  N1135   1.032   .     S
H1129  C971    1.086   1_655 S
H1131  C718    1.086   1_565 S
O1136  Zn1150  1.940   .     S
O1136  Zn1149  1.959   .     S
O1136  Zn1152  1.933   .     S
O1136  Zn1151  1.936   .     S
O1137  Zn1150  1.931   .     S
O1138  Zn1152  1.939   .     S
O1139  Zn1151  1.933   .     S
O1140  Zn1149  1.926   .     S
O1141  Zn1149  1.927   .     S
O1142  Zn1152  1.932   .     S
O1143  Zn1150  1.929   .     S
O1144  Zn1151  1.937   .     S
O1145  Zn1152  1.932   .     S
O1146  Zn1149  1.925   .     S
O1147  Zn1150  1.937   .     S
O1148  Zn1151  1.930   .     S
