data_str_m3_o1_o17_pcu_sym.44
_audit_creation_date              2020-01-03
_audit_creation_method            'Materials Studio'
_symmetry_space_group_name_H-M    'P1'
_symmetry_Int_Tables_number       1
_symmetry_cell_setting            triclinic
loop_
_symmetry_equiv_pos_as_xyz
  x,y,z
_cell_length_a                    32.2986
_cell_length_b                    29.4929
_cell_length_c                    29.7828
_cell_angle_alpha                 89.9170
_cell_angle_beta                  89.7529
_cell_angle_gamma                 88.6694
loop_
_atom_site_label
_atom_site_type_symbol
_atom_site_fract_x
_atom_site_fract_y
_atom_site_fract_z
_atom_site_U_iso_or_equiv
_atom_site_adp_type
_atom_site_occupancy
C1     C     0.08663   0.16734   0.24861   0.00000  Uiso   1.00
C2     C     0.04234   0.16879   0.24649   0.00000  Uiso   1.00
C3     C     0.14484   0.02449   0.28169   0.00000  Uiso   1.00
C4     C     0.18849   0.30884   0.21831   0.00000  Uiso   1.00
C5     C     0.18832   0.02348   0.21818   0.00000  Uiso   1.00
C6     C     0.14502   0.30985   0.28182   0.00000  Uiso   1.00
C7     C     0.16674   0.16672   0.16349   0.00000  Uiso   1.00
C8     C     0.16659   0.16661   0.33651   0.00000  Uiso   1.00
C9     C     0.20103   0.14938   0.40654   0.00000  Uiso   1.00
C10    C     0.13230   0.18394   0.09346   0.00000  Uiso   1.00
C11    C     0.16638   0.16634   0.38411   0.00000  Uiso   1.00
C12    C     0.24670   0.16599   0.25139   0.00000  Uiso   1.00
C13    C     0.16695   0.16699   0.11589   0.00000  Uiso   1.00
C14    C     0.13138   0.18260   0.40675   0.00000  Uiso   1.00
C15    C     0.20196   0.15076   0.09325   0.00000  Uiso   1.00
C16    C     0.13036   0.18157   0.45343   0.00000  Uiso   1.00
C17    C     0.20298   0.15180   0.04656   0.00000  Uiso   1.00
C18    C     0.16635   0.16634   0.47663   0.00000  Uiso   1.00
C19    C     0.16699   0.16701   0.02337   0.00000  Uiso   1.00
C20    C     0.20173   0.15029   0.45296   0.00000  Uiso   1.00
C21    C     0.13161   0.18305   0.04704   0.00000  Uiso   1.00
C22    C     0.09459   0.19579   0.47742   0.00000  Uiso   1.00
C23    C     0.09588   0.19724   0.02422   0.00000  Uiso   1.00
C24    C     0.23876   0.13758   0.02258   0.00000  Uiso   1.00
C25    C     0.03281   0.16927   0.44206   0.00000  Uiso   1.00
C26    C     0.30048   0.16418   0.05795   0.00000  Uiso   1.00
C27    C     0.05360   0.10825   0.15774   0.00000  Uiso   1.00
C28    C     0.27974   0.22507   0.34229   0.00000  Uiso   1.00
C29    C     0.29172   0.05228   0.25280   0.00000  Uiso   1.00
C30    C     0.04160   0.28105   0.24722   0.00000  Uiso   1.00
C31    C     0.23746   0.13611   0.47578   0.00000  Uiso   1.00
C32    C     0.02238   0.13110   0.22837   0.00000  Uiso   1.00
C33    C     0.31095   0.20223   0.27165   0.00000  Uiso   1.00
C34    C     0.31325   0.12779   0.23395   0.00000  Uiso   1.00
C35    C     0.02008   0.20553   0.26606   0.00000  Uiso   1.00
C36    C     0.29099   0.16454   0.25352   0.00000  Uiso   1.00
F37    F     0.12261   0.04769   0.31318   0.00000  Uiso   1.00
F38    F     0.21072   0.28565   0.18682   0.00000  Uiso   1.00
F39    F     0.20993   0.04567   0.18619   0.00000  Uiso   1.00
F40    F     0.12341   0.28767   0.31381   0.00000  Uiso   1.00
H41    H     0.22763   0.13649   0.38773   0.00000  Uiso   1.00
H42    H     0.00409   0.18125   0.42503   0.00000  Uiso   1.00
H43    H     0.29407   0.10140   0.02838   0.00000  Uiso   1.00
H44    H     0.30923   0.18414   0.02783   0.00000  Uiso   1.00
H45    H     0.32920   0.15224   0.07502   0.00000  Uiso   1.00
H46    H     0.28271   0.18647   0.08147   0.00000  Uiso   1.00
H47    H     0.03626   0.06406   0.20848   0.00000  Uiso   1.00
H48    H     0.02432   0.10904   0.13835   0.00000  Uiso   1.00
H49    H     0.07502   0.08229   0.14294   0.00000  Uiso   1.00
H50    H     0.06844   0.14172   0.15531   0.00000  Uiso   1.00
H51    H     0.29707   0.26927   0.29154   0.00000  Uiso   1.00
H52    H     0.10570   0.19682   0.11227   0.00000  Uiso   1.00
H53    H     0.30902   0.22435   0.36169   0.00000  Uiso   1.00
H54    H     0.26497   0.19157   0.34473   0.00000  Uiso   1.00
H55    H     0.25828   0.25100   0.35707   0.00000  Uiso   1.00
H56    H     0.30167   0.07651   0.18797   0.00000  Uiso   1.00
H57    H     0.32349   0.04138   0.26280   0.00000  Uiso   1.00
H58    H     0.27580   0.02249   0.23893   0.00000  Uiso   1.00
H59    H     0.27460   0.06412   0.28316   0.00000  Uiso   1.00
H60    H     0.03167   0.25681   0.31204   0.00000  Uiso   1.00
H61    H     0.00982   0.29193   0.23721   0.00000  Uiso   1.00
H62    H     0.05873   0.26922   0.21685   0.00000  Uiso   1.00
H63    H     0.10510   0.19549   0.38766   0.00000  Uiso   1.00
H64    H     0.05750   0.31086   0.26108   0.00000  Uiso   1.00
H65    H     0.22823   0.13789   0.11234   0.00000  Uiso   1.00
H66    H     0.06856   0.20845   0.04279   0.00000  Uiso   1.00
H67    H     0.26478   0.12489   0.45721   0.00000  Uiso   1.00
H68    H     0.03932   0.23206   0.47162   0.00000  Uiso   1.00
H69    H     0.02408   0.14931   0.47218   0.00000  Uiso   1.00
H70    H     0.05054   0.14697   0.41850   0.00000  Uiso   1.00
N71    N     0.16667   0.28573   0.25000   0.00000  Uiso   1.00
N72    N     0.16667   0.04760   0.25000   0.00000  Uiso   1.00
N73    N     0.05704   0.20781   0.45496   0.00000  Uiso   1.00
N74    N     0.27631   0.12561   0.04504   0.00000  Uiso   1.00
N75    N     0.04534   0.09700   0.20412   0.00000  Uiso   1.00
N76    N     0.28799   0.23632   0.29590   0.00000  Uiso   1.00
N77    N     0.29290   0.08802   0.21935   0.00000  Uiso   1.00
N78    N     0.04044   0.24531   0.28067   0.00000  Uiso   1.00
O79    O     0.10559   0.20487   0.24999   0.00000  Uiso   1.00
O80    O     0.22774   0.12846   0.25000   0.00000  Uiso   1.00
O81    O     0.22774   0.20487   0.25000   0.00000  Uiso   1.00
O82    O     0.10559   0.12846   0.24999   0.00000  Uiso   1.00
O83    O     0.16666   0.20489   0.18392   0.00000  Uiso   1.00
O84    O     0.16667   0.12844   0.31608   0.00000  Uiso   1.00
O85    O     0.16667   0.20489   0.31607   0.00000  Uiso   1.00
O86    O     0.16666   0.12844   0.18392   0.00000  Uiso   1.00
Zn87   Zn    0.16667   0.21771   0.25000   0.00000  Uiso   1.00
Zn88   Zn    0.16667   0.11563   0.25000   0.00000  Uiso   1.00
C89    C     0.41997   0.16734   0.24861   0.00000  Uiso   1.00
C90    C     0.37567   0.16879   0.24649   0.00000  Uiso   1.00
C91    C     0.47817   0.02449   0.28169   0.00000  Uiso   1.00
C92    C     0.52183   0.30884   0.21831   0.00000  Uiso   1.00
C93    C     0.52165   0.02348   0.21818   0.00000  Uiso   1.00
C94    C     0.47835   0.30985   0.28182   0.00000  Uiso   1.00
C95    C     0.50008   0.16672   0.16349   0.00000  Uiso   1.00
C96    C     0.49992   0.16661   0.33651   0.00000  Uiso   1.00
C97    C     0.53436   0.14938   0.40654   0.00000  Uiso   1.00
C98    C     0.46563   0.18394   0.09346   0.00000  Uiso   1.00
C99    C     0.49972   0.16634   0.38411   0.00000  Uiso   1.00
C100   C     0.58003   0.16599   0.25139   0.00000  Uiso   1.00
C101   C     0.50029   0.16699   0.11589   0.00000  Uiso   1.00
C102   C     0.46471   0.18260   0.40675   0.00000  Uiso   1.00
C103   C     0.53529   0.15076   0.09325   0.00000  Uiso   1.00
C104   C     0.46369   0.18157   0.45343   0.00000  Uiso   1.00
C105   C     0.53632   0.15180   0.04656   0.00000  Uiso   1.00
C106   C     0.49968   0.16634   0.47663   0.00000  Uiso   1.00
C107   C     0.50032   0.16701   0.02337   0.00000  Uiso   1.00
C108   C     0.53506   0.15029   0.45296   0.00000  Uiso   1.00
C109   C     0.46494   0.18305   0.04704   0.00000  Uiso   1.00
C110   C     0.42792   0.19579   0.47742   0.00000  Uiso   1.00
C111   C     0.42921   0.19724   0.02422   0.00000  Uiso   1.00
C112   C     0.57209   0.13758   0.02258   0.00000  Uiso   1.00
C113   C     0.36615   0.16927   0.44206   0.00000  Uiso   1.00
C114   C     0.63382   0.16418   0.05795   0.00000  Uiso   1.00
C115   C     0.38694   0.10825   0.15774   0.00000  Uiso   1.00
C116   C     0.61307   0.22507   0.34229   0.00000  Uiso   1.00
C117   C     0.62505   0.05228   0.25280   0.00000  Uiso   1.00
C118   C     0.37493   0.28105   0.24722   0.00000  Uiso   1.00
C119   C     0.57079   0.13611   0.47578   0.00000  Uiso   1.00
C120   C     0.35571   0.13110   0.22837   0.00000  Uiso   1.00
C121   C     0.64429   0.20223   0.27165   0.00000  Uiso   1.00
C122   C     0.64658   0.12779   0.23395   0.00000  Uiso   1.00
C123   C     0.35342   0.20553   0.26606   0.00000  Uiso   1.00
C124   C     0.62433   0.16454   0.25352   0.00000  Uiso   1.00
F125   F     0.45595   0.04769   0.31318   0.00000  Uiso   1.00
F126   F     0.54405   0.28565   0.18682   0.00000  Uiso   1.00
F127   F     0.54326   0.04567   0.18619   0.00000  Uiso   1.00
F128   F     0.45674   0.28767   0.31381   0.00000  Uiso   1.00
H129   H     0.56096   0.13649   0.38773   0.00000  Uiso   1.00
H130   H     0.33742   0.18125   0.42503   0.00000  Uiso   1.00
H131   H     0.62740   0.10140   0.02838   0.00000  Uiso   1.00
H132   H     0.64256   0.18414   0.02783   0.00000  Uiso   1.00
H133   H     0.66254   0.15224   0.07502   0.00000  Uiso   1.00
H134   H     0.61605   0.18647   0.08147   0.00000  Uiso   1.00
H135   H     0.36959   0.06406   0.20848   0.00000  Uiso   1.00
H136   H     0.35765   0.10904   0.13835   0.00000  Uiso   1.00
H137   H     0.40835   0.08229   0.14294   0.00000  Uiso   1.00
H138   H     0.40177   0.14172   0.15531   0.00000  Uiso   1.00
H139   H     0.63040   0.26927   0.29154   0.00000  Uiso   1.00
H140   H     0.43903   0.19682   0.11227   0.00000  Uiso   1.00
H141   H     0.64235   0.22435   0.36169   0.00000  Uiso   1.00
H142   H     0.59830   0.19157   0.34473   0.00000  Uiso   1.00
H143   H     0.59161   0.25100   0.35707   0.00000  Uiso   1.00
H144   H     0.63500   0.07651   0.18797   0.00000  Uiso   1.00
H145   H     0.65682   0.04138   0.26280   0.00000  Uiso   1.00
H146   H     0.60913   0.02249   0.23893   0.00000  Uiso   1.00
H147   H     0.60793   0.06412   0.28316   0.00000  Uiso   1.00
H148   H     0.36500   0.25681   0.31204   0.00000  Uiso   1.00
H149   H     0.34316   0.29193   0.23721   0.00000  Uiso   1.00
H150   H     0.39206   0.26922   0.21685   0.00000  Uiso   1.00
H151   H     0.43844   0.19549   0.38766   0.00000  Uiso   1.00
H152   H     0.39083   0.31086   0.26108   0.00000  Uiso   1.00
H153   H     0.56157   0.13789   0.11234   0.00000  Uiso   1.00
H154   H     0.40189   0.20845   0.04279   0.00000  Uiso   1.00
H155   H     0.59811   0.12489   0.45721   0.00000  Uiso   1.00
H156   H     0.37265   0.23206   0.47162   0.00000  Uiso   1.00
H157   H     0.35741   0.14931   0.47218   0.00000  Uiso   1.00
H158   H     0.38387   0.14697   0.41850   0.00000  Uiso   1.00
N159   N     0.50000   0.28573   0.25000   0.00000  Uiso   1.00
N160   N     0.50000   0.04760   0.25000   0.00000  Uiso   1.00
N161   N     0.39037   0.20781   0.45496   0.00000  Uiso   1.00
N162   N     0.60965   0.12561   0.04504   0.00000  Uiso   1.00
N163   N     0.37868   0.09700   0.20412   0.00000  Uiso   1.00
N164   N     0.62132   0.23632   0.29590   0.00000  Uiso   1.00
N165   N     0.62623   0.08802   0.21935   0.00000  Uiso   1.00
N166   N     0.37377   0.24531   0.28067   0.00000  Uiso   1.00
O167   O     0.43892   0.20487   0.24999   0.00000  Uiso   1.00
O168   O     0.56108   0.12846   0.25000   0.00000  Uiso   1.00
O169   O     0.56108   0.20487   0.25000   0.00000  Uiso   1.00
O170   O     0.43892   0.12846   0.24999   0.00000  Uiso   1.00
O171   O     0.49999   0.20489   0.18392   0.00000  Uiso   1.00
O172   O     0.50001   0.12844   0.31608   0.00000  Uiso   1.00
O173   O     0.50001   0.20489   0.31607   0.00000  Uiso   1.00
O174   O     0.49999   0.12844   0.18392   0.00000  Uiso   1.00
Zn175  Zn    0.50000   0.21771   0.25000   0.00000  Uiso   1.00
Zn176  Zn    0.50000   0.11563   0.25000   0.00000  Uiso   1.00
C177   C     0.75330   0.16734   0.24861   0.00000  Uiso   1.00
C178   C     0.70901   0.16879   0.24649   0.00000  Uiso   1.00
C179   C     0.81151   0.02449   0.28169   0.00000  Uiso   1.00
C180   C     0.85516   0.30884   0.21831   0.00000  Uiso   1.00
C181   C     0.85498   0.02348   0.21818   0.00000  Uiso   1.00
C182   C     0.81168   0.30985   0.28182   0.00000  Uiso   1.00
C183   C     0.83341   0.16672   0.16349   0.00000  Uiso   1.00
C184   C     0.83326   0.16661   0.33651   0.00000  Uiso   1.00
C185   C     0.86770   0.14938   0.40654   0.00000  Uiso   1.00
C186   C     0.79897   0.18394   0.09346   0.00000  Uiso   1.00
C187   C     0.83305   0.16634   0.38411   0.00000  Uiso   1.00
C188   C     0.91337   0.16599   0.25139   0.00000  Uiso   1.00
C189   C     0.83362   0.16699   0.11589   0.00000  Uiso   1.00
C190   C     0.79805   0.18260   0.40675   0.00000  Uiso   1.00
C191   C     0.86862   0.15076   0.09325   0.00000  Uiso   1.00
C192   C     0.79702   0.18157   0.45343   0.00000  Uiso   1.00
C193   C     0.86965   0.15180   0.04656   0.00000  Uiso   1.00
C194   C     0.83302   0.16634   0.47663   0.00000  Uiso   1.00
C195   C     0.83365   0.16701   0.02337   0.00000  Uiso   1.00
C196   C     0.86840   0.15029   0.45296   0.00000  Uiso   1.00
C197   C     0.79827   0.18305   0.04704   0.00000  Uiso   1.00
C198   C     0.76125   0.19579   0.47742   0.00000  Uiso   1.00
C199   C     0.76254   0.19724   0.02422   0.00000  Uiso   1.00
C200   C     0.90542   0.13758   0.02258   0.00000  Uiso   1.00
C201   C     0.69948   0.16927   0.44206   0.00000  Uiso   1.00
C202   C     0.96715   0.16418   0.05795   0.00000  Uiso   1.00
C203   C     0.72027   0.10825   0.15774   0.00000  Uiso   1.00
C204   C     0.94641   0.22507   0.34229   0.00000  Uiso   1.00
C205   C     0.95838   0.05228   0.25280   0.00000  Uiso   1.00
C206   C     0.70827   0.28105   0.24722   0.00000  Uiso   1.00
C207   C     0.90413   0.13611   0.47578   0.00000  Uiso   1.00
C208   C     0.68905   0.13110   0.22837   0.00000  Uiso   1.00
C209   C     0.97762   0.20223   0.27165   0.00000  Uiso   1.00
C210   C     0.97992   0.12779   0.23395   0.00000  Uiso   1.00
C211   C     0.68675   0.20553   0.26606   0.00000  Uiso   1.00
C212   C     0.95766   0.16454   0.25352   0.00000  Uiso   1.00
F213   F     0.78928   0.04769   0.31318   0.00000  Uiso   1.00
F214   F     0.87739   0.28565   0.18682   0.00000  Uiso   1.00
F215   F     0.87659   0.04567   0.18619   0.00000  Uiso   1.00
F216   F     0.79007   0.28767   0.31381   0.00000  Uiso   1.00
H217   H     0.89430   0.13649   0.38773   0.00000  Uiso   1.00
H218   H     0.67075   0.18125   0.42503   0.00000  Uiso   1.00
H219   H     0.96073   0.10140   0.02838   0.00000  Uiso   1.00
H220   H     0.97590   0.18414   0.02783   0.00000  Uiso   1.00
H221   H     0.99587   0.15224   0.07502   0.00000  Uiso   1.00
H222   H     0.94938   0.18647   0.08147   0.00000  Uiso   1.00
H223   H     0.70293   0.06406   0.20848   0.00000  Uiso   1.00
H224   H     0.69099   0.10904   0.13835   0.00000  Uiso   1.00
H225   H     0.74168   0.08229   0.14294   0.00000  Uiso   1.00
H226   H     0.73510   0.14172   0.15531   0.00000  Uiso   1.00
H227   H     0.96373   0.26927   0.29154   0.00000  Uiso   1.00
H228   H     0.77237   0.19682   0.11227   0.00000  Uiso   1.00
H229   H     0.97568   0.22435   0.36169   0.00000  Uiso   1.00
H230   H     0.93163   0.19157   0.34473   0.00000  Uiso   1.00
H231   H     0.92495   0.25100   0.35707   0.00000  Uiso   1.00
H232   H     0.96833   0.07651   0.18797   0.00000  Uiso   1.00
H233   H     0.99015   0.04138   0.26280   0.00000  Uiso   1.00
H234   H     0.94246   0.02249   0.23893   0.00000  Uiso   1.00
H235   H     0.94127   0.06412   0.28316   0.00000  Uiso   1.00
H236   H     0.69833   0.25681   0.31204   0.00000  Uiso   1.00
H237   H     0.67649   0.29193   0.23721   0.00000  Uiso   1.00
H238   H     0.72539   0.26922   0.21685   0.00000  Uiso   1.00
H239   H     0.77177   0.19549   0.38766   0.00000  Uiso   1.00
H240   H     0.72417   0.31086   0.26108   0.00000  Uiso   1.00
H241   H     0.89490   0.13789   0.11234   0.00000  Uiso   1.00
H242   H     0.73523   0.20845   0.04279   0.00000  Uiso   1.00
H243   H     0.93144   0.12489   0.45721   0.00000  Uiso   1.00
H244   H     0.70598   0.23206   0.47162   0.00000  Uiso   1.00
H245   H     0.69074   0.14931   0.47218   0.00000  Uiso   1.00
H246   H     0.71721   0.14697   0.41850   0.00000  Uiso   1.00
N247   N     0.83333   0.28573   0.25000   0.00000  Uiso   1.00
N248   N     0.83333   0.04760   0.25000   0.00000  Uiso   1.00
N249   N     0.72370   0.20781   0.45496   0.00000  Uiso   1.00
N250   N     0.94298   0.12561   0.04504   0.00000  Uiso   1.00
N251   N     0.71201   0.09700   0.20412   0.00000  Uiso   1.00
N252   N     0.95466   0.23632   0.29590   0.00000  Uiso   1.00
N253   N     0.95956   0.08802   0.21935   0.00000  Uiso   1.00
N254   N     0.70710   0.24531   0.28067   0.00000  Uiso   1.00
O255   O     0.77226   0.20487   0.24999   0.00000  Uiso   1.00
O256   O     0.89441   0.12846   0.25000   0.00000  Uiso   1.00
O257   O     0.89441   0.20487   0.25000   0.00000  Uiso   1.00
O258   O     0.77226   0.12846   0.24999   0.00000  Uiso   1.00
O259   O     0.83333   0.20489   0.18392   0.00000  Uiso   1.00
O260   O     0.83334   0.12844   0.31608   0.00000  Uiso   1.00
O261   O     0.83334   0.20489   0.31607   0.00000  Uiso   1.00
O262   O     0.83333   0.12844   0.18392   0.00000  Uiso   1.00
Zn263  Zn    0.83333   0.21771   0.25000   0.00000  Uiso   1.00
Zn264  Zn    0.83333   0.11563   0.25000   0.00000  Uiso   1.00
C265   C     0.08663   0.50067   0.24861   0.00000  Uiso   1.00
C266   C     0.04234   0.50212   0.24649   0.00000  Uiso   1.00
C267   C     0.14484   0.35782   0.28169   0.00000  Uiso   1.00
C268   C     0.18849   0.64218   0.21831   0.00000  Uiso   1.00
C269   C     0.18832   0.35682   0.21818   0.00000  Uiso   1.00
C270   C     0.14502   0.64318   0.28182   0.00000  Uiso   1.00
C271   C     0.16674   0.50006   0.16349   0.00000  Uiso   1.00
C272   C     0.16659   0.49994   0.33651   0.00000  Uiso   1.00
C273   C     0.20103   0.48271   0.40654   0.00000  Uiso   1.00
C274   C     0.13230   0.51727   0.09346   0.00000  Uiso   1.00
C275   C     0.16638   0.49968   0.38411   0.00000  Uiso   1.00
C276   C     0.24670   0.49933   0.25139   0.00000  Uiso   1.00
C277   C     0.16695   0.50033   0.11589   0.00000  Uiso   1.00
C278   C     0.13138   0.51593   0.40675   0.00000  Uiso   1.00
C279   C     0.20196   0.48410   0.09325   0.00000  Uiso   1.00
C280   C     0.13036   0.51490   0.45343   0.00000  Uiso   1.00
C281   C     0.20298   0.48513   0.04656   0.00000  Uiso   1.00
C282   C     0.16635   0.49967   0.47663   0.00000  Uiso   1.00
C283   C     0.16699   0.50035   0.02337   0.00000  Uiso   1.00
C284   C     0.20173   0.48363   0.45296   0.00000  Uiso   1.00
C285   C     0.13161   0.51638   0.04704   0.00000  Uiso   1.00
C286   C     0.09459   0.52913   0.47742   0.00000  Uiso   1.00
C287   C     0.09588   0.53057   0.02422   0.00000  Uiso   1.00
C288   C     0.23876   0.47091   0.02258   0.00000  Uiso   1.00
C289   C     0.03281   0.50261   0.44206   0.00000  Uiso   1.00
C290   C     0.30048   0.49752   0.05795   0.00000  Uiso   1.00
C291   C     0.05360   0.44158   0.15774   0.00000  Uiso   1.00
C292   C     0.27974   0.55841   0.34229   0.00000  Uiso   1.00
C293   C     0.29172   0.38561   0.25280   0.00000  Uiso   1.00
C294   C     0.04160   0.61439   0.24722   0.00000  Uiso   1.00
C295   C     0.23746   0.46944   0.47578   0.00000  Uiso   1.00
C296   C     0.02238   0.46443   0.22837   0.00000  Uiso   1.00
C297   C     0.31095   0.53556   0.27165   0.00000  Uiso   1.00
C298   C     0.31325   0.46113   0.23395   0.00000  Uiso   1.00
C299   C     0.02008   0.53887   0.26606   0.00000  Uiso   1.00
C300   C     0.29099   0.49787   0.25352   0.00000  Uiso   1.00
F301   F     0.12261   0.38102   0.31318   0.00000  Uiso   1.00
F302   F     0.21072   0.61898   0.18682   0.00000  Uiso   1.00
F303   F     0.20993   0.37900   0.18619   0.00000  Uiso   1.00
F304   F     0.12341   0.62100   0.31381   0.00000  Uiso   1.00
H305   H     0.22763   0.46982   0.38773   0.00000  Uiso   1.00
H306   H     0.00409   0.51459   0.42503   0.00000  Uiso   1.00
H307   H     0.29407   0.43474   0.02838   0.00000  Uiso   1.00
H308   H     0.30923   0.51748   0.02783   0.00000  Uiso   1.00
H309   H     0.32920   0.48557   0.07502   0.00000  Uiso   1.00
H310   H     0.28271   0.51980   0.08147   0.00000  Uiso   1.00
H311   H     0.03626   0.39739   0.20848   0.00000  Uiso   1.00
H312   H     0.02432   0.44238   0.13835   0.00000  Uiso   1.00
H313   H     0.07502   0.41562   0.14294   0.00000  Uiso   1.00
H314   H     0.06844   0.47505   0.15531   0.00000  Uiso   1.00
H315   H     0.29707   0.60260   0.29154   0.00000  Uiso   1.00
H316   H     0.10570   0.53015   0.11227   0.00000  Uiso   1.00
H317   H     0.30902   0.55768   0.36169   0.00000  Uiso   1.00
H318   H     0.26497   0.52490   0.34473   0.00000  Uiso   1.00
H319   H     0.25828   0.58433   0.35707   0.00000  Uiso   1.00
H320   H     0.30167   0.40985   0.18797   0.00000  Uiso   1.00
H321   H     0.32349   0.37471   0.26280   0.00000  Uiso   1.00
H322   H     0.27580   0.35582   0.23893   0.00000  Uiso   1.00
H323   H     0.27460   0.39746   0.28316   0.00000  Uiso   1.00
H324   H     0.03167   0.59014   0.31204   0.00000  Uiso   1.00
H325   H     0.00982   0.62526   0.23721   0.00000  Uiso   1.00
H326   H     0.05873   0.60255   0.21685   0.00000  Uiso   1.00
H327   H     0.10510   0.52882   0.38766   0.00000  Uiso   1.00
H328   H     0.05750   0.64419   0.26108   0.00000  Uiso   1.00
H329   H     0.22823   0.47123   0.11234   0.00000  Uiso   1.00
H330   H     0.06856   0.54179   0.04279   0.00000  Uiso   1.00
H331   H     0.26478   0.45822   0.45721   0.00000  Uiso   1.00
H332   H     0.03932   0.56540   0.47162   0.00000  Uiso   1.00
H333   H     0.02408   0.48265   0.47218   0.00000  Uiso   1.00
H334   H     0.05054   0.48031   0.41850   0.00000  Uiso   1.00
N335   N     0.16667   0.61907   0.25000   0.00000  Uiso   1.00
N336   N     0.16667   0.38093   0.25000   0.00000  Uiso   1.00
N337   N     0.05704   0.54114   0.45496   0.00000  Uiso   1.00
N338   N     0.27631   0.45895   0.04504   0.00000  Uiso   1.00
N339   N     0.04534   0.43034   0.20412   0.00000  Uiso   1.00
N340   N     0.28799   0.56965   0.29590   0.00000  Uiso   1.00
N341   N     0.29290   0.42135   0.21935   0.00000  Uiso   1.00
N342   N     0.04044   0.57864   0.28067   0.00000  Uiso   1.00
O343   O     0.10559   0.53821   0.24999   0.00000  Uiso   1.00
O344   O     0.22774   0.46179   0.25000   0.00000  Uiso   1.00
O345   O     0.22774   0.53821   0.25000   0.00000  Uiso   1.00
O346   O     0.10559   0.46179   0.24999   0.00000  Uiso   1.00
O347   O     0.16666   0.53823   0.18392   0.00000  Uiso   1.00
O348   O     0.16667   0.46177   0.31608   0.00000  Uiso   1.00
O349   O     0.16667   0.53823   0.31607   0.00000  Uiso   1.00
O350   O     0.16666   0.46177   0.18392   0.00000  Uiso   1.00
Zn351  Zn    0.16667   0.55104   0.25000   0.00000  Uiso   1.00
Zn352  Zn    0.16667   0.44896   0.25000   0.00000  Uiso   1.00
C353   C     0.41997   0.50067   0.24861   0.00000  Uiso   1.00
C354   C     0.37567   0.50212   0.24649   0.00000  Uiso   1.00
C355   C     0.47817   0.35782   0.28169   0.00000  Uiso   1.00
C356   C     0.52183   0.64218   0.21831   0.00000  Uiso   1.00
C357   C     0.52165   0.35682   0.21818   0.00000  Uiso   1.00
C358   C     0.47835   0.64318   0.28182   0.00000  Uiso   1.00
C359   C     0.50008   0.50006   0.16349   0.00000  Uiso   1.00
C360   C     0.49992   0.49994   0.33651   0.00000  Uiso   1.00
C361   C     0.53436   0.48271   0.40654   0.00000  Uiso   1.00
C362   C     0.46563   0.51727   0.09346   0.00000  Uiso   1.00
C363   C     0.49972   0.49968   0.38411   0.00000  Uiso   1.00
C364   C     0.58003   0.49933   0.25139   0.00000  Uiso   1.00
C365   C     0.50029   0.50033   0.11589   0.00000  Uiso   1.00
C366   C     0.46471   0.51593   0.40675   0.00000  Uiso   1.00
C367   C     0.53529   0.48410   0.09325   0.00000  Uiso   1.00
C368   C     0.46369   0.51490   0.45343   0.00000  Uiso   1.00
C369   C     0.53632   0.48513   0.04656   0.00000  Uiso   1.00
C370   C     0.49968   0.49967   0.47663   0.00000  Uiso   1.00
C371   C     0.50032   0.50035   0.02337   0.00000  Uiso   1.00
C372   C     0.53506   0.48363   0.45296   0.00000  Uiso   1.00
C373   C     0.46494   0.51638   0.04704   0.00000  Uiso   1.00
C374   C     0.42792   0.52913   0.47742   0.00000  Uiso   1.00
C375   C     0.42921   0.53057   0.02422   0.00000  Uiso   1.00
C376   C     0.57209   0.47091   0.02258   0.00000  Uiso   1.00
C377   C     0.36615   0.50261   0.44206   0.00000  Uiso   1.00
C378   C     0.63382   0.49752   0.05795   0.00000  Uiso   1.00
C379   C     0.38694   0.44158   0.15774   0.00000  Uiso   1.00
C380   C     0.61307   0.55841   0.34229   0.00000  Uiso   1.00
C381   C     0.62505   0.38561   0.25280   0.00000  Uiso   1.00
C382   C     0.37493   0.61439   0.24722   0.00000  Uiso   1.00
C383   C     0.57079   0.46944   0.47578   0.00000  Uiso   1.00
C384   C     0.35571   0.46443   0.22837   0.00000  Uiso   1.00
C385   C     0.64429   0.53556   0.27165   0.00000  Uiso   1.00
C386   C     0.64658   0.46113   0.23395   0.00000  Uiso   1.00
C387   C     0.35342   0.53887   0.26606   0.00000  Uiso   1.00
C388   C     0.62433   0.49787   0.25352   0.00000  Uiso   1.00
F389   F     0.45595   0.38102   0.31318   0.00000  Uiso   1.00
F390   F     0.54405   0.61898   0.18682   0.00000  Uiso   1.00
F391   F     0.54326   0.37900   0.18619   0.00000  Uiso   1.00
F392   F     0.45674   0.62100   0.31381   0.00000  Uiso   1.00
H393   H     0.56096   0.46982   0.38773   0.00000  Uiso   1.00
H394   H     0.33742   0.51459   0.42503   0.00000  Uiso   1.00
H395   H     0.62740   0.43474   0.02838   0.00000  Uiso   1.00
H396   H     0.64256   0.51748   0.02783   0.00000  Uiso   1.00
H397   H     0.66254   0.48557   0.07502   0.00000  Uiso   1.00
H398   H     0.61605   0.51980   0.08147   0.00000  Uiso   1.00
H399   H     0.36959   0.39739   0.20848   0.00000  Uiso   1.00
H400   H     0.35765   0.44238   0.13835   0.00000  Uiso   1.00
H401   H     0.40835   0.41562   0.14294   0.00000  Uiso   1.00
H402   H     0.40177   0.47505   0.15531   0.00000  Uiso   1.00
H403   H     0.63040   0.60260   0.29154   0.00000  Uiso   1.00
H404   H     0.43903   0.53015   0.11227   0.00000  Uiso   1.00
H405   H     0.64235   0.55768   0.36169   0.00000  Uiso   1.00
H406   H     0.59830   0.52490   0.34473   0.00000  Uiso   1.00
H407   H     0.59161   0.58433   0.35707   0.00000  Uiso   1.00
H408   H     0.63500   0.40985   0.18797   0.00000  Uiso   1.00
H409   H     0.65682   0.37471   0.26280   0.00000  Uiso   1.00
H410   H     0.60913   0.35582   0.23893   0.00000  Uiso   1.00
H411   H     0.60793   0.39746   0.28316   0.00000  Uiso   1.00
H412   H     0.36500   0.59014   0.31204   0.00000  Uiso   1.00
H413   H     0.34316   0.62526   0.23721   0.00000  Uiso   1.00
H414   H     0.39206   0.60255   0.21685   0.00000  Uiso   1.00
H415   H     0.43844   0.52882   0.38766   0.00000  Uiso   1.00
H416   H     0.39083   0.64419   0.26108   0.00000  Uiso   1.00
H417   H     0.56157   0.47123   0.11234   0.00000  Uiso   1.00
H418   H     0.40189   0.54179   0.04279   0.00000  Uiso   1.00
H419   H     0.59811   0.45822   0.45721   0.00000  Uiso   1.00
H420   H     0.37265   0.56540   0.47162   0.00000  Uiso   1.00
H421   H     0.35741   0.48265   0.47218   0.00000  Uiso   1.00
H422   H     0.38387   0.48031   0.41850   0.00000  Uiso   1.00
N423   N     0.50000   0.61907   0.25000   0.00000  Uiso   1.00
N424   N     0.50000   0.38093   0.25000   0.00000  Uiso   1.00
N425   N     0.39037   0.54114   0.45496   0.00000  Uiso   1.00
N426   N     0.60965   0.45895   0.04504   0.00000  Uiso   1.00
N427   N     0.37868   0.43034   0.20412   0.00000  Uiso   1.00
N428   N     0.62132   0.56965   0.29590   0.00000  Uiso   1.00
N429   N     0.62623   0.42135   0.21935   0.00000  Uiso   1.00
N430   N     0.37377   0.57864   0.28067   0.00000  Uiso   1.00
O431   O     0.43892   0.53821   0.24999   0.00000  Uiso   1.00
O432   O     0.56108   0.46179   0.25000   0.00000  Uiso   1.00
O433   O     0.56108   0.53821   0.25000   0.00000  Uiso   1.00
O434   O     0.43892   0.46179   0.24999   0.00000  Uiso   1.00
O435   O     0.49999   0.53823   0.18392   0.00000  Uiso   1.00
O436   O     0.50001   0.46177   0.31608   0.00000  Uiso   1.00
O437   O     0.50001   0.53823   0.31607   0.00000  Uiso   1.00
O438   O     0.49999   0.46177   0.18392   0.00000  Uiso   1.00
Zn439  Zn    0.50000   0.55104   0.25000   0.00000  Uiso   1.00
Zn440  Zn    0.50000   0.44896   0.25000   0.00000  Uiso   1.00
C441   C     0.75330   0.50067   0.24861   0.00000  Uiso   1.00
C442   C     0.70901   0.50212   0.24649   0.00000  Uiso   1.00
C443   C     0.81151   0.35782   0.28169   0.00000  Uiso   1.00
C444   C     0.85516   0.64218   0.21831   0.00000  Uiso   1.00
C445   C     0.85498   0.35682   0.21818   0.00000  Uiso   1.00
C446   C     0.81168   0.64318   0.28182   0.00000  Uiso   1.00
C447   C     0.83341   0.50006   0.16349   0.00000  Uiso   1.00
C448   C     0.83326   0.49994   0.33651   0.00000  Uiso   1.00
C449   C     0.86770   0.48271   0.40654   0.00000  Uiso   1.00
C450   C     0.79897   0.51727   0.09346   0.00000  Uiso   1.00
C451   C     0.83305   0.49968   0.38411   0.00000  Uiso   1.00
C452   C     0.91337   0.49933   0.25139   0.00000  Uiso   1.00
C453   C     0.83362   0.50033   0.11589   0.00000  Uiso   1.00
C454   C     0.79805   0.51593   0.40675   0.00000  Uiso   1.00
C455   C     0.86862   0.48410   0.09325   0.00000  Uiso   1.00
C456   C     0.79702   0.51490   0.45343   0.00000  Uiso   1.00
C457   C     0.86965   0.48513   0.04656   0.00000  Uiso   1.00
C458   C     0.83302   0.49967   0.47663   0.00000  Uiso   1.00
C459   C     0.83365   0.50035   0.02337   0.00000  Uiso   1.00
C460   C     0.86840   0.48363   0.45296   0.00000  Uiso   1.00
C461   C     0.79827   0.51638   0.04704   0.00000  Uiso   1.00
C462   C     0.76125   0.52913   0.47742   0.00000  Uiso   1.00
C463   C     0.76254   0.53057   0.02422   0.00000  Uiso   1.00
C464   C     0.90542   0.47091   0.02258   0.00000  Uiso   1.00
C465   C     0.69948   0.50261   0.44206   0.00000  Uiso   1.00
C466   C     0.96715   0.49752   0.05795   0.00000  Uiso   1.00
C467   C     0.72027   0.44158   0.15774   0.00000  Uiso   1.00
C468   C     0.94641   0.55841   0.34229   0.00000  Uiso   1.00
C469   C     0.95838   0.38561   0.25280   0.00000  Uiso   1.00
C470   C     0.70827   0.61439   0.24722   0.00000  Uiso   1.00
C471   C     0.90413   0.46944   0.47578   0.00000  Uiso   1.00
C472   C     0.68905   0.46443   0.22837   0.00000  Uiso   1.00
C473   C     0.97762   0.53556   0.27165   0.00000  Uiso   1.00
C474   C     0.97992   0.46113   0.23395   0.00000  Uiso   1.00
C475   C     0.68675   0.53887   0.26606   0.00000  Uiso   1.00
C476   C     0.95766   0.49787   0.25352   0.00000  Uiso   1.00
F477   F     0.78928   0.38102   0.31318   0.00000  Uiso   1.00
F478   F     0.87739   0.61898   0.18682   0.00000  Uiso   1.00
F479   F     0.87659   0.37900   0.18619   0.00000  Uiso   1.00
F480   F     0.79007   0.62100   0.31381   0.00000  Uiso   1.00
H481   H     0.89430   0.46982   0.38773   0.00000  Uiso   1.00
H482   H     0.67075   0.51459   0.42503   0.00000  Uiso   1.00
H483   H     0.96073   0.43474   0.02838   0.00000  Uiso   1.00
H484   H     0.97590   0.51748   0.02783   0.00000  Uiso   1.00
H485   H     0.99587   0.48557   0.07502   0.00000  Uiso   1.00
H486   H     0.94938   0.51980   0.08147   0.00000  Uiso   1.00
H487   H     0.70293   0.39739   0.20848   0.00000  Uiso   1.00
H488   H     0.69099   0.44238   0.13835   0.00000  Uiso   1.00
H489   H     0.74168   0.41562   0.14294   0.00000  Uiso   1.00
H490   H     0.73510   0.47505   0.15531   0.00000  Uiso   1.00
H491   H     0.96373   0.60260   0.29154   0.00000  Uiso   1.00
H492   H     0.77237   0.53015   0.11227   0.00000  Uiso   1.00
H493   H     0.97568   0.55768   0.36169   0.00000  Uiso   1.00
H494   H     0.93163   0.52490   0.34473   0.00000  Uiso   1.00
H495   H     0.92495   0.58433   0.35707   0.00000  Uiso   1.00
H496   H     0.96833   0.40985   0.18797   0.00000  Uiso   1.00
H497   H     0.99015   0.37471   0.26280   0.00000  Uiso   1.00
H498   H     0.94246   0.35582   0.23893   0.00000  Uiso   1.00
H499   H     0.94127   0.39746   0.28316   0.00000  Uiso   1.00
H500   H     0.69833   0.59014   0.31204   0.00000  Uiso   1.00
H501   H     0.67649   0.62526   0.23721   0.00000  Uiso   1.00
H502   H     0.72539   0.60255   0.21685   0.00000  Uiso   1.00
H503   H     0.77177   0.52882   0.38766   0.00000  Uiso   1.00
H504   H     0.72417   0.64419   0.26108   0.00000  Uiso   1.00
H505   H     0.89490   0.47123   0.11234   0.00000  Uiso   1.00
H506   H     0.73523   0.54179   0.04279   0.00000  Uiso   1.00
H507   H     0.93144   0.45822   0.45721   0.00000  Uiso   1.00
H508   H     0.70598   0.56540   0.47162   0.00000  Uiso   1.00
H509   H     0.69074   0.48265   0.47218   0.00000  Uiso   1.00
H510   H     0.71721   0.48031   0.41850   0.00000  Uiso   1.00
N511   N     0.83333   0.61907   0.25000   0.00000  Uiso   1.00
N512   N     0.83333   0.38093   0.25000   0.00000  Uiso   1.00
N513   N     0.72370   0.54114   0.45496   0.00000  Uiso   1.00
N514   N     0.94298   0.45895   0.04504   0.00000  Uiso   1.00
N515   N     0.71201   0.43034   0.20412   0.00000  Uiso   1.00
N516   N     0.95466   0.56965   0.29590   0.00000  Uiso   1.00
N517   N     0.95956   0.42135   0.21935   0.00000  Uiso   1.00
N518   N     0.70710   0.57864   0.28067   0.00000  Uiso   1.00
O519   O     0.77226   0.53821   0.24999   0.00000  Uiso   1.00
O520   O     0.89441   0.46179   0.25000   0.00000  Uiso   1.00
O521   O     0.89441   0.53821   0.25000   0.00000  Uiso   1.00
O522   O     0.77226   0.46179   0.24999   0.00000  Uiso   1.00
O523   O     0.83333   0.53823   0.18392   0.00000  Uiso   1.00
O524   O     0.83334   0.46177   0.31608   0.00000  Uiso   1.00
O525   O     0.83334   0.53823   0.31607   0.00000  Uiso   1.00
O526   O     0.83333   0.46177   0.18392   0.00000  Uiso   1.00
Zn527  Zn    0.83333   0.55104   0.25000   0.00000  Uiso   1.00
Zn528  Zn    0.83333   0.44896   0.25000   0.00000  Uiso   1.00
C529   C     0.08663   0.83400   0.24861   0.00000  Uiso   1.00
C530   C     0.04234   0.83545   0.24649   0.00000  Uiso   1.00
C531   C     0.14484   0.69116   0.28169   0.00000  Uiso   1.00
C532   C     0.18849   0.97551   0.21831   0.00000  Uiso   1.00
C533   C     0.18832   0.69015   0.21818   0.00000  Uiso   1.00
C534   C     0.14502   0.97652   0.28182   0.00000  Uiso   1.00
C535   C     0.16674   0.83339   0.16349   0.00000  Uiso   1.00
C536   C     0.16659   0.83328   0.33651   0.00000  Uiso   1.00
C537   C     0.20103   0.81605   0.40654   0.00000  Uiso   1.00
C538   C     0.13230   0.85061   0.09346   0.00000  Uiso   1.00
C539   C     0.16638   0.83301   0.38411   0.00000  Uiso   1.00
C540   C     0.24670   0.83266   0.25139   0.00000  Uiso   1.00
C541   C     0.16695   0.83366   0.11589   0.00000  Uiso   1.00
C542   C     0.13138   0.84927   0.40675   0.00000  Uiso   1.00
C543   C     0.20196   0.81743   0.09325   0.00000  Uiso   1.00
C544   C     0.13036   0.84824   0.45343   0.00000  Uiso   1.00
C545   C     0.20298   0.81846   0.04656   0.00000  Uiso   1.00
C546   C     0.16635   0.83301   0.47663   0.00000  Uiso   1.00
C547   C     0.16699   0.83368   0.02337   0.00000  Uiso   1.00
C548   C     0.20173   0.81696   0.45296   0.00000  Uiso   1.00
C549   C     0.13161   0.84971   0.04704   0.00000  Uiso   1.00
C550   C     0.09459   0.86246   0.47742   0.00000  Uiso   1.00
C551   C     0.09588   0.86391   0.02422   0.00000  Uiso   1.00
C552   C     0.23876   0.80425   0.02258   0.00000  Uiso   1.00
C553   C     0.03281   0.83594   0.44206   0.00000  Uiso   1.00
C554   C     0.30048   0.83085   0.05795   0.00000  Uiso   1.00
C555   C     0.05360   0.77491   0.15774   0.00000  Uiso   1.00
C556   C     0.27974   0.89174   0.34229   0.00000  Uiso   1.00
C557   C     0.29172   0.71895   0.25280   0.00000  Uiso   1.00
C558   C     0.04160   0.94772   0.24722   0.00000  Uiso   1.00
C559   C     0.23746   0.80277   0.47578   0.00000  Uiso   1.00
C560   C     0.02238   0.79776   0.22837   0.00000  Uiso   1.00
C561   C     0.31095   0.86890   0.27165   0.00000  Uiso   1.00
C562   C     0.31325   0.79446   0.23395   0.00000  Uiso   1.00
C563   C     0.02008   0.87220   0.26606   0.00000  Uiso   1.00
C564   C     0.29099   0.83121   0.25352   0.00000  Uiso   1.00
F565   F     0.12261   0.71435   0.31318   0.00000  Uiso   1.00
F566   F     0.21072   0.95231   0.18682   0.00000  Uiso   1.00
F567   F     0.20993   0.71233   0.18619   0.00000  Uiso   1.00
F568   F     0.12341   0.95433   0.31381   0.00000  Uiso   1.00
H569   H     0.22763   0.80315   0.38773   0.00000  Uiso   1.00
H570   H     0.00409   0.84792   0.42503   0.00000  Uiso   1.00
H571   H     0.29407   0.76807   0.02838   0.00000  Uiso   1.00
H572   H     0.30923   0.85081   0.02783   0.00000  Uiso   1.00
H573   H     0.32920   0.81891   0.07502   0.00000  Uiso   1.00
H574   H     0.28271   0.85314   0.08147   0.00000  Uiso   1.00
H575   H     0.03626   0.73072   0.20848   0.00000  Uiso   1.00
H576   H     0.02432   0.77571   0.13835   0.00000  Uiso   1.00
H577   H     0.07502   0.74895   0.14294   0.00000  Uiso   1.00
H578   H     0.06844   0.80838   0.15531   0.00000  Uiso   1.00
H579   H     0.29707   0.93594   0.29154   0.00000  Uiso   1.00
H580   H     0.10570   0.86348   0.11227   0.00000  Uiso   1.00
H581   H     0.30902   0.89101   0.36169   0.00000  Uiso   1.00
H582   H     0.26497   0.85824   0.34473   0.00000  Uiso   1.00
H583   H     0.25828   0.91767   0.35707   0.00000  Uiso   1.00
H584   H     0.30167   0.74318   0.18797   0.00000  Uiso   1.00
H585   H     0.32349   0.70805   0.26280   0.00000  Uiso   1.00
H586   H     0.27580   0.68915   0.23893   0.00000  Uiso   1.00
H587   H     0.27460   0.73079   0.28316   0.00000  Uiso   1.00
H588   H     0.03167   0.92348   0.31204   0.00000  Uiso   1.00
H589   H     0.00982   0.95860   0.23721   0.00000  Uiso   1.00
H590   H     0.05873   0.93589   0.21685   0.00000  Uiso   1.00
H591   H     0.10510   0.86216   0.38766   0.00000  Uiso   1.00
H592   H     0.05750   0.97753   0.26108   0.00000  Uiso   1.00
H593   H     0.22823   0.80456   0.11234   0.00000  Uiso   1.00
H594   H     0.06856   0.87512   0.04279   0.00000  Uiso   1.00
H595   H     0.26478   0.79155   0.45721   0.00000  Uiso   1.00
H596   H     0.03932   0.89873   0.47162   0.00000  Uiso   1.00
H597   H     0.02408   0.81598   0.47218   0.00000  Uiso   1.00
H598   H     0.05054   0.81364   0.41850   0.00000  Uiso   1.00
N599   N     0.16667   0.95240   0.25000   0.00000  Uiso   1.00
N600   N     0.16667   0.71427   0.25000   0.00000  Uiso   1.00
N601   N     0.05704   0.87448   0.45496   0.00000  Uiso   1.00
N602   N     0.27631   0.79228   0.04504   0.00000  Uiso   1.00
N603   N     0.04534   0.76367   0.20412   0.00000  Uiso   1.00
N604   N     0.28799   0.90299   0.29590   0.00000  Uiso   1.00
N605   N     0.29290   0.75468   0.21935   0.00000  Uiso   1.00
N606   N     0.04044   0.91198   0.28067   0.00000  Uiso   1.00
O607   O     0.10559   0.87154   0.24999   0.00000  Uiso   1.00
O608   O     0.22774   0.79513   0.25000   0.00000  Uiso   1.00
O609   O     0.22774   0.87154   0.25000   0.00000  Uiso   1.00
O610   O     0.10559   0.79513   0.24999   0.00000  Uiso   1.00
O611   O     0.16666   0.87156   0.18392   0.00000  Uiso   1.00
O612   O     0.16667   0.79511   0.31608   0.00000  Uiso   1.00
O613   O     0.16667   0.87156   0.31607   0.00000  Uiso   1.00
O614   O     0.16666   0.79511   0.18392   0.00000  Uiso   1.00
Zn615  Zn    0.16667   0.88437   0.25000   0.00000  Uiso   1.00
Zn616  Zn    0.16667   0.78229   0.25000   0.00000  Uiso   1.00
C617   C     0.41997   0.83400   0.24861   0.00000  Uiso   1.00
C618   C     0.37567   0.83545   0.24649   0.00000  Uiso   1.00
C619   C     0.47817   0.69116   0.28169   0.00000  Uiso   1.00
C620   C     0.52183   0.97551   0.21831   0.00000  Uiso   1.00
C621   C     0.52165   0.69015   0.21818   0.00000  Uiso   1.00
C622   C     0.47835   0.97652   0.28182   0.00000  Uiso   1.00
C623   C     0.50008   0.83339   0.16349   0.00000  Uiso   1.00
C624   C     0.49992   0.83328   0.33651   0.00000  Uiso   1.00
C625   C     0.53436   0.81605   0.40654   0.00000  Uiso   1.00
C626   C     0.46563   0.85061   0.09346   0.00000  Uiso   1.00
C627   C     0.49972   0.83301   0.38411   0.00000  Uiso   1.00
C628   C     0.58003   0.83266   0.25139   0.00000  Uiso   1.00
C629   C     0.50029   0.83366   0.11589   0.00000  Uiso   1.00
C630   C     0.46471   0.84927   0.40675   0.00000  Uiso   1.00
C631   C     0.53529   0.81743   0.09325   0.00000  Uiso   1.00
C632   C     0.46369   0.84824   0.45343   0.00000  Uiso   1.00
C633   C     0.53632   0.81846   0.04656   0.00000  Uiso   1.00
C634   C     0.49968   0.83301   0.47663   0.00000  Uiso   1.00
C635   C     0.50032   0.83368   0.02337   0.00000  Uiso   1.00
C636   C     0.53506   0.81696   0.45296   0.00000  Uiso   1.00
C637   C     0.46494   0.84971   0.04704   0.00000  Uiso   1.00
C638   C     0.42792   0.86246   0.47742   0.00000  Uiso   1.00
C639   C     0.42921   0.86391   0.02422   0.00000  Uiso   1.00
C640   C     0.57209   0.80425   0.02258   0.00000  Uiso   1.00
C641   C     0.36615   0.83594   0.44206   0.00000  Uiso   1.00
C642   C     0.63382   0.83085   0.05795   0.00000  Uiso   1.00
C643   C     0.38694   0.77491   0.15774   0.00000  Uiso   1.00
C644   C     0.61307   0.89174   0.34229   0.00000  Uiso   1.00
C645   C     0.62505   0.71895   0.25280   0.00000  Uiso   1.00
C646   C     0.37493   0.94772   0.24722   0.00000  Uiso   1.00
C647   C     0.57079   0.80277   0.47578   0.00000  Uiso   1.00
C648   C     0.35571   0.79776   0.22837   0.00000  Uiso   1.00
C649   C     0.64429   0.86890   0.27165   0.00000  Uiso   1.00
C650   C     0.64658   0.79446   0.23395   0.00000  Uiso   1.00
C651   C     0.35342   0.87220   0.26606   0.00000  Uiso   1.00
C652   C     0.62433   0.83121   0.25352   0.00000  Uiso   1.00
F653   F     0.45595   0.71435   0.31318   0.00000  Uiso   1.00
F654   F     0.54405   0.95231   0.18682   0.00000  Uiso   1.00
F655   F     0.54326   0.71233   0.18619   0.00000  Uiso   1.00
F656   F     0.45674   0.95433   0.31381   0.00000  Uiso   1.00
H657   H     0.56096   0.80315   0.38773   0.00000  Uiso   1.00
H658   H     0.33742   0.84792   0.42503   0.00000  Uiso   1.00
H659   H     0.62740   0.76807   0.02838   0.00000  Uiso   1.00
H660   H     0.64256   0.85081   0.02783   0.00000  Uiso   1.00
H661   H     0.66254   0.81891   0.07502   0.00000  Uiso   1.00
H662   H     0.61605   0.85314   0.08147   0.00000  Uiso   1.00
H663   H     0.36959   0.73072   0.20848   0.00000  Uiso   1.00
H664   H     0.35765   0.77571   0.13835   0.00000  Uiso   1.00
H665   H     0.40835   0.74895   0.14294   0.00000  Uiso   1.00
H666   H     0.40177   0.80838   0.15531   0.00000  Uiso   1.00
H667   H     0.63040   0.93594   0.29154   0.00000  Uiso   1.00
H668   H     0.43903   0.86348   0.11227   0.00000  Uiso   1.00
H669   H     0.64235   0.89101   0.36169   0.00000  Uiso   1.00
H670   H     0.59830   0.85824   0.34473   0.00000  Uiso   1.00
H671   H     0.59161   0.91767   0.35707   0.00000  Uiso   1.00
H672   H     0.63500   0.74318   0.18797   0.00000  Uiso   1.00
H673   H     0.65682   0.70805   0.26280   0.00000  Uiso   1.00
H674   H     0.60913   0.68915   0.23893   0.00000  Uiso   1.00
H675   H     0.60793   0.73079   0.28316   0.00000  Uiso   1.00
H676   H     0.36500   0.92348   0.31204   0.00000  Uiso   1.00
H677   H     0.34316   0.95860   0.23721   0.00000  Uiso   1.00
H678   H     0.39206   0.93589   0.21685   0.00000  Uiso   1.00
H679   H     0.43844   0.86216   0.38766   0.00000  Uiso   1.00
H680   H     0.39083   0.97753   0.26108   0.00000  Uiso   1.00
H681   H     0.56157   0.80456   0.11234   0.00000  Uiso   1.00
H682   H     0.40189   0.87512   0.04279   0.00000  Uiso   1.00
H683   H     0.59811   0.79155   0.45721   0.00000  Uiso   1.00
H684   H     0.37265   0.89873   0.47162   0.00000  Uiso   1.00
H685   H     0.35741   0.81598   0.47218   0.00000  Uiso   1.00
H686   H     0.38387   0.81364   0.41850   0.00000  Uiso   1.00
N687   N     0.50000   0.95240   0.25000   0.00000  Uiso   1.00
N688   N     0.50000   0.71427   0.25000   0.00000  Uiso   1.00
N689   N     0.39037   0.87448   0.45496   0.00000  Uiso   1.00
N690   N     0.60965   0.79228   0.04504   0.00000  Uiso   1.00
N691   N     0.37868   0.76367   0.20412   0.00000  Uiso   1.00
N692   N     0.62132   0.90299   0.29590   0.00000  Uiso   1.00
N693   N     0.62623   0.75468   0.21935   0.00000  Uiso   1.00
N694   N     0.37377   0.91198   0.28067   0.00000  Uiso   1.00
O695   O     0.43892   0.87154   0.24999   0.00000  Uiso   1.00
O696   O     0.56108   0.79513   0.25000   0.00000  Uiso   1.00
O697   O     0.56108   0.87154   0.25000   0.00000  Uiso   1.00
O698   O     0.43892   0.79513   0.24999   0.00000  Uiso   1.00
O699   O     0.49999   0.87156   0.18392   0.00000  Uiso   1.00
O700   O     0.50001   0.79511   0.31608   0.00000  Uiso   1.00
O701   O     0.50001   0.87156   0.31607   0.00000  Uiso   1.00
O702   O     0.49999   0.79511   0.18392   0.00000  Uiso   1.00
Zn703  Zn    0.50000   0.88437   0.25000   0.00000  Uiso   1.00
Zn704  Zn    0.50000   0.78229   0.25000   0.00000  Uiso   1.00
C705   C     0.75330   0.83400   0.24861   0.00000  Uiso   1.00
C706   C     0.70901   0.83545   0.24649   0.00000  Uiso   1.00
C707   C     0.81151   0.69116   0.28169   0.00000  Uiso   1.00
C708   C     0.85516   0.97551   0.21831   0.00000  Uiso   1.00
C709   C     0.85498   0.69015   0.21818   0.00000  Uiso   1.00
C710   C     0.81168   0.97652   0.28182   0.00000  Uiso   1.00
C711   C     0.83341   0.83339   0.16349   0.00000  Uiso   1.00
C712   C     0.83326   0.83328   0.33651   0.00000  Uiso   1.00
C713   C     0.86770   0.81605   0.40654   0.00000  Uiso   1.00
C714   C     0.79897   0.85061   0.09346   0.00000  Uiso   1.00
C715   C     0.83305   0.83301   0.38411   0.00000  Uiso   1.00
C716   C     0.91337   0.83266   0.25139   0.00000  Uiso   1.00
C717   C     0.83362   0.83366   0.11589   0.00000  Uiso   1.00
C718   C     0.79805   0.84927   0.40675   0.00000  Uiso   1.00
C719   C     0.86862   0.81743   0.09325   0.00000  Uiso   1.00
C720   C     0.79702   0.84824   0.45343   0.00000  Uiso   1.00
C721   C     0.86965   0.81846   0.04656   0.00000  Uiso   1.00
C722   C     0.83302   0.83301   0.47663   0.00000  Uiso   1.00
C723   C     0.83365   0.83368   0.02337   0.00000  Uiso   1.00
C724   C     0.86840   0.81696   0.45296   0.00000  Uiso   1.00
C725   C     0.79827   0.84971   0.04704   0.00000  Uiso   1.00
C726   C     0.76125   0.86246   0.47742   0.00000  Uiso   1.00
C727   C     0.76254   0.86391   0.02422   0.00000  Uiso   1.00
C728   C     0.90542   0.80425   0.02258   0.00000  Uiso   1.00
C729   C     0.69948   0.83594   0.44206   0.00000  Uiso   1.00
C730   C     0.96715   0.83085   0.05795   0.00000  Uiso   1.00
C731   C     0.72027   0.77491   0.15774   0.00000  Uiso   1.00
C732   C     0.94641   0.89174   0.34229   0.00000  Uiso   1.00
C733   C     0.95838   0.71895   0.25280   0.00000  Uiso   1.00
C734   C     0.70827   0.94772   0.24722   0.00000  Uiso   1.00
C735   C     0.90413   0.80277   0.47578   0.00000  Uiso   1.00
C736   C     0.68905   0.79776   0.22837   0.00000  Uiso   1.00
C737   C     0.97762   0.86890   0.27165   0.00000  Uiso   1.00
C738   C     0.97992   0.79446   0.23395   0.00000  Uiso   1.00
C739   C     0.68675   0.87220   0.26606   0.00000  Uiso   1.00
C740   C     0.95766   0.83121   0.25352   0.00000  Uiso   1.00
F741   F     0.78928   0.71435   0.31318   0.00000  Uiso   1.00
F742   F     0.87739   0.95231   0.18682   0.00000  Uiso   1.00
F743   F     0.87659   0.71233   0.18619   0.00000  Uiso   1.00
F744   F     0.79007   0.95433   0.31381   0.00000  Uiso   1.00
H745   H     0.89430   0.80315   0.38773   0.00000  Uiso   1.00
H746   H     0.67075   0.84792   0.42503   0.00000  Uiso   1.00
H747   H     0.96073   0.76807   0.02838   0.00000  Uiso   1.00
H748   H     0.97590   0.85081   0.02783   0.00000  Uiso   1.00
H749   H     0.99587   0.81891   0.07502   0.00000  Uiso   1.00
H750   H     0.94938   0.85314   0.08147   0.00000  Uiso   1.00
H751   H     0.70293   0.73072   0.20848   0.00000  Uiso   1.00
H752   H     0.69099   0.77571   0.13835   0.00000  Uiso   1.00
H753   H     0.74168   0.74895   0.14294   0.00000  Uiso   1.00
H754   H     0.73510   0.80838   0.15531   0.00000  Uiso   1.00
H755   H     0.96373   0.93594   0.29154   0.00000  Uiso   1.00
H756   H     0.77237   0.86348   0.11227   0.00000  Uiso   1.00
H757   H     0.97568   0.89101   0.36169   0.00000  Uiso   1.00
H758   H     0.93163   0.85824   0.34473   0.00000  Uiso   1.00
H759   H     0.92495   0.91767   0.35707   0.00000  Uiso   1.00
H760   H     0.96833   0.74318   0.18797   0.00000  Uiso   1.00
H761   H     0.99015   0.70805   0.26280   0.00000  Uiso   1.00
H762   H     0.94246   0.68915   0.23893   0.00000  Uiso   1.00
H763   H     0.94127   0.73079   0.28316   0.00000  Uiso   1.00
H764   H     0.69833   0.92348   0.31204   0.00000  Uiso   1.00
H765   H     0.67649   0.95860   0.23721   0.00000  Uiso   1.00
H766   H     0.72539   0.93589   0.21685   0.00000  Uiso   1.00
H767   H     0.77177   0.86216   0.38766   0.00000  Uiso   1.00
H768   H     0.72417   0.97753   0.26108   0.00000  Uiso   1.00
H769   H     0.89490   0.80456   0.11234   0.00000  Uiso   1.00
H770   H     0.73523   0.87512   0.04279   0.00000  Uiso   1.00
H771   H     0.93144   0.79155   0.45721   0.00000  Uiso   1.00
H772   H     0.70598   0.89873   0.47162   0.00000  Uiso   1.00
H773   H     0.69074   0.81598   0.47218   0.00000  Uiso   1.00
H774   H     0.71721   0.81364   0.41850   0.00000  Uiso   1.00
N775   N     0.83333   0.95240   0.25000   0.00000  Uiso   1.00
N776   N     0.83333   0.71427   0.25000   0.00000  Uiso   1.00
N777   N     0.72370   0.87448   0.45496   0.00000  Uiso   1.00
N778   N     0.94298   0.79228   0.04504   0.00000  Uiso   1.00
N779   N     0.71201   0.76367   0.20412   0.00000  Uiso   1.00
N780   N     0.95466   0.90299   0.29590   0.00000  Uiso   1.00
N781   N     0.95956   0.75468   0.21935   0.00000  Uiso   1.00
N782   N     0.70710   0.91198   0.28067   0.00000  Uiso   1.00
O783   O     0.77226   0.87154   0.24999   0.00000  Uiso   1.00
O784   O     0.89441   0.79513   0.25000   0.00000  Uiso   1.00
O785   O     0.89441   0.87154   0.25000   0.00000  Uiso   1.00
O786   O     0.77226   0.79513   0.24999   0.00000  Uiso   1.00
O787   O     0.83333   0.87156   0.18392   0.00000  Uiso   1.00
O788   O     0.83334   0.79511   0.31608   0.00000  Uiso   1.00
O789   O     0.83334   0.87156   0.31607   0.00000  Uiso   1.00
O790   O     0.83333   0.79511   0.18392   0.00000  Uiso   1.00
Zn791  Zn    0.83333   0.88437   0.25000   0.00000  Uiso   1.00
Zn792  Zn    0.83333   0.78229   0.25000   0.00000  Uiso   1.00
C793   C     0.08663   0.16734   0.74861   0.00000  Uiso   1.00
C794   C     0.04234   0.16879   0.74649   0.00000  Uiso   1.00
C795   C     0.14484   0.02449   0.78169   0.00000  Uiso   1.00
C796   C     0.18849   0.30884   0.71831   0.00000  Uiso   1.00
C797   C     0.18832   0.02348   0.71818   0.00000  Uiso   1.00
C798   C     0.14502   0.30985   0.78182   0.00000  Uiso   1.00
C799   C     0.16674   0.16672   0.66349   0.00000  Uiso   1.00
C800   C     0.16659   0.16661   0.83651   0.00000  Uiso   1.00
C801   C     0.20103   0.14938   0.90654   0.00000  Uiso   1.00
C802   C     0.13230   0.18394   0.59346   0.00000  Uiso   1.00
C803   C     0.16638   0.16634   0.88411   0.00000  Uiso   1.00
C804   C     0.24670   0.16599   0.75139   0.00000  Uiso   1.00
C805   C     0.16695   0.16699   0.61589   0.00000  Uiso   1.00
C806   C     0.13138   0.18260   0.90675   0.00000  Uiso   1.00
C807   C     0.20196   0.15076   0.59325   0.00000  Uiso   1.00
C808   C     0.13036   0.18157   0.95343   0.00000  Uiso   1.00
C809   C     0.20298   0.15180   0.54656   0.00000  Uiso   1.00
C810   C     0.16635   0.16634   0.97663   0.00000  Uiso   1.00
C811   C     0.16699   0.16701   0.52337   0.00000  Uiso   1.00
C812   C     0.20173   0.15029   0.95296   0.00000  Uiso   1.00
C813   C     0.13161   0.18305   0.54704   0.00000  Uiso   1.00
C814   C     0.09459   0.19579   0.97742   0.00000  Uiso   1.00
C815   C     0.09588   0.19724   0.52422   0.00000  Uiso   1.00
C816   C     0.23876   0.13758   0.52258   0.00000  Uiso   1.00
C817   C     0.03281   0.16927   0.94206   0.00000  Uiso   1.00
C818   C     0.30048   0.16418   0.55795   0.00000  Uiso   1.00
C819   C     0.05360   0.10825   0.65774   0.00000  Uiso   1.00
C820   C     0.27974   0.22507   0.84229   0.00000  Uiso   1.00
C821   C     0.29172   0.05228   0.75280   0.00000  Uiso   1.00
C822   C     0.04160   0.28105   0.74722   0.00000  Uiso   1.00
C823   C     0.23746   0.13611   0.97578   0.00000  Uiso   1.00
C824   C     0.02238   0.13110   0.72837   0.00000  Uiso   1.00
C825   C     0.31095   0.20223   0.77165   0.00000  Uiso   1.00
C826   C     0.31325   0.12779   0.73395   0.00000  Uiso   1.00
C827   C     0.02008   0.20553   0.76606   0.00000  Uiso   1.00
C828   C     0.29099   0.16454   0.75352   0.00000  Uiso   1.00
F829   F     0.12261   0.04769   0.81318   0.00000  Uiso   1.00
F830   F     0.21072   0.28565   0.68682   0.00000  Uiso   1.00
F831   F     0.20993   0.04567   0.68619   0.00000  Uiso   1.00
F832   F     0.12341   0.28767   0.81381   0.00000  Uiso   1.00
H833   H     0.22763   0.13649   0.88773   0.00000  Uiso   1.00
H834   H     0.00409   0.18125   0.92503   0.00000  Uiso   1.00
H835   H     0.29407   0.10140   0.52838   0.00000  Uiso   1.00
H836   H     0.30923   0.18414   0.52783   0.00000  Uiso   1.00
H837   H     0.32920   0.15224   0.57502   0.00000  Uiso   1.00
H838   H     0.28271   0.18647   0.58147   0.00000  Uiso   1.00
H839   H     0.03626   0.06406   0.70848   0.00000  Uiso   1.00
H840   H     0.02432   0.10904   0.63835   0.00000  Uiso   1.00
H841   H     0.07502   0.08229   0.64294   0.00000  Uiso   1.00
H842   H     0.06844   0.14172   0.65531   0.00000  Uiso   1.00
H843   H     0.29707   0.26927   0.79154   0.00000  Uiso   1.00
H844   H     0.10570   0.19682   0.61227   0.00000  Uiso   1.00
H845   H     0.30902   0.22435   0.86169   0.00000  Uiso   1.00
H846   H     0.26497   0.19157   0.84473   0.00000  Uiso   1.00
H847   H     0.25828   0.25100   0.85707   0.00000  Uiso   1.00
H848   H     0.30167   0.07651   0.68797   0.00000  Uiso   1.00
H849   H     0.32349   0.04138   0.76280   0.00000  Uiso   1.00
H850   H     0.27580   0.02249   0.73893   0.00000  Uiso   1.00
H851   H     0.27460   0.06412   0.78316   0.00000  Uiso   1.00
H852   H     0.03167   0.25681   0.81204   0.00000  Uiso   1.00
H853   H     0.00982   0.29193   0.73721   0.00000  Uiso   1.00
H854   H     0.05873   0.26922   0.71685   0.00000  Uiso   1.00
H855   H     0.10510   0.19549   0.88766   0.00000  Uiso   1.00
H856   H     0.05750   0.31086   0.76108   0.00000  Uiso   1.00
H857   H     0.22823   0.13789   0.61234   0.00000  Uiso   1.00
H858   H     0.06856   0.20845   0.54279   0.00000  Uiso   1.00
H859   H     0.26478   0.12489   0.95721   0.00000  Uiso   1.00
H860   H     0.03932   0.23206   0.97162   0.00000  Uiso   1.00
H861   H     0.02408   0.14931   0.97218   0.00000  Uiso   1.00
H862   H     0.05054   0.14697   0.91850   0.00000  Uiso   1.00
N863   N     0.16667   0.28573   0.75000   0.00000  Uiso   1.00
N864   N     0.16667   0.04760   0.75000   0.00000  Uiso   1.00
N865   N     0.05704   0.20781   0.95496   0.00000  Uiso   1.00
N866   N     0.27631   0.12561   0.54504   0.00000  Uiso   1.00
N867   N     0.04534   0.09700   0.70412   0.00000  Uiso   1.00
N868   N     0.28799   0.23632   0.79590   0.00000  Uiso   1.00
N869   N     0.29290   0.08802   0.71935   0.00000  Uiso   1.00
N870   N     0.04044   0.24531   0.78067   0.00000  Uiso   1.00
O871   O     0.10559   0.20487   0.74999   0.00000  Uiso   1.00
O872   O     0.22774   0.12846   0.75000   0.00000  Uiso   1.00
O873   O     0.22774   0.20487   0.75000   0.00000  Uiso   1.00
O874   O     0.10559   0.12846   0.74999   0.00000  Uiso   1.00
O875   O     0.16666   0.20489   0.68392   0.00000  Uiso   1.00
O876   O     0.16667   0.12844   0.81608   0.00000  Uiso   1.00
O877   O     0.16667   0.20489   0.81607   0.00000  Uiso   1.00
O878   O     0.16666   0.12844   0.68392   0.00000  Uiso   1.00
Zn879  Zn    0.16667   0.21771   0.75000   0.00000  Uiso   1.00
Zn880  Zn    0.16667   0.11563   0.75000   0.00000  Uiso   1.00
C881   C     0.41997   0.16734   0.74861   0.00000  Uiso   1.00
C882   C     0.37567   0.16879   0.74649   0.00000  Uiso   1.00
C883   C     0.47817   0.02449   0.78169   0.00000  Uiso   1.00
C884   C     0.52183   0.30884   0.71831   0.00000  Uiso   1.00
C885   C     0.52165   0.02348   0.71818   0.00000  Uiso   1.00
C886   C     0.47835   0.30985   0.78182   0.00000  Uiso   1.00
C887   C     0.50008   0.16672   0.66349   0.00000  Uiso   1.00
C888   C     0.49992   0.16661   0.83651   0.00000  Uiso   1.00
C889   C     0.53436   0.14938   0.90654   0.00000  Uiso   1.00
C890   C     0.46563   0.18394   0.59346   0.00000  Uiso   1.00
C891   C     0.49972   0.16634   0.88411   0.00000  Uiso   1.00
C892   C     0.58003   0.16599   0.75139   0.00000  Uiso   1.00
C893   C     0.50029   0.16699   0.61589   0.00000  Uiso   1.00
C894   C     0.46471   0.18260   0.90675   0.00000  Uiso   1.00
C895   C     0.53529   0.15076   0.59325   0.00000  Uiso   1.00
C896   C     0.46369   0.18157   0.95343   0.00000  Uiso   1.00
C897   C     0.53632   0.15180   0.54656   0.00000  Uiso   1.00
C898   C     0.49968   0.16634   0.97663   0.00000  Uiso   1.00
C899   C     0.50032   0.16701   0.52337   0.00000  Uiso   1.00
C900   C     0.53506   0.15029   0.95296   0.00000  Uiso   1.00
C901   C     0.46494   0.18305   0.54704   0.00000  Uiso   1.00
C902   C     0.42792   0.19579   0.97742   0.00000  Uiso   1.00
C903   C     0.42921   0.19724   0.52422   0.00000  Uiso   1.00
C904   C     0.57209   0.13758   0.52258   0.00000  Uiso   1.00
C905   C     0.36615   0.16927   0.94206   0.00000  Uiso   1.00
C906   C     0.63382   0.16418   0.55795   0.00000  Uiso   1.00
C907   C     0.38694   0.10825   0.65774   0.00000  Uiso   1.00
C908   C     0.61307   0.22507   0.84229   0.00000  Uiso   1.00
C909   C     0.62505   0.05228   0.75280   0.00000  Uiso   1.00
C910   C     0.37493   0.28105   0.74722   0.00000  Uiso   1.00
C911   C     0.57079   0.13611   0.97578   0.00000  Uiso   1.00
C912   C     0.35571   0.13110   0.72837   0.00000  Uiso   1.00
C913   C     0.64429   0.20223   0.77165   0.00000  Uiso   1.00
C914   C     0.64658   0.12779   0.73395   0.00000  Uiso   1.00
C915   C     0.35342   0.20553   0.76606   0.00000  Uiso   1.00
C916   C     0.62433   0.16454   0.75352   0.00000  Uiso   1.00
F917   F     0.45595   0.04769   0.81318   0.00000  Uiso   1.00
F918   F     0.54405   0.28565   0.68682   0.00000  Uiso   1.00
F919   F     0.54326   0.04567   0.68619   0.00000  Uiso   1.00
F920   F     0.45674   0.28767   0.81381   0.00000  Uiso   1.00
H921   H     0.56096   0.13649   0.88773   0.00000  Uiso   1.00
H922   H     0.33742   0.18125   0.92503   0.00000  Uiso   1.00
H923   H     0.62740   0.10140   0.52838   0.00000  Uiso   1.00
H924   H     0.64256   0.18414   0.52783   0.00000  Uiso   1.00
H925   H     0.66254   0.15224   0.57502   0.00000  Uiso   1.00
H926   H     0.61605   0.18647   0.58147   0.00000  Uiso   1.00
H927   H     0.36959   0.06406   0.70848   0.00000  Uiso   1.00
H928   H     0.35765   0.10904   0.63835   0.00000  Uiso   1.00
H929   H     0.40835   0.08229   0.64294   0.00000  Uiso   1.00
H930   H     0.40177   0.14172   0.65531   0.00000  Uiso   1.00
H931   H     0.63040   0.26927   0.79154   0.00000  Uiso   1.00
H932   H     0.43903   0.19682   0.61227   0.00000  Uiso   1.00
H933   H     0.64235   0.22435   0.86169   0.00000  Uiso   1.00
H934   H     0.59830   0.19157   0.84473   0.00000  Uiso   1.00
H935   H     0.59161   0.25100   0.85707   0.00000  Uiso   1.00
H936   H     0.63500   0.07651   0.68797   0.00000  Uiso   1.00
H937   H     0.65682   0.04138   0.76280   0.00000  Uiso   1.00
H938   H     0.60913   0.02249   0.73893   0.00000  Uiso   1.00
H939   H     0.60793   0.06412   0.78316   0.00000  Uiso   1.00
H940   H     0.36500   0.25681   0.81204   0.00000  Uiso   1.00
H941   H     0.34316   0.29193   0.73721   0.00000  Uiso   1.00
H942   H     0.39206   0.26922   0.71685   0.00000  Uiso   1.00
H943   H     0.43844   0.19549   0.88766   0.00000  Uiso   1.00
H944   H     0.39083   0.31086   0.76108   0.00000  Uiso   1.00
H945   H     0.56157   0.13789   0.61234   0.00000  Uiso   1.00
H946   H     0.40189   0.20845   0.54279   0.00000  Uiso   1.00
H947   H     0.59811   0.12489   0.95721   0.00000  Uiso   1.00
H948   H     0.37265   0.23206   0.97162   0.00000  Uiso   1.00
H949   H     0.35741   0.14931   0.97218   0.00000  Uiso   1.00
H950   H     0.38387   0.14697   0.91850   0.00000  Uiso   1.00
N951   N     0.50000   0.28573   0.75000   0.00000  Uiso   1.00
N952   N     0.50000   0.04760   0.75000   0.00000  Uiso   1.00
N953   N     0.39037   0.20781   0.95496   0.00000  Uiso   1.00
N954   N     0.60965   0.12561   0.54504   0.00000  Uiso   1.00
N955   N     0.37868   0.09700   0.70412   0.00000  Uiso   1.00
N956   N     0.62132   0.23632   0.79590   0.00000  Uiso   1.00
N957   N     0.62623   0.08802   0.71935   0.00000  Uiso   1.00
N958   N     0.37377   0.24531   0.78067   0.00000  Uiso   1.00
O959   O     0.43892   0.20487   0.74999   0.00000  Uiso   1.00
O960   O     0.56108   0.12846   0.75000   0.00000  Uiso   1.00
O961   O     0.56108   0.20487   0.75000   0.00000  Uiso   1.00
O962   O     0.43892   0.12846   0.74999   0.00000  Uiso   1.00
O963   O     0.49999   0.20489   0.68392   0.00000  Uiso   1.00
O964   O     0.50001   0.12844   0.81608   0.00000  Uiso   1.00
O965   O     0.50001   0.20489   0.81607   0.00000  Uiso   1.00
O966   O     0.49999   0.12844   0.68392   0.00000  Uiso   1.00
Zn967  Zn    0.50000   0.21771   0.75000   0.00000  Uiso   1.00
Zn968  Zn    0.50000   0.11563   0.75000   0.00000  Uiso   1.00
C969   C     0.75330   0.16734   0.74861   0.00000  Uiso   1.00
C970   C     0.70901   0.16879   0.74649   0.00000  Uiso   1.00
C971   C     0.81151   0.02449   0.78169   0.00000  Uiso   1.00
C972   C     0.85516   0.30884   0.71831   0.00000  Uiso   1.00
C973   C     0.85498   0.02348   0.71818   0.00000  Uiso   1.00
C974   C     0.81168   0.30985   0.78182   0.00000  Uiso   1.00
C975   C     0.83341   0.16672   0.66349   0.00000  Uiso   1.00
C976   C     0.83326   0.16661   0.83651   0.00000  Uiso   1.00
C977   C     0.86770   0.14938   0.90654   0.00000  Uiso   1.00
C978   C     0.79897   0.18394   0.59346   0.00000  Uiso   1.00
C979   C     0.83305   0.16634   0.88411   0.00000  Uiso   1.00
C980   C     0.91337   0.16599   0.75139   0.00000  Uiso   1.00
C981   C     0.83362   0.16699   0.61589   0.00000  Uiso   1.00
C982   C     0.79805   0.18260   0.90675   0.00000  Uiso   1.00
C983   C     0.86862   0.15076   0.59325   0.00000  Uiso   1.00
C984   C     0.79702   0.18157   0.95343   0.00000  Uiso   1.00
C985   C     0.86965   0.15180   0.54656   0.00000  Uiso   1.00
C986   C     0.83302   0.16634   0.97663   0.00000  Uiso   1.00
C987   C     0.83365   0.16701   0.52337   0.00000  Uiso   1.00
C988   C     0.86840   0.15029   0.95296   0.00000  Uiso   1.00
C989   C     0.79827   0.18305   0.54704   0.00000  Uiso   1.00
C990   C     0.76125   0.19579   0.97742   0.00000  Uiso   1.00
C991   C     0.76254   0.19724   0.52422   0.00000  Uiso   1.00
C992   C     0.90542   0.13758   0.52258   0.00000  Uiso   1.00
C993   C     0.69948   0.16927   0.94206   0.00000  Uiso   1.00
C994   C     0.96715   0.16418   0.55795   0.00000  Uiso   1.00
C995   C     0.72027   0.10825   0.65774   0.00000  Uiso   1.00
C996   C     0.94641   0.22507   0.84229   0.00000  Uiso   1.00
C997   C     0.95838   0.05228   0.75280   0.00000  Uiso   1.00
C998   C     0.70827   0.28105   0.74722   0.00000  Uiso   1.00
C999   C     0.90413   0.13611   0.97578   0.00000  Uiso   1.00
C1000  C     0.68905   0.13110   0.72837   0.00000  Uiso   1.00
C1001  C     0.97762   0.20223   0.77165   0.00000  Uiso   1.00
C1002  C     0.97992   0.12779   0.73395   0.00000  Uiso   1.00
C1003  C     0.68675   0.20553   0.76606   0.00000  Uiso   1.00
C1004  C     0.95766   0.16454   0.75352   0.00000  Uiso   1.00
F1005  F     0.78928   0.04769   0.81318   0.00000  Uiso   1.00
F1006  F     0.87739   0.28565   0.68682   0.00000  Uiso   1.00
F1007  F     0.87659   0.04567   0.68619   0.00000  Uiso   1.00
F1008  F     0.79007   0.28767   0.81381   0.00000  Uiso   1.00
H1009  H     0.89430   0.13649   0.88773   0.00000  Uiso   1.00
H1010  H     0.67075   0.18125   0.92503   0.00000  Uiso   1.00
H1011  H     0.96073   0.10140   0.52838   0.00000  Uiso   1.00
H1012  H     0.97590   0.18414   0.52783   0.00000  Uiso   1.00
H1013  H     0.99587   0.15224   0.57502   0.00000  Uiso   1.00
H1014  H     0.94938   0.18647   0.58147   0.00000  Uiso   1.00
H1015  H     0.70293   0.06406   0.70848   0.00000  Uiso   1.00
H1016  H     0.69099   0.10904   0.63835   0.00000  Uiso   1.00
H1017  H     0.74168   0.08229   0.64294   0.00000  Uiso   1.00
H1018  H     0.73510   0.14172   0.65531   0.00000  Uiso   1.00
H1019  H     0.96373   0.26927   0.79154   0.00000  Uiso   1.00
H1020  H     0.77237   0.19682   0.61227   0.00000  Uiso   1.00
H1021  H     0.97568   0.22435   0.86169   0.00000  Uiso   1.00
H1022  H     0.93163   0.19157   0.84473   0.00000  Uiso   1.00
H1023  H     0.92495   0.25100   0.85707   0.00000  Uiso   1.00
H1024  H     0.96833   0.07651   0.68797   0.00000  Uiso   1.00
H1025  H     0.99015   0.04138   0.76280   0.00000  Uiso   1.00
H1026  H     0.94246   0.02249   0.73893   0.00000  Uiso   1.00
H1027  H     0.94127   0.06412   0.78316   0.00000  Uiso   1.00
H1028  H     0.69833   0.25681   0.81204   0.00000  Uiso   1.00
H1029  H     0.67649   0.29193   0.73721   0.00000  Uiso   1.00
H1030  H     0.72539   0.26922   0.71685   0.00000  Uiso   1.00
H1031  H     0.77177   0.19549   0.88766   0.00000  Uiso   1.00
H1032  H     0.72417   0.31086   0.76108   0.00000  Uiso   1.00
H1033  H     0.89490   0.13789   0.61234   0.00000  Uiso   1.00
H1034  H     0.73523   0.20845   0.54279   0.00000  Uiso   1.00
H1035  H     0.93144   0.12489   0.95721   0.00000  Uiso   1.00
H1036  H     0.70598   0.23206   0.97162   0.00000  Uiso   1.00
H1037  H     0.69074   0.14931   0.97218   0.00000  Uiso   1.00
H1038  H     0.71721   0.14697   0.91850   0.00000  Uiso   1.00
N1039  N     0.83333   0.28573   0.75000   0.00000  Uiso   1.00
N1040  N     0.83333   0.04760   0.75000   0.00000  Uiso   1.00
N1041  N     0.72370   0.20781   0.95496   0.00000  Uiso   1.00
N1042  N     0.94298   0.12561   0.54504   0.00000  Uiso   1.00
N1043  N     0.71201   0.09700   0.70412   0.00000  Uiso   1.00
N1044  N     0.95466   0.23632   0.79590   0.00000  Uiso   1.00
N1045  N     0.95956   0.08802   0.71935   0.00000  Uiso   1.00
N1046  N     0.70710   0.24531   0.78067   0.00000  Uiso   1.00
O1047  O     0.77226   0.20487   0.74999   0.00000  Uiso   1.00
O1048  O     0.89441   0.12846   0.75000   0.00000  Uiso   1.00
O1049  O     0.89441   0.20487   0.75000   0.00000  Uiso   1.00
O1050  O     0.77226   0.12846   0.74999   0.00000  Uiso   1.00
O1051  O     0.83333   0.20489   0.68392   0.00000  Uiso   1.00
O1052  O     0.83334   0.12844   0.81608   0.00000  Uiso   1.00
O1053  O     0.83334   0.20489   0.81607   0.00000  Uiso   1.00
O1054  O     0.83333   0.12844   0.68392   0.00000  Uiso   1.00
Zn1055 Zn    0.83333   0.21771   0.75000   0.00000  Uiso   1.00
Zn1056 Zn    0.83333   0.11563   0.75000   0.00000  Uiso   1.00
C1057  C     0.08663   0.50067   0.74861   0.00000  Uiso   1.00
C1058  C     0.04234   0.50212   0.74649   0.00000  Uiso   1.00
C1059  C     0.14484   0.35782   0.78169   0.00000  Uiso   1.00
C1060  C     0.18849   0.64218   0.71831   0.00000  Uiso   1.00
C1061  C     0.18832   0.35682   0.71818   0.00000  Uiso   1.00
C1062  C     0.14502   0.64318   0.78182   0.00000  Uiso   1.00
C1063  C     0.16674   0.50006   0.66349   0.00000  Uiso   1.00
C1064  C     0.16659   0.49994   0.83651   0.00000  Uiso   1.00
C1065  C     0.20103   0.48271   0.90654   0.00000  Uiso   1.00
C1066  C     0.13230   0.51727   0.59346   0.00000  Uiso   1.00
C1067  C     0.16638   0.49968   0.88411   0.00000  Uiso   1.00
C1068  C     0.24670   0.49933   0.75139   0.00000  Uiso   1.00
C1069  C     0.16695   0.50033   0.61589   0.00000  Uiso   1.00
C1070  C     0.13138   0.51593   0.90675   0.00000  Uiso   1.00
C1071  C     0.20196   0.48410   0.59325   0.00000  Uiso   1.00
C1072  C     0.13036   0.51490   0.95343   0.00000  Uiso   1.00
C1073  C     0.20298   0.48513   0.54656   0.00000  Uiso   1.00
C1074  C     0.16635   0.49967   0.97663   0.00000  Uiso   1.00
C1075  C     0.16699   0.50035   0.52337   0.00000  Uiso   1.00
C1076  C     0.20173   0.48363   0.95296   0.00000  Uiso   1.00
C1077  C     0.13161   0.51638   0.54704   0.00000  Uiso   1.00
C1078  C     0.09459   0.52913   0.97742   0.00000  Uiso   1.00
C1079  C     0.09588   0.53057   0.52422   0.00000  Uiso   1.00
C1080  C     0.23876   0.47091   0.52258   0.00000  Uiso   1.00
C1081  C     0.03281   0.50261   0.94206   0.00000  Uiso   1.00
C1082  C     0.30048   0.49752   0.55795   0.00000  Uiso   1.00
C1083  C     0.05360   0.44158   0.65774   0.00000  Uiso   1.00
C1084  C     0.27974   0.55841   0.84229   0.00000  Uiso   1.00
C1085  C     0.29172   0.38561   0.75280   0.00000  Uiso   1.00
C1086  C     0.04160   0.61439   0.74722   0.00000  Uiso   1.00
C1087  C     0.23746   0.46944   0.97578   0.00000  Uiso   1.00
C1088  C     0.02238   0.46443   0.72837   0.00000  Uiso   1.00
C1089  C     0.31095   0.53556   0.77165   0.00000  Uiso   1.00
C1090  C     0.31325   0.46113   0.73395   0.00000  Uiso   1.00
C1091  C     0.02008   0.53887   0.76606   0.00000  Uiso   1.00
C1092  C     0.29099   0.49787   0.75352   0.00000  Uiso   1.00
F1093  F     0.12261   0.38102   0.81318   0.00000  Uiso   1.00
F1094  F     0.21072   0.61898   0.68682   0.00000  Uiso   1.00
F1095  F     0.20993   0.37900   0.68619   0.00000  Uiso   1.00
F1096  F     0.12341   0.62100   0.81381   0.00000  Uiso   1.00
H1097  H     0.22763   0.46982   0.88773   0.00000  Uiso   1.00
H1098  H     0.00409   0.51459   0.92503   0.00000  Uiso   1.00
H1099  H     0.29407   0.43474   0.52838   0.00000  Uiso   1.00
H1100  H     0.30923   0.51748   0.52783   0.00000  Uiso   1.00
H1101  H     0.32920   0.48557   0.57502   0.00000  Uiso   1.00
H1102  H     0.28271   0.51980   0.58147   0.00000  Uiso   1.00
H1103  H     0.03626   0.39739   0.70848   0.00000  Uiso   1.00
H1104  H     0.02432   0.44238   0.63835   0.00000  Uiso   1.00
H1105  H     0.07502   0.41562   0.64294   0.00000  Uiso   1.00
H1106  H     0.06844   0.47505   0.65531   0.00000  Uiso   1.00
H1107  H     0.29707   0.60260   0.79154   0.00000  Uiso   1.00
H1108  H     0.10570   0.53015   0.61227   0.00000  Uiso   1.00
H1109  H     0.30902   0.55768   0.86169   0.00000  Uiso   1.00
H1110  H     0.26497   0.52490   0.84473   0.00000  Uiso   1.00
H1111  H     0.25828   0.58433   0.85707   0.00000  Uiso   1.00
H1112  H     0.30167   0.40985   0.68797   0.00000  Uiso   1.00
H1113  H     0.32349   0.37471   0.76280   0.00000  Uiso   1.00
H1114  H     0.27580   0.35582   0.73893   0.00000  Uiso   1.00
H1115  H     0.27460   0.39746   0.78316   0.00000  Uiso   1.00
H1116  H     0.03167   0.59014   0.81204   0.00000  Uiso   1.00
H1117  H     0.00982   0.62526   0.73721   0.00000  Uiso   1.00
H1118  H     0.05873   0.60255   0.71685   0.00000  Uiso   1.00
H1119  H     0.10510   0.52882   0.88766   0.00000  Uiso   1.00
H1120  H     0.05750   0.64419   0.76108   0.00000  Uiso   1.00
H1121  H     0.22823   0.47123   0.61234   0.00000  Uiso   1.00
H1122  H     0.06856   0.54179   0.54279   0.00000  Uiso   1.00
H1123  H     0.26478   0.45822   0.95721   0.00000  Uiso   1.00
H1124  H     0.03932   0.56540   0.97162   0.00000  Uiso   1.00
H1125  H     0.02408   0.48265   0.97218   0.00000  Uiso   1.00
H1126  H     0.05054   0.48031   0.91850   0.00000  Uiso   1.00
N1127  N     0.16667   0.61907   0.75000   0.00000  Uiso   1.00
N1128  N     0.16667   0.38093   0.75000   0.00000  Uiso   1.00
N1129  N     0.05704   0.54114   0.95496   0.00000  Uiso   1.00
N1130  N     0.27631   0.45895   0.54504   0.00000  Uiso   1.00
N1131  N     0.04534   0.43034   0.70412   0.00000  Uiso   1.00
N1132  N     0.28799   0.56965   0.79590   0.00000  Uiso   1.00
N1133  N     0.29290   0.42135   0.71935   0.00000  Uiso   1.00
N1134  N     0.04044   0.57864   0.78067   0.00000  Uiso   1.00
O1135  O     0.10559   0.53821   0.74999   0.00000  Uiso   1.00
O1136  O     0.22774   0.46179   0.75000   0.00000  Uiso   1.00
O1137  O     0.22774   0.53821   0.75000   0.00000  Uiso   1.00
O1138  O     0.10559   0.46179   0.74999   0.00000  Uiso   1.00
O1139  O     0.16666   0.53823   0.68392   0.00000  Uiso   1.00
O1140  O     0.16667   0.46177   0.81608   0.00000  Uiso   1.00
O1141  O     0.16667   0.53823   0.81607   0.00000  Uiso   1.00
O1142  O     0.16666   0.46177   0.68392   0.00000  Uiso   1.00
Zn1143 Zn    0.16667   0.55104   0.75000   0.00000  Uiso   1.00
Zn1144 Zn    0.16667   0.44896   0.75000   0.00000  Uiso   1.00
C1145  C     0.41997   0.50067   0.74861   0.00000  Uiso   1.00
C1146  C     0.37567   0.50212   0.74649   0.00000  Uiso   1.00
C1147  C     0.47817   0.35782   0.78169   0.00000  Uiso   1.00
C1148  C     0.52183   0.64218   0.71831   0.00000  Uiso   1.00
C1149  C     0.52165   0.35682   0.71818   0.00000  Uiso   1.00
C1150  C     0.47835   0.64318   0.78182   0.00000  Uiso   1.00
C1151  C     0.50008   0.50006   0.66349   0.00000  Uiso   1.00
C1152  C     0.49992   0.49994   0.83651   0.00000  Uiso   1.00
C1153  C     0.53436   0.48271   0.90654   0.00000  Uiso   1.00
C1154  C     0.46563   0.51727   0.59346   0.00000  Uiso   1.00
C1155  C     0.49972   0.49968   0.88411   0.00000  Uiso   1.00
C1156  C     0.58003   0.49933   0.75139   0.00000  Uiso   1.00
C1157  C     0.50029   0.50033   0.61589   0.00000  Uiso   1.00
C1158  C     0.46471   0.51593   0.90675   0.00000  Uiso   1.00
C1159  C     0.53529   0.48410   0.59325   0.00000  Uiso   1.00
C1160  C     0.46369   0.51490   0.95343   0.00000  Uiso   1.00
C1161  C     0.53632   0.48513   0.54656   0.00000  Uiso   1.00
C1162  C     0.49968   0.49967   0.97663   0.00000  Uiso   1.00
C1163  C     0.50032   0.50035   0.52337   0.00000  Uiso   1.00
C1164  C     0.53506   0.48363   0.95296   0.00000  Uiso   1.00
C1165  C     0.46494   0.51638   0.54704   0.00000  Uiso   1.00
C1166  C     0.42792   0.52913   0.97742   0.00000  Uiso   1.00
C1167  C     0.42921   0.53057   0.52422   0.00000  Uiso   1.00
C1168  C     0.57209   0.47091   0.52258   0.00000  Uiso   1.00
C1169  C     0.36615   0.50261   0.94206   0.00000  Uiso   1.00
C1170  C     0.63382   0.49752   0.55795   0.00000  Uiso   1.00
C1171  C     0.38694   0.44158   0.65774   0.00000  Uiso   1.00
C1172  C     0.61307   0.55841   0.84229   0.00000  Uiso   1.00
C1173  C     0.62505   0.38561   0.75280   0.00000  Uiso   1.00
C1174  C     0.37493   0.61439   0.74722   0.00000  Uiso   1.00
C1175  C     0.57079   0.46944   0.97578   0.00000  Uiso   1.00
C1176  C     0.35571   0.46443   0.72837   0.00000  Uiso   1.00
C1177  C     0.64429   0.53556   0.77165   0.00000  Uiso   1.00
C1178  C     0.64658   0.46113   0.73395   0.00000  Uiso   1.00
C1179  C     0.35342   0.53887   0.76606   0.00000  Uiso   1.00
C1180  C     0.62433   0.49787   0.75352   0.00000  Uiso   1.00
F1181  F     0.45595   0.38102   0.81318   0.00000  Uiso   1.00
F1182  F     0.54405   0.61898   0.68682   0.00000  Uiso   1.00
F1183  F     0.54326   0.37900   0.68619   0.00000  Uiso   1.00
F1184  F     0.45674   0.62100   0.81381   0.00000  Uiso   1.00
H1185  H     0.56096   0.46982   0.88773   0.00000  Uiso   1.00
H1186  H     0.33742   0.51459   0.92503   0.00000  Uiso   1.00
H1187  H     0.62740   0.43474   0.52838   0.00000  Uiso   1.00
H1188  H     0.64256   0.51748   0.52783   0.00000  Uiso   1.00
H1189  H     0.66254   0.48557   0.57502   0.00000  Uiso   1.00
H1190  H     0.61605   0.51980   0.58147   0.00000  Uiso   1.00
H1191  H     0.36959   0.39739   0.70848   0.00000  Uiso   1.00
H1192  H     0.35765   0.44238   0.63835   0.00000  Uiso   1.00
H1193  H     0.40835   0.41562   0.64294   0.00000  Uiso   1.00
H1194  H     0.40177   0.47505   0.65531   0.00000  Uiso   1.00
H1195  H     0.63040   0.60260   0.79154   0.00000  Uiso   1.00
H1196  H     0.43903   0.53015   0.61227   0.00000  Uiso   1.00
H1197  H     0.64235   0.55768   0.86169   0.00000  Uiso   1.00
H1198  H     0.59830   0.52490   0.84473   0.00000  Uiso   1.00
H1199  H     0.59161   0.58433   0.85707   0.00000  Uiso   1.00
H1200  H     0.63500   0.40985   0.68797   0.00000  Uiso   1.00
H1201  H     0.65682   0.37471   0.76280   0.00000  Uiso   1.00
H1202  H     0.60913   0.35582   0.73893   0.00000  Uiso   1.00
H1203  H     0.60793   0.39746   0.78316   0.00000  Uiso   1.00
H1204  H     0.36500   0.59014   0.81204   0.00000  Uiso   1.00
H1205  H     0.34316   0.62526   0.73721   0.00000  Uiso   1.00
H1206  H     0.39206   0.60255   0.71685   0.00000  Uiso   1.00
H1207  H     0.43844   0.52882   0.88766   0.00000  Uiso   1.00
H1208  H     0.39083   0.64419   0.76108   0.00000  Uiso   1.00
H1209  H     0.56157   0.47123   0.61234   0.00000  Uiso   1.00
H1210  H     0.40189   0.54179   0.54279   0.00000  Uiso   1.00
H1211  H     0.59811   0.45822   0.95721   0.00000  Uiso   1.00
H1212  H     0.37265   0.56540   0.97162   0.00000  Uiso   1.00
H1213  H     0.35741   0.48265   0.97218   0.00000  Uiso   1.00
H1214  H     0.38387   0.48031   0.91850   0.00000  Uiso   1.00
N1215  N     0.50000   0.61907   0.75000   0.00000  Uiso   1.00
N1216  N     0.50000   0.38093   0.75000   0.00000  Uiso   1.00
N1217  N     0.39037   0.54114   0.95496   0.00000  Uiso   1.00
N1218  N     0.60965   0.45895   0.54504   0.00000  Uiso   1.00
N1219  N     0.37868   0.43034   0.70412   0.00000  Uiso   1.00
N1220  N     0.62132   0.56965   0.79590   0.00000  Uiso   1.00
N1221  N     0.62623   0.42135   0.71935   0.00000  Uiso   1.00
N1222  N     0.37377   0.57864   0.78067   0.00000  Uiso   1.00
O1223  O     0.43892   0.53821   0.74999   0.00000  Uiso   1.00
O1224  O     0.56108   0.46179   0.75000   0.00000  Uiso   1.00
O1225  O     0.56108   0.53821   0.75000   0.00000  Uiso   1.00
O1226  O     0.43892   0.46179   0.74999   0.00000  Uiso   1.00
O1227  O     0.49999   0.53823   0.68392   0.00000  Uiso   1.00
O1228  O     0.50001   0.46177   0.81608   0.00000  Uiso   1.00
O1229  O     0.50001   0.53823   0.81607   0.00000  Uiso   1.00
O1230  O     0.49999   0.46177   0.68392   0.00000  Uiso   1.00
Zn1231 Zn    0.50000   0.55104   0.75000   0.00000  Uiso   1.00
Zn1232 Zn    0.50000   0.44896   0.75000   0.00000  Uiso   1.00
C1233  C     0.75330   0.50067   0.74861   0.00000  Uiso   1.00
C1234  C     0.70901   0.50212   0.74649   0.00000  Uiso   1.00
C1235  C     0.81151   0.35782   0.78169   0.00000  Uiso   1.00
C1236  C     0.85516   0.64218   0.71831   0.00000  Uiso   1.00
C1237  C     0.85498   0.35682   0.71818   0.00000  Uiso   1.00
C1238  C     0.81168   0.64318   0.78182   0.00000  Uiso   1.00
C1239  C     0.83341   0.50006   0.66349   0.00000  Uiso   1.00
C1240  C     0.83326   0.49994   0.83651   0.00000  Uiso   1.00
C1241  C     0.86770   0.48271   0.90654   0.00000  Uiso   1.00
C1242  C     0.79897   0.51727   0.59346   0.00000  Uiso   1.00
C1243  C     0.83305   0.49968   0.88411   0.00000  Uiso   1.00
C1244  C     0.91337   0.49933   0.75139   0.00000  Uiso   1.00
C1245  C     0.83362   0.50033   0.61589   0.00000  Uiso   1.00
C1246  C     0.79805   0.51593   0.90675   0.00000  Uiso   1.00
C1247  C     0.86862   0.48410   0.59325   0.00000  Uiso   1.00
C1248  C     0.79702   0.51490   0.95343   0.00000  Uiso   1.00
C1249  C     0.86965   0.48513   0.54656   0.00000  Uiso   1.00
C1250  C     0.83302   0.49967   0.97663   0.00000  Uiso   1.00
C1251  C     0.83365   0.50035   0.52337   0.00000  Uiso   1.00
C1252  C     0.86840   0.48363   0.95296   0.00000  Uiso   1.00
C1253  C     0.79827   0.51638   0.54704   0.00000  Uiso   1.00
C1254  C     0.76125   0.52913   0.97742   0.00000  Uiso   1.00
C1255  C     0.76254   0.53057   0.52422   0.00000  Uiso   1.00
C1256  C     0.90542   0.47091   0.52258   0.00000  Uiso   1.00
C1257  C     0.69948   0.50261   0.94206   0.00000  Uiso   1.00
C1258  C     0.96715   0.49752   0.55795   0.00000  Uiso   1.00
C1259  C     0.72027   0.44158   0.65774   0.00000  Uiso   1.00
C1260  C     0.94641   0.55841   0.84229   0.00000  Uiso   1.00
C1261  C     0.95838   0.38561   0.75280   0.00000  Uiso   1.00
C1262  C     0.70827   0.61439   0.74722   0.00000  Uiso   1.00
C1263  C     0.90413   0.46944   0.97578   0.00000  Uiso   1.00
C1264  C     0.68905   0.46443   0.72837   0.00000  Uiso   1.00
C1265  C     0.97762   0.53556   0.77165   0.00000  Uiso   1.00
C1266  C     0.97992   0.46113   0.73395   0.00000  Uiso   1.00
C1267  C     0.68675   0.53887   0.76606   0.00000  Uiso   1.00
C1268  C     0.95766   0.49787   0.75352   0.00000  Uiso   1.00
F1269  F     0.78928   0.38102   0.81318   0.00000  Uiso   1.00
F1270  F     0.87739   0.61898   0.68682   0.00000  Uiso   1.00
F1271  F     0.87659   0.37900   0.68619   0.00000  Uiso   1.00
F1272  F     0.79007   0.62100   0.81381   0.00000  Uiso   1.00
H1273  H     0.89430   0.46982   0.88773   0.00000  Uiso   1.00
H1274  H     0.67075   0.51459   0.92503   0.00000  Uiso   1.00
H1275  H     0.96073   0.43474   0.52838   0.00000  Uiso   1.00
H1276  H     0.97590   0.51748   0.52783   0.00000  Uiso   1.00
H1277  H     0.99587   0.48557   0.57502   0.00000  Uiso   1.00
H1278  H     0.94938   0.51980   0.58147   0.00000  Uiso   1.00
H1279  H     0.70293   0.39739   0.70848   0.00000  Uiso   1.00
H1280  H     0.69099   0.44238   0.63835   0.00000  Uiso   1.00
H1281  H     0.74168   0.41562   0.64294   0.00000  Uiso   1.00
H1282  H     0.73510   0.47505   0.65531   0.00000  Uiso   1.00
H1283  H     0.96373   0.60260   0.79154   0.00000  Uiso   1.00
H1284  H     0.77237   0.53015   0.61227   0.00000  Uiso   1.00
H1285  H     0.97568   0.55768   0.86169   0.00000  Uiso   1.00
H1286  H     0.93163   0.52490   0.84473   0.00000  Uiso   1.00
H1287  H     0.92495   0.58433   0.85707   0.00000  Uiso   1.00
H1288  H     0.96833   0.40985   0.68797   0.00000  Uiso   1.00
H1289  H     0.99015   0.37471   0.76280   0.00000  Uiso   1.00
H1290  H     0.94246   0.35582   0.73893   0.00000  Uiso   1.00
H1291  H     0.94127   0.39746   0.78316   0.00000  Uiso   1.00
H1292  H     0.69833   0.59014   0.81204   0.00000  Uiso   1.00
H1293  H     0.67649   0.62526   0.73721   0.00000  Uiso   1.00
H1294  H     0.72539   0.60255   0.71685   0.00000  Uiso   1.00
H1295  H     0.77177   0.52882   0.88766   0.00000  Uiso   1.00
H1296  H     0.72417   0.64419   0.76108   0.00000  Uiso   1.00
H1297  H     0.89490   0.47123   0.61234   0.00000  Uiso   1.00
H1298  H     0.73523   0.54179   0.54279   0.00000  Uiso   1.00
H1299  H     0.93144   0.45822   0.95721   0.00000  Uiso   1.00
H1300  H     0.70598   0.56540   0.97162   0.00000  Uiso   1.00
H1301  H     0.69074   0.48265   0.97218   0.00000  Uiso   1.00
H1302  H     0.71721   0.48031   0.91850   0.00000  Uiso   1.00
N1303  N     0.83333   0.61907   0.75000   0.00000  Uiso   1.00
N1304  N     0.83333   0.38093   0.75000   0.00000  Uiso   1.00
N1305  N     0.72370   0.54114   0.95496   0.00000  Uiso   1.00
N1306  N     0.94298   0.45895   0.54504   0.00000  Uiso   1.00
N1307  N     0.71201   0.43034   0.70412   0.00000  Uiso   1.00
N1308  N     0.95466   0.56965   0.79590   0.00000  Uiso   1.00
N1309  N     0.95956   0.42135   0.71935   0.00000  Uiso   1.00
N1310  N     0.70710   0.57864   0.78067   0.00000  Uiso   1.00
O1311  O     0.77226   0.53821   0.74999   0.00000  Uiso   1.00
O1312  O     0.89441   0.46179   0.75000   0.00000  Uiso   1.00
O1313  O     0.89441   0.53821   0.75000   0.00000  Uiso   1.00
O1314  O     0.77226   0.46179   0.74999   0.00000  Uiso   1.00
O1315  O     0.83333   0.53823   0.68392   0.00000  Uiso   1.00
O1316  O     0.83334   0.46177   0.81608   0.00000  Uiso   1.00
O1317  O     0.83334   0.53823   0.81607   0.00000  Uiso   1.00
O1318  O     0.83333   0.46177   0.68392   0.00000  Uiso   1.00
Zn1319 Zn    0.83333   0.55104   0.75000   0.00000  Uiso   1.00
Zn1320 Zn    0.83333   0.44896   0.75000   0.00000  Uiso   1.00
C1321  C     0.08663   0.83400   0.74861   0.00000  Uiso   1.00
C1322  C     0.04234   0.83545   0.74649   0.00000  Uiso   1.00
C1323  C     0.14484   0.69116   0.78169   0.00000  Uiso   1.00
C1324  C     0.18849   0.97551   0.71831   0.00000  Uiso   1.00
C1325  C     0.18832   0.69015   0.71818   0.00000  Uiso   1.00
C1326  C     0.14502   0.97652   0.78182   0.00000  Uiso   1.00
C1327  C     0.16674   0.83339   0.66349   0.00000  Uiso   1.00
C1328  C     0.16659   0.83328   0.83651   0.00000  Uiso   1.00
C1329  C     0.20103   0.81605   0.90654   0.00000  Uiso   1.00
C1330  C     0.13230   0.85061   0.59346   0.00000  Uiso   1.00
C1331  C     0.16638   0.83301   0.88411   0.00000  Uiso   1.00
C1332  C     0.24670   0.83266   0.75139   0.00000  Uiso   1.00
C1333  C     0.16695   0.83366   0.61589   0.00000  Uiso   1.00
C1334  C     0.13138   0.84927   0.90675   0.00000  Uiso   1.00
C1335  C     0.20196   0.81743   0.59325   0.00000  Uiso   1.00
C1336  C     0.13036   0.84824   0.95343   0.00000  Uiso   1.00
C1337  C     0.20298   0.81846   0.54656   0.00000  Uiso   1.00
C1338  C     0.16635   0.83301   0.97663   0.00000  Uiso   1.00
C1339  C     0.16699   0.83368   0.52337   0.00000  Uiso   1.00
C1340  C     0.20173   0.81696   0.95296   0.00000  Uiso   1.00
C1341  C     0.13161   0.84971   0.54704   0.00000  Uiso   1.00
C1342  C     0.09459   0.86246   0.97742   0.00000  Uiso   1.00
C1343  C     0.09588   0.86391   0.52422   0.00000  Uiso   1.00
C1344  C     0.23876   0.80425   0.52258   0.00000  Uiso   1.00
C1345  C     0.03281   0.83594   0.94206   0.00000  Uiso   1.00
C1346  C     0.30048   0.83085   0.55795   0.00000  Uiso   1.00
C1347  C     0.05360   0.77491   0.65774   0.00000  Uiso   1.00
C1348  C     0.27974   0.89174   0.84229   0.00000  Uiso   1.00
C1349  C     0.29172   0.71895   0.75280   0.00000  Uiso   1.00
C1350  C     0.04160   0.94772   0.74722   0.00000  Uiso   1.00
C1351  C     0.23746   0.80277   0.97578   0.00000  Uiso   1.00
C1352  C     0.02238   0.79776   0.72837   0.00000  Uiso   1.00
C1353  C     0.31095   0.86890   0.77165   0.00000  Uiso   1.00
C1354  C     0.31325   0.79446   0.73395   0.00000  Uiso   1.00
C1355  C     0.02008   0.87220   0.76606   0.00000  Uiso   1.00
C1356  C     0.29099   0.83121   0.75352   0.00000  Uiso   1.00
F1357  F     0.12261   0.71435   0.81318   0.00000  Uiso   1.00
F1358  F     0.21072   0.95231   0.68682   0.00000  Uiso   1.00
F1359  F     0.20993   0.71233   0.68619   0.00000  Uiso   1.00
F1360  F     0.12341   0.95433   0.81381   0.00000  Uiso   1.00
H1361  H     0.22763   0.80315   0.88773   0.00000  Uiso   1.00
H1362  H     0.00409   0.84792   0.92503   0.00000  Uiso   1.00
H1363  H     0.29407   0.76807   0.52838   0.00000  Uiso   1.00
H1364  H     0.30923   0.85081   0.52783   0.00000  Uiso   1.00
H1365  H     0.32920   0.81891   0.57502   0.00000  Uiso   1.00
H1366  H     0.28271   0.85314   0.58147   0.00000  Uiso   1.00
H1367  H     0.03626   0.73072   0.70848   0.00000  Uiso   1.00
H1368  H     0.02432   0.77571   0.63835   0.00000  Uiso   1.00
H1369  H     0.07502   0.74895   0.64294   0.00000  Uiso   1.00
H1370  H     0.06844   0.80838   0.65531   0.00000  Uiso   1.00
H1371  H     0.29707   0.93594   0.79154   0.00000  Uiso   1.00
H1372  H     0.10570   0.86348   0.61227   0.00000  Uiso   1.00
H1373  H     0.30902   0.89101   0.86169   0.00000  Uiso   1.00
H1374  H     0.26497   0.85824   0.84473   0.00000  Uiso   1.00
H1375  H     0.25828   0.91767   0.85707   0.00000  Uiso   1.00
H1376  H     0.30167   0.74318   0.68797   0.00000  Uiso   1.00
H1377  H     0.32349   0.70805   0.76280   0.00000  Uiso   1.00
H1378  H     0.27580   0.68915   0.73893   0.00000  Uiso   1.00
H1379  H     0.27460   0.73079   0.78316   0.00000  Uiso   1.00
H1380  H     0.03167   0.92348   0.81204   0.00000  Uiso   1.00
H1381  H     0.00982   0.95860   0.73721   0.00000  Uiso   1.00
H1382  H     0.05873   0.93589   0.71685   0.00000  Uiso   1.00
H1383  H     0.10510   0.86216   0.88766   0.00000  Uiso   1.00
H1384  H     0.05750   0.97753   0.76108   0.00000  Uiso   1.00
H1385  H     0.22823   0.80456   0.61234   0.00000  Uiso   1.00
H1386  H     0.06856   0.87512   0.54279   0.00000  Uiso   1.00
H1387  H     0.26478   0.79155   0.95721   0.00000  Uiso   1.00
H1388  H     0.03932   0.89873   0.97162   0.00000  Uiso   1.00
H1389  H     0.02408   0.81598   0.97218   0.00000  Uiso   1.00
H1390  H     0.05054   0.81364   0.91850   0.00000  Uiso   1.00
N1391  N     0.16667   0.95240   0.75000   0.00000  Uiso   1.00
N1392  N     0.16667   0.71427   0.75000   0.00000  Uiso   1.00
N1393  N     0.05704   0.87448   0.95496   0.00000  Uiso   1.00
N1394  N     0.27631   0.79228   0.54504   0.00000  Uiso   1.00
N1395  N     0.04534   0.76367   0.70412   0.00000  Uiso   1.00
N1396  N     0.28799   0.90299   0.79590   0.00000  Uiso   1.00
N1397  N     0.29290   0.75468   0.71935   0.00000  Uiso   1.00
N1398  N     0.04044   0.91198   0.78067   0.00000  Uiso   1.00
O1399  O     0.10559   0.87154   0.74999   0.00000  Uiso   1.00
O1400  O     0.22774   0.79513   0.75000   0.00000  Uiso   1.00
O1401  O     0.22774   0.87154   0.75000   0.00000  Uiso   1.00
O1402  O     0.10559   0.79513   0.74999   0.00000  Uiso   1.00
O1403  O     0.16666   0.87156   0.68392   0.00000  Uiso   1.00
O1404  O     0.16667   0.79511   0.81608   0.00000  Uiso   1.00
O1405  O     0.16667   0.87156   0.81607   0.00000  Uiso   1.00
O1406  O     0.16666   0.79511   0.68392   0.00000  Uiso   1.00
Zn1407 Zn    0.16667   0.88437   0.75000   0.00000  Uiso   1.00
Zn1408 Zn    0.16667   0.78229   0.75000   0.00000  Uiso   1.00
C1409  C     0.41997   0.83400   0.74861   0.00000  Uiso   1.00
C1410  C     0.37567   0.83545   0.74649   0.00000  Uiso   1.00
C1411  C     0.47817   0.69116   0.78169   0.00000  Uiso   1.00
C1412  C     0.52183   0.97551   0.71831   0.00000  Uiso   1.00
C1413  C     0.52165   0.69015   0.71818   0.00000  Uiso   1.00
C1414  C     0.47835   0.97652   0.78182   0.00000  Uiso   1.00
C1415  C     0.50008   0.83339   0.66349   0.00000  Uiso   1.00
C1416  C     0.49992   0.83328   0.83651   0.00000  Uiso   1.00
C1417  C     0.53436   0.81605   0.90654   0.00000  Uiso   1.00
C1418  C     0.46563   0.85061   0.59346   0.00000  Uiso   1.00
C1419  C     0.49972   0.83301   0.88411   0.00000  Uiso   1.00
C1420  C     0.58003   0.83266   0.75139   0.00000  Uiso   1.00
C1421  C     0.50029   0.83366   0.61589   0.00000  Uiso   1.00
C1422  C     0.46471   0.84927   0.90675   0.00000  Uiso   1.00
C1423  C     0.53529   0.81743   0.59325   0.00000  Uiso   1.00
C1424  C     0.46369   0.84824   0.95343   0.00000  Uiso   1.00
C1425  C     0.53632   0.81846   0.54656   0.00000  Uiso   1.00
C1426  C     0.49968   0.83301   0.97663   0.00000  Uiso   1.00
C1427  C     0.50032   0.83368   0.52337   0.00000  Uiso   1.00
C1428  C     0.53506   0.81696   0.95296   0.00000  Uiso   1.00
C1429  C     0.46494   0.84971   0.54704   0.00000  Uiso   1.00
C1430  C     0.42792   0.86246   0.97742   0.00000  Uiso   1.00
C1431  C     0.42921   0.86391   0.52422   0.00000  Uiso   1.00
C1432  C     0.57209   0.80425   0.52258   0.00000  Uiso   1.00
C1433  C     0.36615   0.83594   0.94206   0.00000  Uiso   1.00
C1434  C     0.63382   0.83085   0.55795   0.00000  Uiso   1.00
C1435  C     0.38694   0.77491   0.65774   0.00000  Uiso   1.00
C1436  C     0.61307   0.89174   0.84229   0.00000  Uiso   1.00
C1437  C     0.62505   0.71895   0.75280   0.00000  Uiso   1.00
C1438  C     0.37493   0.94772   0.74722   0.00000  Uiso   1.00
C1439  C     0.57079   0.80277   0.97578   0.00000  Uiso   1.00
C1440  C     0.35571   0.79776   0.72837   0.00000  Uiso   1.00
C1441  C     0.64429   0.86890   0.77165   0.00000  Uiso   1.00
C1442  C     0.64658   0.79446   0.73395   0.00000  Uiso   1.00
C1443  C     0.35342   0.87220   0.76606   0.00000  Uiso   1.00
C1444  C     0.62433   0.83121   0.75352   0.00000  Uiso   1.00
F1445  F     0.45595   0.71435   0.81318   0.00000  Uiso   1.00
F1446  F     0.54405   0.95231   0.68682   0.00000  Uiso   1.00
F1447  F     0.54326   0.71233   0.68619   0.00000  Uiso   1.00
F1448  F     0.45674   0.95433   0.81381   0.00000  Uiso   1.00
H1449  H     0.56096   0.80315   0.88773   0.00000  Uiso   1.00
H1450  H     0.33742   0.84792   0.92503   0.00000  Uiso   1.00
H1451  H     0.62740   0.76807   0.52838   0.00000  Uiso   1.00
H1452  H     0.64256   0.85081   0.52783   0.00000  Uiso   1.00
H1453  H     0.66254   0.81891   0.57502   0.00000  Uiso   1.00
H1454  H     0.61605   0.85314   0.58147   0.00000  Uiso   1.00
H1455  H     0.36959   0.73072   0.70848   0.00000  Uiso   1.00
H1456  H     0.35765   0.77571   0.63835   0.00000  Uiso   1.00
H1457  H     0.40835   0.74895   0.64294   0.00000  Uiso   1.00
H1458  H     0.40177   0.80838   0.65531   0.00000  Uiso   1.00
H1459  H     0.63040   0.93594   0.79154   0.00000  Uiso   1.00
H1460  H     0.43903   0.86348   0.61227   0.00000  Uiso   1.00
H1461  H     0.64235   0.89101   0.86169   0.00000  Uiso   1.00
H1462  H     0.59830   0.85824   0.84473   0.00000  Uiso   1.00
H1463  H     0.59161   0.91767   0.85707   0.00000  Uiso   1.00
H1464  H     0.63500   0.74318   0.68797   0.00000  Uiso   1.00
H1465  H     0.65682   0.70805   0.76280   0.00000  Uiso   1.00
H1466  H     0.60913   0.68915   0.73893   0.00000  Uiso   1.00
H1467  H     0.60793   0.73079   0.78316   0.00000  Uiso   1.00
H1468  H     0.36500   0.92348   0.81204   0.00000  Uiso   1.00
H1469  H     0.34316   0.95860   0.73721   0.00000  Uiso   1.00
H1470  H     0.39206   0.93589   0.71685   0.00000  Uiso   1.00
H1471  H     0.43844   0.86216   0.88766   0.00000  Uiso   1.00
H1472  H     0.39083   0.97753   0.76108   0.00000  Uiso   1.00
H1473  H     0.56157   0.80456   0.61234   0.00000  Uiso   1.00
H1474  H     0.40189   0.87512   0.54279   0.00000  Uiso   1.00
H1475  H     0.59811   0.79155   0.95721   0.00000  Uiso   1.00
H1476  H     0.37265   0.89873   0.97162   0.00000  Uiso   1.00
H1477  H     0.35741   0.81598   0.97218   0.00000  Uiso   1.00
H1478  H     0.38387   0.81364   0.91850   0.00000  Uiso   1.00
N1479  N     0.50000   0.95240   0.75000   0.00000  Uiso   1.00
N1480  N     0.50000   0.71427   0.75000   0.00000  Uiso   1.00
N1481  N     0.39037   0.87448   0.95496   0.00000  Uiso   1.00
N1482  N     0.60965   0.79228   0.54504   0.00000  Uiso   1.00
N1483  N     0.37868   0.76367   0.70412   0.00000  Uiso   1.00
N1484  N     0.62132   0.90299   0.79590   0.00000  Uiso   1.00
N1485  N     0.62623   0.75468   0.71935   0.00000  Uiso   1.00
N1486  N     0.37377   0.91198   0.78067   0.00000  Uiso   1.00
O1487  O     0.43892   0.87154   0.74999   0.00000  Uiso   1.00
O1488  O     0.56108   0.79513   0.75000   0.00000  Uiso   1.00
O1489  O     0.56108   0.87154   0.75000   0.00000  Uiso   1.00
O1490  O     0.43892   0.79513   0.74999   0.00000  Uiso   1.00
O1491  O     0.49999   0.87156   0.68392   0.00000  Uiso   1.00
O1492  O     0.50001   0.79511   0.81608   0.00000  Uiso   1.00
O1493  O     0.50001   0.87156   0.81607   0.00000  Uiso   1.00
O1494  O     0.49999   0.79511   0.68392   0.00000  Uiso   1.00
Zn1495 Zn    0.50000   0.88437   0.75000   0.00000  Uiso   1.00
Zn1496 Zn    0.50000   0.78229   0.75000   0.00000  Uiso   1.00
C1497  C     0.75330   0.83400   0.74861   0.00000  Uiso   1.00
C1498  C     0.70901   0.83545   0.74649   0.00000  Uiso   1.00
C1499  C     0.81151   0.69116   0.78169   0.00000  Uiso   1.00
C1500  C     0.85516   0.97551   0.71831   0.00000  Uiso   1.00
C1501  C     0.85498   0.69015   0.71818   0.00000  Uiso   1.00
C1502  C     0.81168   0.97652   0.78182   0.00000  Uiso   1.00
C1503  C     0.83341   0.83339   0.66349   0.00000  Uiso   1.00
C1504  C     0.83326   0.83328   0.83651   0.00000  Uiso   1.00
C1505  C     0.86770   0.81605   0.90654   0.00000  Uiso   1.00
C1506  C     0.79897   0.85061   0.59346   0.00000  Uiso   1.00
C1507  C     0.83305   0.83301   0.88411   0.00000  Uiso   1.00
C1508  C     0.91337   0.83266   0.75139   0.00000  Uiso   1.00
C1509  C     0.83362   0.83366   0.61589   0.00000  Uiso   1.00
C1510  C     0.79805   0.84927   0.90675   0.00000  Uiso   1.00
C1511  C     0.86862   0.81743   0.59325   0.00000  Uiso   1.00
C1512  C     0.79702   0.84824   0.95343   0.00000  Uiso   1.00
C1513  C     0.86965   0.81846   0.54656   0.00000  Uiso   1.00
C1514  C     0.83302   0.83301   0.97663   0.00000  Uiso   1.00
C1515  C     0.83365   0.83368   0.52337   0.00000  Uiso   1.00
C1516  C     0.86840   0.81696   0.95296   0.00000  Uiso   1.00
C1517  C     0.79827   0.84971   0.54704   0.00000  Uiso   1.00
C1518  C     0.76125   0.86246   0.97742   0.00000  Uiso   1.00
C1519  C     0.76254   0.86391   0.52422   0.00000  Uiso   1.00
C1520  C     0.90542   0.80425   0.52258   0.00000  Uiso   1.00
C1521  C     0.69948   0.83594   0.94206   0.00000  Uiso   1.00
C1522  C     0.96715   0.83085   0.55795   0.00000  Uiso   1.00
C1523  C     0.72027   0.77491   0.65774   0.00000  Uiso   1.00
C1524  C     0.94641   0.89174   0.84229   0.00000  Uiso   1.00
C1525  C     0.95838   0.71895   0.75280   0.00000  Uiso   1.00
C1526  C     0.70827   0.94772   0.74722   0.00000  Uiso   1.00
C1527  C     0.90413   0.80277   0.97578   0.00000  Uiso   1.00
C1528  C     0.68905   0.79776   0.72837   0.00000  Uiso   1.00
C1529  C     0.97762   0.86890   0.77165   0.00000  Uiso   1.00
C1530  C     0.97992   0.79446   0.73395   0.00000  Uiso   1.00
C1531  C     0.68675   0.87220   0.76606   0.00000  Uiso   1.00
C1532  C     0.95766   0.83121   0.75352   0.00000  Uiso   1.00
F1533  F     0.78928   0.71435   0.81318   0.00000  Uiso   1.00
F1534  F     0.87739   0.95231   0.68682   0.00000  Uiso   1.00
F1535  F     0.87659   0.71233   0.68619   0.00000  Uiso   1.00
F1536  F     0.79007   0.95433   0.81381   0.00000  Uiso   1.00
H1537  H     0.89430   0.80315   0.88773   0.00000  Uiso   1.00
H1538  H     0.67075   0.84792   0.92503   0.00000  Uiso   1.00
H1539  H     0.96073   0.76807   0.52838   0.00000  Uiso   1.00
H1540  H     0.97590   0.85081   0.52783   0.00000  Uiso   1.00
H1541  H     0.99587   0.81891   0.57502   0.00000  Uiso   1.00
H1542  H     0.94938   0.85314   0.58147   0.00000  Uiso   1.00
H1543  H     0.70293   0.73072   0.70848   0.00000  Uiso   1.00
H1544  H     0.69099   0.77571   0.63835   0.00000  Uiso   1.00
H1545  H     0.74168   0.74895   0.64294   0.00000  Uiso   1.00
H1546  H     0.73510   0.80838   0.65531   0.00000  Uiso   1.00
H1547  H     0.96373   0.93594   0.79154   0.00000  Uiso   1.00
H1548  H     0.77237   0.86348   0.61227   0.00000  Uiso   1.00
H1549  H     0.97568   0.89101   0.86169   0.00000  Uiso   1.00
H1550  H     0.93163   0.85824   0.84473   0.00000  Uiso   1.00
H1551  H     0.92495   0.91767   0.85707   0.00000  Uiso   1.00
H1552  H     0.96833   0.74318   0.68797   0.00000  Uiso   1.00
H1553  H     0.99015   0.70805   0.76280   0.00000  Uiso   1.00
H1554  H     0.94246   0.68915   0.73893   0.00000  Uiso   1.00
H1555  H     0.94127   0.73079   0.78316   0.00000  Uiso   1.00
H1556  H     0.69833   0.92348   0.81204   0.00000  Uiso   1.00
H1557  H     0.67649   0.95860   0.73721   0.00000  Uiso   1.00
H1558  H     0.72539   0.93589   0.71685   0.00000  Uiso   1.00
H1559  H     0.77177   0.86216   0.88766   0.00000  Uiso   1.00
H1560  H     0.72417   0.97753   0.76108   0.00000  Uiso   1.00
H1561  H     0.89490   0.80456   0.61234   0.00000  Uiso   1.00
H1562  H     0.73523   0.87512   0.54279   0.00000  Uiso   1.00
H1563  H     0.93144   0.79155   0.95721   0.00000  Uiso   1.00
H1564  H     0.70598   0.89873   0.97162   0.00000  Uiso   1.00
H1565  H     0.69074   0.81598   0.97218   0.00000  Uiso   1.00
H1566  H     0.71721   0.81364   0.91850   0.00000  Uiso   1.00
N1567  N     0.83333   0.95240   0.75000   0.00000  Uiso   1.00
N1568  N     0.83333   0.71427   0.75000   0.00000  Uiso   1.00
N1569  N     0.72370   0.87448   0.95496   0.00000  Uiso   1.00
N1570  N     0.94298   0.79228   0.54504   0.00000  Uiso   1.00
N1571  N     0.71201   0.76367   0.70412   0.00000  Uiso   1.00
N1572  N     0.95466   0.90299   0.79590   0.00000  Uiso   1.00
N1573  N     0.95956   0.75468   0.71935   0.00000  Uiso   1.00
N1574  N     0.70710   0.91198   0.78067   0.00000  Uiso   1.00
O1575  O     0.77226   0.87154   0.74999   0.00000  Uiso   1.00
O1576  O     0.89441   0.79513   0.75000   0.00000  Uiso   1.00
O1577  O     0.89441   0.87154   0.75000   0.00000  Uiso   1.00
O1578  O     0.77226   0.79513   0.74999   0.00000  Uiso   1.00
O1579  O     0.83333   0.87156   0.68392   0.00000  Uiso   1.00
O1580  O     0.83334   0.79511   0.81608   0.00000  Uiso   1.00
O1581  O     0.83334   0.87156   0.81607   0.00000  Uiso   1.00
O1582  O     0.83333   0.79511   0.68392   0.00000  Uiso   1.00
Zn1583 Zn    0.83333   0.88437   0.75000   0.00000  Uiso   1.00
Zn1584 Zn    0.83333   0.78229   0.75000   0.00000  Uiso   1.00
loop_
_geom_bond_atom_site_label_1
_geom_bond_atom_site_label_2
_geom_bond_distance
_geom_bond_site_symmetry_2
_ccdc_geom_bond_type
C1     C2      1.432   .     S
C1     O82     1.288   .     A
C1     O79     1.278   .     A
C2     C35     1.412   .     A
C2     C32     1.407   .     A
C3     N72     1.366   .     A
C3     F37     1.355   .     S
C3     C534    1.415   1_545 S
C4     F38     1.355   .     S
C4     N71     1.366   .     A
C4     C269    1.415   .     S
C5     N72     1.366   .     A
C5     F39     1.355   .     S
C5     C532    1.415   1_545 S
C6     N71     1.366   .     A
C6     F40     1.355   .     S
C6     C267    1.415   .     S
C7     O83     1.280   .     A
C7     O86     1.282   .     A
C7     C13     1.418   .     S
C8     O85     1.282   .     A
C8     O84     1.280   .     A
C8     C11     1.418   .     S
C9     C20     1.383   .     A
C9     C11     1.389   .     A
C9     H41     1.085   .     S
C10    H52     1.085   .     S
C10    C21     1.383   .     A
C10    C13     1.388   .     A
C11    C14     1.390   .     A
C12    C36     1.432   .     S
C12    O80     1.278   .     A
C12    O81     1.288   .     A
C13    C15     1.390   .     A
C14    C16     1.391   .     A
C14    H63     1.085   .     S
C15    H65     1.085   .     S
C15    C17     1.391   .     A
C16    C22     1.412   .     A
C16    C18     1.419   .     A
C17    C19     1.418   .     A
C17    C24     1.412   .     A
C18    C20     1.413   .     A
C18    C811    1.393   .     S
C19    C21     1.413   .     A
C19    C810    1.393   1_554 S
C20    C31     1.397   .     A
C21    C23     1.397   .     A
C22    N73     1.425   .     S
C22    C815    1.395   .     S
C23    H66     1.085   .     S
C23    C814    1.395   1_554 S
C24    N74     1.425   .     S
C24    C823    1.395   1_554 S
C25    N73     1.448   .     S
C25    H69     1.111   .     S
C25    H42     1.110   .     S
C25    H70     1.110   .     S
C26    H44     1.111   .     S
C26    H45     1.110   .     S
C26    N74     1.448   .     S
C26    H46     1.110   .     S
C27    H48     1.110   .     S
C27    H50     1.109   .     S
C27    N75     1.445   .     S
C27    H49     1.110   .     S
C28    H55     1.110   .     S
C28    H54     1.109   .     S
C28    N76     1.445   .     S
C28    H53     1.110   .     S
C29    H59     1.111   .     S
C29    H57     1.110   .     S
C29    N77     1.450   .     S
C29    H58     1.109   .     S
C30    H64     1.109   .     S
C30    H62     1.111   .     S
C30    N78     1.450   .     S
C30    H61     1.110   .     S
C31    H67     1.085   .     S
C31    C816    1.395   .     S
C32    N75     1.430   .     S
C32    C210    1.386   1_455 S
C33    C36     1.407   .     A
C33    N76     1.430   .     S
C33    C123    1.386   .     S
C34    N77     1.427   .     S
C34    C36     1.412   .     A
C34    C120    1.386   .     S
C35    N78     1.427   .     S
C35    C209    1.386   1_455 S
H43    N74     1.032   .     S
H47    N75     1.029   .     S
H51    N76     1.029   .     S
H56    N77     1.031   .     S
H60    N78     1.031   .     S
H68    N73     1.032   .     S
N71    Zn87    2.006   .     S
N72    Zn88    2.006   .     S
O79    Zn87    2.017   .     S
O80    Zn88    2.017   .     S
O81    Zn87    2.000   .     S
O82    Zn88    2.000   .     S
O83    Zn87    2.004   .     S
O84    Zn88    2.004   .     S
O85    Zn87    2.003   .     S
O86    Zn88    2.003   .     S
C89    C90     1.432   .     S
C89    O170    1.288   .     A
C89    O167    1.278   .     A
C90    C123    1.412   .     A
C90    C120    1.407   .     A
C91    N160    1.366   .     A
C91    F125    1.355   .     S
C91    C622    1.415   1_545 S
C92    F126    1.355   .     S
C92    N159    1.366   .     A
C92    C357    1.415   .     S
C93    N160    1.366   .     A
C93    F127    1.355   .     S
C93    C620    1.415   1_545 S
C94    N159    1.366   .     A
C94    F128    1.355   .     S
C94    C355    1.415   .     S
C95    O171    1.280   .     A
C95    O174    1.282   .     A
C95    C101    1.418   .     S
C96    O173    1.282   .     A
C96    O172    1.280   .     A
C96    C99     1.418   .     S
C97    C108    1.383   .     A
C97    C99     1.389   .     A
C97    H129    1.085   .     S
C98    H140    1.085   .     S
C98    C109    1.383   .     A
C98    C101    1.388   .     A
C99    C102    1.390   .     A
C100   C124    1.432   .     S
C100   O168    1.278   .     A
C100   O169    1.288   .     A
C101   C103    1.390   .     A
C102   C104    1.391   .     A
C102   H151    1.085   .     S
C103   H153    1.085   .     S
C103   C105    1.391   .     A
C104   C110    1.412   .     A
C104   C106    1.419   .     A
C105   C107    1.418   .     A
C105   C112    1.412   .     A
C106   C108    1.413   .     A
C106   C899    1.393   .     S
C107   C109    1.413   .     A
C107   C898    1.393   1_554 S
C108   C119    1.397   .     A
C109   C111    1.397   .     A
C110   N161    1.425   .     S
C110   C903    1.395   .     S
C111   H154    1.085   .     S
C111   C902    1.395   1_554 S
C112   N162    1.425   .     S
C112   C911    1.395   1_554 S
C113   N161    1.448   .     S
C113   H157    1.111   .     S
C113   H130    1.110   .     S
C113   H158    1.110   .     S
C114   H132    1.111   .     S
C114   H133    1.110   .     S
C114   N162    1.448   .     S
C114   H134    1.110   .     S
C115   H136    1.110   .     S
C115   H138    1.109   .     S
C115   N163    1.445   .     S
C115   H137    1.110   .     S
C116   H143    1.110   .     S
C116   H142    1.109   .     S
C116   N164    1.445   .     S
C116   H141    1.110   .     S
C117   H147    1.111   .     S
C117   H145    1.110   .     S
C117   N165    1.450   .     S
C117   H146    1.109   .     S
C118   H152    1.109   .     S
C118   H150    1.111   .     S
C118   N166    1.450   .     S
C118   H149    1.110   .     S
C119   H155    1.085   .     S
C119   C904    1.395   .     S
C120   N163    1.430   .     S
C121   C124    1.407   .     A
C121   N164    1.430   .     S
C121   C211    1.386   .     S
C122   N165    1.427   .     S
C122   C124    1.412   .     A
C122   C208    1.386   .     S
C123   N166    1.427   .     S
H131   N162    1.032   .     S
H135   N163    1.029   .     S
H139   N164    1.029   .     S
H144   N165    1.031   .     S
H148   N166    1.031   .     S
H156   N161    1.032   .     S
N159   Zn175   2.006   .     S
N160   Zn176   2.006   .     S
O167   Zn175   2.017   .     S
O168   Zn176   2.017   .     S
O169   Zn175   2.000   .     S
O170   Zn176   2.000   .     S
O171   Zn175   2.004   .     S
O172   Zn176   2.004   .     S
O173   Zn175   2.003   .     S
O174   Zn176   2.003   .     S
C177   C178    1.432   .     S
C177   O258    1.288   .     A
C177   O255    1.278   .     A
C178   C211    1.412   .     A
C178   C208    1.407   .     A
C179   N248    1.366   .     A
C179   F213    1.355   .     S
C179   C710    1.415   1_545 S
C180   F214    1.355   .     S
C180   N247    1.366   .     A
C180   C445    1.415   .     S
C181   N248    1.366   .     A
C181   F215    1.355   .     S
C181   C708    1.415   1_545 S
C182   N247    1.366   .     A
C182   F216    1.355   .     S
C182   C443    1.415   .     S
C183   O259    1.280   .     A
C183   O262    1.282   .     A
C183   C189    1.418   .     S
C184   O261    1.282   .     A
C184   O260    1.280   .     A
C184   C187    1.418   .     S
C185   C196    1.383   .     A
C185   C187    1.389   .     A
C185   H217    1.085   .     S
C186   H228    1.085   .     S
C186   C197    1.383   .     A
C186   C189    1.388   .     A
C187   C190    1.390   .     A
C188   C212    1.432   .     S
C188   O256    1.278   .     A
C188   O257    1.288   .     A
C189   C191    1.390   .     A
C190   C192    1.391   .     A
C190   H239    1.085   .     S
C191   H241    1.085   .     S
C191   C193    1.391   .     A
C192   C198    1.412   .     A
C192   C194    1.419   .     A
C193   C195    1.418   .     A
C193   C200    1.412   .     A
C194   C196    1.413   .     A
C194   C987    1.393   .     S
C195   C197    1.413   .     A
C195   C986    1.393   1_554 S
C196   C207    1.397   .     A
C197   C199    1.397   .     A
C198   N249    1.425   .     S
C198   C991    1.395   .     S
C199   H242    1.085   .     S
C199   C990    1.395   1_554 S
C200   N250    1.425   .     S
C200   C999    1.395   1_554 S
C201   N249    1.448   .     S
C201   H245    1.111   .     S
C201   H218    1.110   .     S
C201   H246    1.110   .     S
C202   H220    1.111   .     S
C202   H221    1.110   .     S
C202   N250    1.448   .     S
C202   H222    1.110   .     S
C203   H224    1.110   .     S
C203   H226    1.109   .     S
C203   N251    1.445   .     S
C203   H225    1.110   .     S
C204   H231    1.110   .     S
C204   H230    1.109   .     S
C204   N252    1.445   .     S
C204   H229    1.110   .     S
C205   H235    1.111   .     S
C205   H233    1.110   .     S
C205   N253    1.450   .     S
C205   H234    1.109   .     S
C206   H240    1.109   .     S
C206   H238    1.111   .     S
C206   N254    1.450   .     S
C206   H237    1.110   .     S
C207   H243    1.085   .     S
C207   C992    1.395   .     S
C208   N251    1.430   .     S
C209   C212    1.407   .     A
C209   N252    1.430   .     S
C209   C35     1.386   1_655 S
C210   N253    1.427   .     S
C210   C212    1.412   .     A
C210   C32     1.386   1_655 S
C211   N254    1.427   .     S
H219   N250    1.032   .     S
H223   N251    1.029   .     S
H227   N252    1.029   .     S
H232   N253    1.031   .     S
H236   N254    1.031   .     S
H244   N249    1.032   .     S
N247   Zn263   2.006   .     S
N248   Zn264   2.006   .     S
O255   Zn263   2.017   .     S
O256   Zn264   2.017   .     S
O257   Zn263   2.000   .     S
O258   Zn264   2.000   .     S
O259   Zn263   2.004   .     S
O260   Zn264   2.004   .     S
O261   Zn263   2.003   .     S
O262   Zn264   2.003   .     S
C265   C266    1.432   .     S
C265   O346    1.288   .     A
C265   O343    1.278   .     A
C266   C299    1.412   .     A
C266   C296    1.407   .     A
C267   N336    1.366   .     A
C267   F301    1.355   .     S
C268   F302    1.355   .     S
C268   N335    1.366   .     A
C268   C533    1.415   .     S
C269   N336    1.366   .     A
C269   F303    1.355   .     S
C270   N335    1.366   .     A
C270   F304    1.355   .     S
C270   C531    1.415   .     S
C271   O347    1.280   .     A
C271   O350    1.282   .     A
C271   C277    1.418   .     S
C272   O349    1.282   .     A
C272   O348    1.280   .     A
C272   C275    1.418   .     S
C273   C284    1.383   .     A
C273   C275    1.389   .     A
C273   H305    1.085   .     S
C274   H316    1.085   .     S
C274   C285    1.383   .     A
C274   C277    1.388   .     A
C275   C278    1.390   .     A
C276   C300    1.432   .     S
C276   O344    1.278   .     A
C276   O345    1.288   .     A
C277   C279    1.390   .     A
C278   C280    1.391   .     A
C278   H327    1.085   .     S
C279   H329    1.085   .     S
C279   C281    1.391   .     A
C280   C286    1.412   .     A
C280   C282    1.419   .     A
C281   C283    1.418   .     A
C281   C288    1.412   .     A
C282   C284    1.413   .     A
C282   C1075   1.393   .     S
C283   C285    1.413   .     A
C283   C1074   1.393   1_554 S
C284   C295    1.397   .     A
C285   C287    1.397   .     A
C286   N337    1.425   .     S
C286   C1079   1.395   .     S
C287   H330    1.085   .     S
C287   C1078   1.395   1_554 S
C288   N338    1.425   .     S
C288   C1087   1.395   1_554 S
C289   N337    1.448   .     S
C289   H333    1.111   .     S
C289   H306    1.110   .     S
C289   H334    1.110   .     S
C290   H308    1.111   .     S
C290   H309    1.110   .     S
C290   N338    1.448   .     S
C290   H310    1.110   .     S
C291   H312    1.110   .     S
C291   H314    1.109   .     S
C291   N339    1.445   .     S
C291   H313    1.110   .     S
C292   H319    1.110   .     S
C292   H318    1.109   .     S
C292   N340    1.445   .     S
C292   H317    1.110   .     S
C293   H323    1.111   .     S
C293   H321    1.110   .     S
C293   N341    1.450   .     S
C293   H322    1.109   .     S
C294   H328    1.109   .     S
C294   H326    1.111   .     S
C294   N342    1.450   .     S
C294   H325    1.110   .     S
C295   H331    1.085   .     S
C295   C1080   1.395   .     S
C296   N339    1.430   .     S
C296   C474    1.386   1_455 S
C297   C300    1.407   .     A
C297   N340    1.430   .     S
C297   C387    1.386   .     S
C298   N341    1.427   .     S
C298   C300    1.412   .     A
C298   C384    1.386   .     S
C299   N342    1.427   .     S
C299   C473    1.386   1_455 S
H307   N338    1.032   .     S
H311   N339    1.029   .     S
H315   N340    1.029   .     S
H320   N341    1.031   .     S
H324   N342    1.031   .     S
H332   N337    1.032   .     S
N335   Zn351   2.006   .     S
N336   Zn352   2.006   .     S
O343   Zn351   2.017   .     S
O344   Zn352   2.017   .     S
O345   Zn351   2.000   .     S
O346   Zn352   2.000   .     S
O347   Zn351   2.004   .     S
O348   Zn352   2.004   .     S
O349   Zn351   2.003   .     S
O350   Zn352   2.003   .     S
C353   C354    1.432   .     S
C353   O434    1.288   .     A
C353   O431    1.278   .     A
C354   C387    1.412   .     A
C354   C384    1.407   .     A
C355   N424    1.366   .     A
C355   F389    1.355   .     S
C356   F390    1.355   .     S
C356   N423    1.366   .     A
C356   C621    1.415   .     S
C357   N424    1.366   .     A
C357   F391    1.355   .     S
C358   N423    1.366   .     A
C358   F392    1.355   .     S
C358   C619    1.415   .     S
C359   O435    1.280   .     A
C359   O438    1.282   .     A
C359   C365    1.418   .     S
C360   O437    1.282   .     A
C360   O436    1.280   .     A
C360   C363    1.418   .     S
C361   C372    1.383   .     A
C361   C363    1.389   .     A
C361   H393    1.085   .     S
C362   H404    1.085   .     S
C362   C373    1.383   .     A
C362   C365    1.388   .     A
C363   C366    1.390   .     A
C364   C388    1.432   .     S
C364   O432    1.278   .     A
C364   O433    1.288   .     A
C365   C367    1.390   .     A
C366   C368    1.391   .     A
C366   H415    1.085   .     S
C367   H417    1.085   .     S
C367   C369    1.391   .     A
C368   C374    1.412   .     A
C368   C370    1.419   .     A
C369   C371    1.418   .     A
C369   C376    1.412   .     A
C370   C372    1.413   .     A
C370   C1163   1.393   .     S
C371   C373    1.413   .     A
C371   C1162   1.393   1_554 S
C372   C383    1.397   .     A
C373   C375    1.397   .     A
C374   N425    1.425   .     S
C374   C1167   1.395   .     S
C375   H418    1.085   .     S
C375   C1166   1.395   1_554 S
C376   N426    1.425   .     S
C376   C1175   1.395   1_554 S
C377   N425    1.448   .     S
C377   H421    1.111   .     S
C377   H394    1.110   .     S
C377   H422    1.110   .     S
C378   H396    1.111   .     S
C378   H397    1.110   .     S
C378   N426    1.448   .     S
C378   H398    1.110   .     S
C379   H400    1.110   .     S
C379   H402    1.109   .     S
C379   N427    1.445   .     S
C379   H401    1.110   .     S
C380   H407    1.110   .     S
C380   H406    1.109   .     S
C380   N428    1.445   .     S
C380   H405    1.110   .     S
C381   H411    1.111   .     S
C381   H409    1.110   .     S
C381   N429    1.450   .     S
C381   H410    1.109   .     S
C382   H416    1.109   .     S
C382   H414    1.111   .     S
C382   N430    1.450   .     S
C382   H413    1.110   .     S
C383   H419    1.085   .     S
C383   C1168   1.395   .     S
C384   N427    1.430   .     S
C385   C388    1.407   .     A
C385   N428    1.430   .     S
C385   C475    1.386   .     S
C386   N429    1.427   .     S
C386   C388    1.412   .     A
C386   C472    1.386   .     S
C387   N430    1.427   .     S
H395   N426    1.032   .     S
H399   N427    1.029   .     S
H403   N428    1.029   .     S
H408   N429    1.031   .     S
H412   N430    1.031   .     S
H420   N425    1.032   .     S
N423   Zn439   2.006   .     S
N424   Zn440   2.006   .     S
O431   Zn439   2.017   .     S
O432   Zn440   2.017   .     S
O433   Zn439   2.000   .     S
O434   Zn440   2.000   .     S
O435   Zn439   2.004   .     S
O436   Zn440   2.004   .     S
O437   Zn439   2.003   .     S
O438   Zn440   2.003   .     S
C441   C442    1.432   .     S
C441   O522    1.288   .     A
C441   O519    1.278   .     A
C442   C475    1.412   .     A
C442   C472    1.407   .     A
C443   N512    1.366   .     A
C443   F477    1.355   .     S
C444   F478    1.355   .     S
C444   N511    1.366   .     A
C444   C709    1.415   .     S
C445   N512    1.366   .     A
C445   F479    1.355   .     S
C446   N511    1.366   .     A
C446   F480    1.355   .     S
C446   C707    1.415   .     S
C447   O523    1.280   .     A
C447   O526    1.282   .     A
C447   C453    1.418   .     S
C448   O525    1.282   .     A
C448   O524    1.280   .     A
C448   C451    1.418   .     S
C449   C460    1.383   .     A
C449   C451    1.389   .     A
C449   H481    1.085   .     S
C450   H492    1.085   .     S
C450   C461    1.383   .     A
C450   C453    1.388   .     A
C451   C454    1.390   .     A
C452   C476    1.432   .     S
C452   O520    1.278   .     A
C452   O521    1.288   .     A
C453   C455    1.390   .     A
C454   C456    1.391   .     A
C454   H503    1.085   .     S
C455   H505    1.085   .     S
C455   C457    1.391   .     A
C456   C462    1.412   .     A
C456   C458    1.419   .     A
C457   C459    1.418   .     A
C457   C464    1.412   .     A
C458   C460    1.413   .     A
C458   C1251   1.393   .     S
C459   C461    1.413   .     A
C459   C1250   1.393   1_554 S
C460   C471    1.397   .     A
C461   C463    1.397   .     A
C462   N513    1.425   .     S
C462   C1255   1.395   .     S
C463   H506    1.085   .     S
C463   C1254   1.395   1_554 S
C464   N514    1.425   .     S
C464   C1263   1.395   1_554 S
C465   N513    1.448   .     S
C465   H509    1.111   .     S
C465   H482    1.110   .     S
C465   H510    1.110   .     S
C466   H484    1.111   .     S
C466   H485    1.110   .     S
C466   N514    1.448   .     S
C466   H486    1.110   .     S
C467   H488    1.110   .     S
C467   H490    1.109   .     S
C467   N515    1.445   .     S
C467   H489    1.110   .     S
C468   H495    1.110   .     S
C468   H494    1.109   .     S
C468   N516    1.445   .     S
C468   H493    1.110   .     S
C469   H499    1.111   .     S
C469   H497    1.110   .     S
C469   N517    1.450   .     S
C469   H498    1.109   .     S
C470   H504    1.109   .     S
C470   H502    1.111   .     S
C470   N518    1.450   .     S
C470   H501    1.110   .     S
C471   H507    1.085   .     S
C471   C1256   1.395   .     S
C472   N515    1.430   .     S
C473   C476    1.407   .     A
C473   N516    1.430   .     S
C473   C299    1.386   1_655 S
C474   N517    1.427   .     S
C474   C476    1.412   .     A
C474   C296    1.386   1_655 S
C475   N518    1.427   .     S
H483   N514    1.032   .     S
H487   N515    1.029   .     S
H491   N516    1.029   .     S
H496   N517    1.031   .     S
H500   N518    1.031   .     S
H508   N513    1.032   .     S
N511   Zn527   2.006   .     S
N512   Zn528   2.006   .     S
O519   Zn527   2.017   .     S
O520   Zn528   2.017   .     S
O521   Zn527   2.000   .     S
O522   Zn528   2.000   .     S
O523   Zn527   2.004   .     S
O524   Zn528   2.004   .     S
O525   Zn527   2.003   .     S
O526   Zn528   2.003   .     S
C529   C530    1.432   .     S
C529   O610    1.288   .     A
C529   O607    1.278   .     A
C530   C563    1.412   .     A
C530   C560    1.407   .     A
C531   N600    1.366   .     A
C531   F565    1.355   .     S
C532   F566    1.355   .     S
C532   N599    1.366   .     A
C532   C5      1.415   1_565 S
C533   N600    1.366   .     A
C533   F567    1.355   .     S
C534   N599    1.366   .     A
C534   F568    1.355   .     S
C534   C3      1.415   1_565 S
C535   O611    1.280   .     A
C535   O614    1.282   .     A
C535   C541    1.418   .     S
C536   O613    1.282   .     A
C536   O612    1.280   .     A
C536   C539    1.418   .     S
C537   C548    1.383   .     A
C537   C539    1.389   .     A
C537   H569    1.085   .     S
C538   H580    1.085   .     S
C538   C549    1.383   .     A
C538   C541    1.388   .     A
C539   C542    1.390   .     A
C540   C564    1.432   .     S
C540   O608    1.278   .     A
C540   O609    1.288   .     A
C541   C543    1.390   .     A
C542   C544    1.391   .     A
C542   H591    1.085   .     S
C543   H593    1.085   .     S
C543   C545    1.391   .     A
C544   C550    1.412   .     A
C544   C546    1.419   .     A
C545   C547    1.418   .     A
C545   C552    1.412   .     A
C546   C548    1.413   .     A
C546   C1339   1.393   .     S
C547   C549    1.413   .     A
C547   C1338   1.393   1_554 S
C548   C559    1.397   .     A
C549   C551    1.397   .     A
C550   N601    1.425   .     S
C550   C1343   1.395   .     S
C551   H594    1.085   .     S
C551   C1342   1.395   1_554 S
C552   N602    1.425   .     S
C552   C1351   1.395   1_554 S
C553   N601    1.448   .     S
C553   H597    1.111   .     S
C553   H570    1.110   .     S
C553   H598    1.110   .     S
C554   H572    1.111   .     S
C554   H573    1.110   .     S
C554   N602    1.448   .     S
C554   H574    1.110   .     S
C555   H576    1.110   .     S
C555   H578    1.109   .     S
C555   N603    1.445   .     S
C555   H577    1.110   .     S
C556   H583    1.110   .     S
C556   H582    1.109   .     S
C556   N604    1.445   .     S
C556   H581    1.110   .     S
C557   H587    1.111   .     S
C557   H585    1.110   .     S
C557   N605    1.450   .     S
C557   H586    1.109   .     S
C558   H592    1.109   .     S
C558   H590    1.111   .     S
C558   N606    1.450   .     S
C558   H589    1.110   .     S
C559   H595    1.085   .     S
C559   C1344   1.395   .     S
C560   N603    1.430   .     S
C560   C738    1.386   1_455 S
C561   C564    1.407   .     A
C561   N604    1.430   .     S
C561   C651    1.386   .     S
C562   N605    1.427   .     S
C562   C564    1.412   .     A
C562   C648    1.386   .     S
C563   N606    1.427   .     S
C563   C737    1.386   1_455 S
H571   N602    1.032   .     S
H575   N603    1.029   .     S
H579   N604    1.029   .     S
H584   N605    1.031   .     S
H588   N606    1.031   .     S
H596   N601    1.032   .     S
N599   Zn615   2.006   .     S
N600   Zn616   2.006   .     S
O607   Zn615   2.017   .     S
O608   Zn616   2.017   .     S
O609   Zn615   2.000   .     S
O610   Zn616   2.000   .     S
O611   Zn615   2.004   .     S
O612   Zn616   2.004   .     S
O613   Zn615   2.003   .     S
O614   Zn616   2.003   .     S
C617   C618    1.432   .     S
C617   O698    1.288   .     A
C617   O695    1.278   .     A
C618   C651    1.412   .     A
C618   C648    1.407   .     A
C619   N688    1.366   .     A
C619   F653    1.355   .     S
C620   F654    1.355   .     S
C620   N687    1.366   .     A
C620   C93     1.415   1_565 S
C621   N688    1.366   .     A
C621   F655    1.355   .     S
C622   N687    1.366   .     A
C622   F656    1.355   .     S
C622   C91     1.415   1_565 S
C623   O699    1.280   .     A
C623   O702    1.282   .     A
C623   C629    1.418   .     S
C624   O701    1.282   .     A
C624   O700    1.280   .     A
C624   C627    1.418   .     S
C625   C636    1.383   .     A
C625   C627    1.389   .     A
C625   H657    1.085   .     S
C626   H668    1.085   .     S
C626   C637    1.383   .     A
C626   C629    1.388   .     A
C627   C630    1.390   .     A
C628   C652    1.432   .     S
C628   O696    1.278   .     A
C628   O697    1.288   .     A
C629   C631    1.390   .     A
C630   C632    1.391   .     A
C630   H679    1.085   .     S
C631   H681    1.085   .     S
C631   C633    1.391   .     A
C632   C638    1.412   .     A
C632   C634    1.419   .     A
C633   C635    1.418   .     A
C633   C640    1.412   .     A
C634   C636    1.413   .     A
C634   C1427   1.393   .     S
C635   C637    1.413   .     A
C635   C1426   1.393   1_554 S
C636   C647    1.397   .     A
C637   C639    1.397   .     A
C638   N689    1.425   .     S
C638   C1431   1.395   .     S
C639   H682    1.085   .     S
C639   C1430   1.395   1_554 S
C640   N690    1.425   .     S
C640   C1439   1.395   1_554 S
C641   N689    1.448   .     S
C641   H685    1.111   .     S
C641   H658    1.110   .     S
C641   H686    1.110   .     S
C642   H660    1.111   .     S
C642   H661    1.110   .     S
C642   N690    1.448   .     S
C642   H662    1.110   .     S
C643   H664    1.110   .     S
C643   H666    1.109   .     S
C643   N691    1.445   .     S
C643   H665    1.110   .     S
C644   H671    1.110   .     S
C644   H670    1.109   .     S
C644   N692    1.445   .     S
C644   H669    1.110   .     S
C645   H675    1.111   .     S
C645   H673    1.110   .     S
C645   N693    1.450   .     S
C645   H674    1.109   .     S
C646   H680    1.109   .     S
C646   H678    1.111   .     S
C646   N694    1.450   .     S
C646   H677    1.110   .     S
C647   H683    1.085   .     S
C647   C1432   1.395   .     S
C648   N691    1.430   .     S
C649   C652    1.407   .     A
C649   N692    1.430   .     S
C649   C739    1.386   .     S
C650   N693    1.427   .     S
C650   C652    1.412   .     A
C650   C736    1.386   .     S
C651   N694    1.427   .     S
H659   N690    1.032   .     S
H663   N691    1.029   .     S
H667   N692    1.029   .     S
H672   N693    1.031   .     S
H676   N694    1.031   .     S
H684   N689    1.032   .     S
N687   Zn703   2.006   .     S
N688   Zn704   2.006   .     S
O695   Zn703   2.017   .     S
O696   Zn704   2.017   .     S
O697   Zn703   2.000   .     S
O698   Zn704   2.000   .     S
O699   Zn703   2.004   .     S
O700   Zn704   2.004   .     S
O701   Zn703   2.003   .     S
O702   Zn704   2.003   .     S
C705   C706    1.432   .     S
C705   O786    1.288   .     A
C705   O783    1.278   .     A
C706   C739    1.412   .     A
C706   C736    1.407   .     A
C707   N776    1.366   .     A
C707   F741    1.355   .     S
C708   F742    1.355   .     S
C708   N775    1.366   .     A
C708   C181    1.415   1_565 S
C709   N776    1.366   .     A
C709   F743    1.355   .     S
C710   N775    1.366   .     A
C710   F744    1.355   .     S
C710   C179    1.415   1_565 S
C711   O787    1.280   .     A
C711   O790    1.282   .     A
C711   C717    1.418   .     S
C712   O789    1.282   .     A
C712   O788    1.280   .     A
C712   C715    1.418   .     S
C713   C724    1.383   .     A
C713   C715    1.389   .     A
C713   H745    1.085   .     S
C714   H756    1.085   .     S
C714   C725    1.383   .     A
C714   C717    1.388   .     A
C715   C718    1.390   .     A
C716   C740    1.432   .     S
C716   O784    1.278   .     A
C716   O785    1.288   .     A
C717   C719    1.390   .     A
C718   C720    1.391   .     A
C718   H767    1.085   .     S
C719   H769    1.085   .     S
C719   C721    1.391   .     A
C720   C726    1.412   .     A
C720   C722    1.419   .     A
C721   C723    1.418   .     A
C721   C728    1.412   .     A
C722   C724    1.413   .     A
C722   C1515   1.393   .     S
C723   C725    1.413   .     A
C723   C1514   1.393   1_554 S
C724   C735    1.397   .     A
C725   C727    1.397   .     A
C726   N777    1.425   .     S
C726   C1519   1.395   .     S
C727   H770    1.085   .     S
C727   C1518   1.395   1_554 S
C728   N778    1.425   .     S
C728   C1527   1.395   1_554 S
C729   N777    1.448   .     S
C729   H773    1.111   .     S
C729   H746    1.110   .     S
C729   H774    1.110   .     S
C730   H748    1.111   .     S
C730   H749    1.110   .     S
C730   N778    1.448   .     S
C730   H750    1.110   .     S
C731   H752    1.110   .     S
C731   H754    1.109   .     S
C731   N779    1.445   .     S
C731   H753    1.110   .     S
C732   H759    1.110   .     S
C732   H758    1.109   .     S
C732   N780    1.445   .     S
C732   H757    1.110   .     S
C733   H763    1.111   .     S
C733   H761    1.110   .     S
C733   N781    1.450   .     S
C733   H762    1.109   .     S
C734   H768    1.109   .     S
C734   H766    1.111   .     S
C734   N782    1.450   .     S
C734   H765    1.110   .     S
C735   H771    1.085   .     S
C735   C1520   1.395   .     S
C736   N779    1.430   .     S
C737   C740    1.407   .     A
C737   N780    1.430   .     S
C737   C563    1.386   1_655 S
C738   N781    1.427   .     S
C738   C740    1.412   .     A
C738   C560    1.386   1_655 S
C739   N782    1.427   .     S
H747   N778    1.032   .     S
H751   N779    1.029   .     S
H755   N780    1.029   .     S
H760   N781    1.031   .     S
H764   N782    1.031   .     S
H772   N777    1.032   .     S
N775   Zn791   2.006   .     S
N776   Zn792   2.006   .     S
O783   Zn791   2.017   .     S
O784   Zn792   2.017   .     S
O785   Zn791   2.000   .     S
O786   Zn792   2.000   .     S
O787   Zn791   2.004   .     S
O788   Zn792   2.004   .     S
O789   Zn791   2.003   .     S
O790   Zn792   2.003   .     S
C793   C794    1.432   .     S
C793   O874    1.288   .     A
C793   O871    1.278   .     A
C794   C827    1.412   .     A
C794   C824    1.407   .     A
C795   N864    1.366   .     A
C795   F829    1.355   .     S
C795   C1326   1.415   1_545 S
C796   F830    1.355   .     S
C796   N863    1.366   .     A
C796   C1061   1.415   .     S
C797   N864    1.366   .     A
C797   F831    1.355   .     S
C797   C1324   1.415   1_545 S
C798   N863    1.366   .     A
C798   F832    1.355   .     S
C798   C1059   1.415   .     S
C799   O875    1.280   .     A
C799   O878    1.282   .     A
C799   C805    1.418   .     S
C800   O877    1.282   .     A
C800   O876    1.280   .     A
C800   C803    1.418   .     S
C801   C812    1.383   .     A
C801   C803    1.389   .     A
C801   H833    1.085   .     S
C802   H844    1.085   .     S
C802   C813    1.383   .     A
C802   C805    1.388   .     A
C803   C806    1.390   .     A
C804   C828    1.432   .     S
C804   O872    1.278   .     A
C804   O873    1.288   .     A
C805   C807    1.390   .     A
C806   C808    1.391   .     A
C806   H855    1.085   .     S
C807   H857    1.085   .     S
C807   C809    1.391   .     A
C808   C814    1.412   .     A
C808   C810    1.419   .     A
C809   C811    1.418   .     A
C809   C816    1.412   .     A
C810   C812    1.413   .     A
C810   C19     1.393   1_556 S
C811   C813    1.413   .     A
C812   C823    1.397   .     A
C813   C815    1.397   .     A
C814   N865    1.425   .     S
C814   C23     1.395   1_556 S
C815   H858    1.085   .     S
C816   N866    1.425   .     S
C817   N865    1.448   .     S
C817   H861    1.111   .     S
C817   H834    1.110   .     S
C817   H862    1.110   .     S
C818   H836    1.111   .     S
C818   H837    1.110   .     S
C818   N866    1.448   .     S
C818   H838    1.110   .     S
C819   H840    1.110   .     S
C819   H842    1.109   .     S
C819   N867    1.445   .     S
C819   H841    1.110   .     S
C820   H847    1.110   .     S
C820   H846    1.109   .     S
C820   N868    1.445   .     S
C820   H845    1.110   .     S
C821   H851    1.111   .     S
C821   H849    1.110   .     S
C821   N869    1.450   .     S
C821   H850    1.109   .     S
C822   H856    1.109   .     S
C822   H854    1.111   .     S
C822   N870    1.450   .     S
C822   H853    1.110   .     S
C823   H859    1.085   .     S
C823   C24     1.395   1_556 S
C824   N867    1.430   .     S
C824   C1002   1.386   1_455 S
C825   C828    1.407   .     A
C825   N868    1.430   .     S
C825   C915    1.386   .     S
C826   N869    1.427   .     S
C826   C828    1.412   .     A
C826   C912    1.386   .     S
C827   N870    1.427   .     S
C827   C1001   1.386   1_455 S
H835   N866    1.032   .     S
H839   N867    1.029   .     S
H843   N868    1.029   .     S
H848   N869    1.031   .     S
H852   N870    1.031   .     S
H860   N865    1.032   .     S
N863   Zn879   2.006   .     S
N864   Zn880   2.006   .     S
O871   Zn879   2.017   .     S
O872   Zn880   2.017   .     S
O873   Zn879   2.000   .     S
O874   Zn880   2.000   .     S
O875   Zn879   2.004   .     S
O876   Zn880   2.004   .     S
O877   Zn879   2.003   .     S
O878   Zn880   2.003   .     S
C881   C882    1.432   .     S
C881   O962    1.288   .     A
C881   O959    1.278   .     A
C882   C915    1.412   .     A
C882   C912    1.407   .     A
C883   N952    1.366   .     A
C883   F917    1.355   .     S
C883   C1414   1.415   1_545 S
C884   F918    1.355   .     S
C884   N951    1.366   .     A
C884   C1149   1.415   .     S
C885   N952    1.366   .     A
C885   F919    1.355   .     S
C885   C1412   1.415   1_545 S
C886   N951    1.366   .     A
C886   F920    1.355   .     S
C886   C1147   1.415   .     S
C887   O963    1.280   .     A
C887   O966    1.282   .     A
C887   C893    1.418   .     S
C888   O965    1.282   .     A
C888   O964    1.280   .     A
C888   C891    1.418   .     S
C889   C900    1.383   .     A
C889   C891    1.389   .     A
C889   H921    1.085   .     S
C890   H932    1.085   .     S
C890   C901    1.383   .     A
C890   C893    1.388   .     A
C891   C894    1.390   .     A
C892   C916    1.432   .     S
C892   O960    1.278   .     A
C892   O961    1.288   .     A
C893   C895    1.390   .     A
C894   C896    1.391   .     A
C894   H943    1.085   .     S
C895   H945    1.085   .     S
C895   C897    1.391   .     A
C896   C902    1.412   .     A
C896   C898    1.419   .     A
C897   C899    1.418   .     A
C897   C904    1.412   .     A
C898   C900    1.413   .     A
C898   C107    1.393   1_556 S
C899   C901    1.413   .     A
C900   C911    1.397   .     A
C901   C903    1.397   .     A
C902   N953    1.425   .     S
C902   C111    1.395   1_556 S
C903   H946    1.085   .     S
C904   N954    1.425   .     S
C905   N953    1.448   .     S
C905   H949    1.111   .     S
C905   H922    1.110   .     S
C905   H950    1.110   .     S
C906   H924    1.111   .     S
C906   H925    1.110   .     S
C906   N954    1.448   .     S
C906   H926    1.110   .     S
C907   H928    1.110   .     S
C907   H930    1.109   .     S
C907   N955    1.445   .     S
C907   H929    1.110   .     S
C908   H935    1.110   .     S
C908   H934    1.109   .     S
C908   N956    1.445   .     S
C908   H933    1.110   .     S
C909   H939    1.111   .     S
C909   H937    1.110   .     S
C909   N957    1.450   .     S
C909   H938    1.109   .     S
C910   H944    1.109   .     S
C910   H942    1.111   .     S
C910   N958    1.450   .     S
C910   H941    1.110   .     S
C911   H947    1.085   .     S
C911   C112    1.395   1_556 S
C912   N955    1.430   .     S
C913   C916    1.407   .     A
C913   N956    1.430   .     S
C913   C1003   1.386   .     S
C914   N957    1.427   .     S
C914   C916    1.412   .     A
C914   C1000   1.386   .     S
C915   N958    1.427   .     S
H923   N954    1.032   .     S
H927   N955    1.029   .     S
H931   N956    1.029   .     S
H936   N957    1.031   .     S
H940   N958    1.031   .     S
H948   N953    1.032   .     S
N951   Zn967   2.006   .     S
N952   Zn968   2.006   .     S
O959   Zn967   2.017   .     S
O960   Zn968   2.017   .     S
O961   Zn967   2.000   .     S
O962   Zn968   2.000   .     S
O963   Zn967   2.004   .     S
O964   Zn968   2.004   .     S
O965   Zn967   2.003   .     S
O966   Zn968   2.003   .     S
C969   C970    1.432   .     S
C969   O1050   1.288   .     A
C969   O1047   1.278   .     A
C970   C1003   1.412   .     A
C970   C1000   1.407   .     A
C971   N1040   1.366   .     A
C971   F1005   1.355   .     S
C971   C1502   1.415   1_545 S
C972   F1006   1.355   .     S
C972   N1039   1.366   .     A
C972   C1237   1.415   .     S
C973   N1040   1.366   .     A
C973   F1007   1.355   .     S
C973   C1500   1.415   1_545 S
C974   N1039   1.366   .     A
C974   F1008   1.355   .     S
C974   C1235   1.415   .     S
C975   O1051   1.280   .     A
C975   O1054   1.282   .     A
C975   C981    1.418   .     S
C976   O1053   1.282   .     A
C976   O1052   1.280   .     A
C976   C979    1.418   .     S
C977   C988    1.383   .     A
C977   C979    1.389   .     A
C977   H1009   1.085   .     S
C978   H1020   1.085   .     S
C978   C989    1.383   .     A
C978   C981    1.388   .     A
C979   C982    1.390   .     A
C980   C1004   1.432   .     S
C980   O1048   1.278   .     A
C980   O1049   1.288   .     A
C981   C983    1.390   .     A
C982   C984    1.391   .     A
C982   H1031   1.085   .     S
C983   H1033   1.085   .     S
C983   C985    1.391   .     A
C984   C990    1.412   .     A
C984   C986    1.419   .     A
C985   C987    1.418   .     A
C985   C992    1.412   .     A
C986   C988    1.413   .     A
C986   C195    1.393   1_556 S
C987   C989    1.413   .     A
C988   C999    1.397   .     A
C989   C991    1.397   .     A
C990   N1041   1.425   .     S
C990   C199    1.395   1_556 S
C991   H1034   1.085   .     S
C992   N1042   1.425   .     S
C993   N1041   1.448   .     S
C993   H1037   1.111   .     S
C993   H1010   1.110   .     S
C993   H1038   1.110   .     S
C994   H1012   1.111   .     S
C994   H1013   1.110   .     S
C994   N1042   1.448   .     S
C994   H1014   1.110   .     S
C995   H1016   1.110   .     S
C995   H1018   1.109   .     S
C995   N1043   1.445   .     S
C995   H1017   1.110   .     S
C996   H1023   1.110   .     S
C996   H1022   1.109   .     S
C996   N1044   1.445   .     S
C996   H1021   1.110   .     S
C997   H1027   1.111   .     S
C997   H1025   1.110   .     S
C997   N1045   1.450   .     S
C997   H1026   1.109   .     S
C998   H1032   1.109   .     S
C998   H1030   1.111   .     S
C998   N1046   1.450   .     S
C998   H1029   1.110   .     S
C999   H1035   1.085   .     S
C999   C200    1.395   1_556 S
C1000  N1043   1.430   .     S
C1001  C1004   1.407   .     A
C1001  N1044   1.430   .     S
C1001  C827    1.386   1_655 S
C1002  N1045   1.427   .     S
C1002  C1004   1.412   .     A
C1002  C824    1.386   1_655 S
C1003  N1046   1.427   .     S
H1011  N1042   1.032   .     S
H1015  N1043   1.029   .     S
H1019  N1044   1.029   .     S
H1024  N1045   1.031   .     S
H1028  N1046   1.031   .     S
H1036  N1041   1.032   .     S
N1039  Zn1055  2.006   .     S
N1040  Zn1056  2.006   .     S
O1047  Zn1055  2.017   .     S
O1048  Zn1056  2.017   .     S
O1049  Zn1055  2.000   .     S
O1050  Zn1056  2.000   .     S
O1051  Zn1055  2.004   .     S
O1052  Zn1056  2.004   .     S
O1053  Zn1055  2.003   .     S
O1054  Zn1056  2.003   .     S
C1057  C1058   1.432   .     S
C1057  O1138   1.288   .     A
C1057  O1135   1.278   .     A
C1058  C1091   1.412   .     A
C1058  C1088   1.407   .     A
C1059  N1128   1.366   .     A
C1059  F1093   1.355   .     S
C1060  F1094   1.355   .     S
C1060  N1127   1.366   .     A
C1060  C1325   1.415   .     S
C1061  N1128   1.366   .     A
C1061  F1095   1.355   .     S
C1062  N1127   1.366   .     A
C1062  F1096   1.355   .     S
C1062  C1323   1.415   .     S
C1063  O1139   1.280   .     A
C1063  O1142   1.282   .     A
C1063  C1069   1.418   .     S
C1064  O1141   1.282   .     A
C1064  O1140   1.280   .     A
C1064  C1067   1.418   .     S
C1065  C1076   1.383   .     A
C1065  C1067   1.389   .     A
C1065  H1097   1.085   .     S
C1066  H1108   1.085   .     S
C1066  C1077   1.383   .     A
C1066  C1069   1.388   .     A
C1067  C1070   1.390   .     A
C1068  C1092   1.432   .     S
C1068  O1136   1.278   .     A
C1068  O1137   1.288   .     A
C1069  C1071   1.390   .     A
C1070  C1072   1.391   .     A
C1070  H1119   1.085   .     S
C1071  H1121   1.085   .     S
C1071  C1073   1.391   .     A
C1072  C1078   1.412   .     A
C1072  C1074   1.419   .     A
C1073  C1075   1.418   .     A
C1073  C1080   1.412   .     A
C1074  C1076   1.413   .     A
C1074  C283    1.393   1_556 S
C1075  C1077   1.413   .     A
C1076  C1087   1.397   .     A
C1077  C1079   1.397   .     A
C1078  N1129   1.425   .     S
C1078  C287    1.395   1_556 S
C1079  H1122   1.085   .     S
C1080  N1130   1.425   .     S
C1081  N1129   1.448   .     S
C1081  H1125   1.111   .     S
C1081  H1098   1.110   .     S
C1081  H1126   1.110   .     S
C1082  H1100   1.111   .     S
C1082  H1101   1.110   .     S
C1082  N1130   1.448   .     S
C1082  H1102   1.110   .     S
C1083  H1104   1.110   .     S
C1083  H1106   1.109   .     S
C1083  N1131   1.445   .     S
C1083  H1105   1.110   .     S
C1084  H1111   1.110   .     S
C1084  H1110   1.109   .     S
C1084  N1132   1.445   .     S
C1084  H1109   1.110   .     S
C1085  H1115   1.111   .     S
C1085  H1113   1.110   .     S
C1085  N1133   1.450   .     S
C1085  H1114   1.109   .     S
C1086  H1120   1.109   .     S
C1086  H1118   1.111   .     S
C1086  N1134   1.450   .     S
C1086  H1117   1.110   .     S
C1087  H1123   1.085   .     S
C1087  C288    1.395   1_556 S
C1088  N1131   1.430   .     S
C1088  C1266   1.386   1_455 S
C1089  C1092   1.407   .     A
C1089  N1132   1.430   .     S
C1089  C1179   1.386   .     S
C1090  N1133   1.427   .     S
C1090  C1092   1.412   .     A
C1090  C1176   1.386   .     S
C1091  N1134   1.427   .     S
C1091  C1265   1.386   1_455 S
H1099  N1130   1.032   .     S
H1103  N1131   1.029   .     S
H1107  N1132   1.029   .     S
H1112  N1133   1.031   .     S
H1116  N1134   1.031   .     S
H1124  N1129   1.032   .     S
N1127  Zn1143  2.006   .     S
N1128  Zn1144  2.006   .     S
O1135  Zn1143  2.017   .     S
O1136  Zn1144  2.017   .     S
O1137  Zn1143  2.000   .     S
O1138  Zn1144  2.000   .     S
O1139  Zn1143  2.004   .     S
O1140  Zn1144  2.004   .     S
O1141  Zn1143  2.003   .     S
O1142  Zn1144  2.003   .     S
C1145  C1146   1.432   .     S
C1145  O1226   1.288   .     A
C1145  O1223   1.278   .     A
C1146  C1179   1.412   .     A
C1146  C1176   1.407   .     A
C1147  N1216   1.366   .     A
C1147  F1181   1.355   .     S
C1148  F1182   1.355   .     S
C1148  N1215   1.366   .     A
C1148  C1413   1.415   .     S
C1149  N1216   1.366   .     A
C1149  F1183   1.355   .     S
C1150  N1215   1.366   .     A
C1150  F1184   1.355   .     S
C1150  C1411   1.415   .     S
C1151  O1227   1.280   .     A
C1151  O1230   1.282   .     A
C1151  C1157   1.418   .     S
C1152  O1229   1.282   .     A
C1152  O1228   1.280   .     A
C1152  C1155   1.418   .     S
C1153  C1164   1.383   .     A
C1153  C1155   1.389   .     A
C1153  H1185   1.085   .     S
C1154  H1196   1.085   .     S
C1154  C1165   1.383   .     A
C1154  C1157   1.388   .     A
C1155  C1158   1.390   .     A
C1156  C1180   1.432   .     S
C1156  O1224   1.278   .     A
C1156  O1225   1.288   .     A
C1157  C1159   1.390   .     A
C1158  C1160   1.391   .     A
C1158  H1207   1.085   .     S
C1159  H1209   1.085   .     S
C1159  C1161   1.391   .     A
C1160  C1166   1.412   .     A
C1160  C1162   1.419   .     A
C1161  C1163   1.418   .     A
C1161  C1168   1.412   .     A
C1162  C1164   1.413   .     A
C1162  C371    1.393   1_556 S
C1163  C1165   1.413   .     A
C1164  C1175   1.397   .     A
C1165  C1167   1.397   .     A
C1166  N1217   1.425   .     S
C1166  C375    1.395   1_556 S
C1167  H1210   1.085   .     S
C1168  N1218   1.425   .     S
C1169  N1217   1.448   .     S
C1169  H1213   1.111   .     S
C1169  H1186   1.110   .     S
C1169  H1214   1.110   .     S
C1170  H1188   1.111   .     S
C1170  H1189   1.110   .     S
C1170  N1218   1.448   .     S
C1170  H1190   1.110   .     S
C1171  H1192   1.110   .     S
C1171  H1194   1.109   .     S
C1171  N1219   1.445   .     S
C1171  H1193   1.110   .     S
C1172  H1199   1.110   .     S
C1172  H1198   1.109   .     S
C1172  N1220   1.445   .     S
C1172  H1197   1.110   .     S
C1173  H1203   1.111   .     S
C1173  H1201   1.110   .     S
C1173  N1221   1.450   .     S
C1173  H1202   1.109   .     S
C1174  H1208   1.109   .     S
C1174  H1206   1.111   .     S
C1174  N1222   1.450   .     S
C1174  H1205   1.110   .     S
C1175  H1211   1.085   .     S
C1175  C376    1.395   1_556 S
C1176  N1219   1.430   .     S
C1177  C1180   1.407   .     A
C1177  N1220   1.430   .     S
C1177  C1267   1.386   .     S
C1178  N1221   1.427   .     S
C1178  C1180   1.412   .     A
C1178  C1264   1.386   .     S
C1179  N1222   1.427   .     S
H1187  N1218   1.032   .     S
H1191  N1219   1.029   .     S
H1195  N1220   1.029   .     S
H1200  N1221   1.031   .     S
H1204  N1222   1.031   .     S
H1212  N1217   1.032   .     S
N1215  Zn1231  2.006   .     S
N1216  Zn1232  2.006   .     S
O1223  Zn1231  2.017   .     S
O1224  Zn1232  2.017   .     S
O1225  Zn1231  2.000   .     S
O1226  Zn1232  2.000   .     S
O1227  Zn1231  2.004   .     S
O1228  Zn1232  2.004   .     S
O1229  Zn1231  2.003   .     S
O1230  Zn1232  2.003   .     S
C1233  C1234   1.432   .     S
C1233  O1314   1.288   .     A
C1233  O1311   1.278   .     A
C1234  C1267   1.412   .     A
C1234  C1264   1.407   .     A
C1235  N1304   1.366   .     A
C1235  F1269   1.355   .     S
C1236  F1270   1.355   .     S
C1236  N1303   1.366   .     A
C1236  C1501   1.415   .     S
C1237  N1304   1.366   .     A
C1237  F1271   1.355   .     S
C1238  N1303   1.366   .     A
C1238  F1272   1.355   .     S
C1238  C1499   1.415   .     S
C1239  O1315   1.280   .     A
C1239  O1318   1.282   .     A
C1239  C1245   1.418   .     S
C1240  O1317   1.282   .     A
C1240  O1316   1.280   .     A
C1240  C1243   1.418   .     S
C1241  C1252   1.383   .     A
C1241  C1243   1.389   .     A
C1241  H1273   1.085   .     S
C1242  H1284   1.085   .     S
C1242  C1253   1.383   .     A
C1242  C1245   1.388   .     A
C1243  C1246   1.390   .     A
C1244  C1268   1.432   .     S
C1244  O1312   1.278   .     A
C1244  O1313   1.288   .     A
C1245  C1247   1.390   .     A
C1246  C1248   1.391   .     A
C1246  H1295   1.085   .     S
C1247  H1297   1.085   .     S
C1247  C1249   1.391   .     A
C1248  C1254   1.412   .     A
C1248  C1250   1.419   .     A
C1249  C1251   1.418   .     A
C1249  C1256   1.412   .     A
C1250  C1252   1.413   .     A
C1250  C459    1.393   1_556 S
C1251  C1253   1.413   .     A
C1252  C1263   1.397   .     A
C1253  C1255   1.397   .     A
C1254  N1305   1.425   .     S
C1254  C463    1.395   1_556 S
C1255  H1298   1.085   .     S
C1256  N1306   1.425   .     S
C1257  N1305   1.448   .     S
C1257  H1301   1.111   .     S
C1257  H1274   1.110   .     S
C1257  H1302   1.110   .     S
C1258  H1276   1.111   .     S
C1258  H1277   1.110   .     S
C1258  N1306   1.448   .     S
C1258  H1278   1.110   .     S
C1259  H1280   1.110   .     S
C1259  H1282   1.109   .     S
C1259  N1307   1.445   .     S
C1259  H1281   1.110   .     S
C1260  H1287   1.110   .     S
C1260  H1286   1.109   .     S
C1260  N1308   1.445   .     S
C1260  H1285   1.110   .     S
C1261  H1291   1.111   .     S
C1261  H1289   1.110   .     S
C1261  N1309   1.450   .     S
C1261  H1290   1.109   .     S
C1262  H1296   1.109   .     S
C1262  H1294   1.111   .     S
C1262  N1310   1.450   .     S
C1262  H1293   1.110   .     S
C1263  H1299   1.085   .     S
C1263  C464    1.395   1_556 S
C1264  N1307   1.430   .     S
C1265  C1268   1.407   .     A
C1265  N1308   1.430   .     S
C1265  C1091   1.386   1_655 S
C1266  N1309   1.427   .     S
C1266  C1268   1.412   .     A
C1266  C1088   1.386   1_655 S
C1267  N1310   1.427   .     S
H1275  N1306   1.032   .     S
H1279  N1307   1.029   .     S
H1283  N1308   1.029   .     S
H1288  N1309   1.031   .     S
H1292  N1310   1.031   .     S
H1300  N1305   1.032   .     S
N1303  Zn1319  2.006   .     S
N1304  Zn1320  2.006   .     S
O1311  Zn1319  2.017   .     S
O1312  Zn1320  2.017   .     S
O1313  Zn1319  2.000   .     S
O1314  Zn1320  2.000   .     S
O1315  Zn1319  2.004   .     S
O1316  Zn1320  2.004   .     S
O1317  Zn1319  2.003   .     S
O1318  Zn1320  2.003   .     S
C1321  C1322   1.432   .     S
C1321  O1402   1.288   .     A
C1321  O1399   1.278   .     A
C1322  C1355   1.412   .     A
C1322  C1352   1.407   .     A
C1323  N1392   1.366   .     A
C1323  F1357   1.355   .     S
C1324  F1358   1.355   .     S
C1324  N1391   1.366   .     A
C1324  C797    1.415   1_565 S
C1325  N1392   1.366   .     A
C1325  F1359   1.355   .     S
C1326  N1391   1.366   .     A
C1326  F1360   1.355   .     S
C1326  C795    1.415   1_565 S
C1327  O1403   1.280   .     A
C1327  O1406   1.282   .     A
C1327  C1333   1.418   .     S
C1328  O1405   1.282   .     A
C1328  O1404   1.280   .     A
C1328  C1331   1.418   .     S
C1329  C1340   1.383   .     A
C1329  C1331   1.389   .     A
C1329  H1361   1.085   .     S
C1330  H1372   1.085   .     S
C1330  C1341   1.383   .     A
C1330  C1333   1.388   .     A
C1331  C1334   1.390   .     A
C1332  C1356   1.432   .     S
C1332  O1400   1.278   .     A
C1332  O1401   1.288   .     A
C1333  C1335   1.390   .     A
C1334  C1336   1.391   .     A
C1334  H1383   1.085   .     S
C1335  H1385   1.085   .     S
C1335  C1337   1.391   .     A
C1336  C1342   1.412   .     A
C1336  C1338   1.419   .     A
C1337  C1339   1.418   .     A
C1337  C1344   1.412   .     A
C1338  C1340   1.413   .     A
C1338  C547    1.393   1_556 S
C1339  C1341   1.413   .     A
C1340  C1351   1.397   .     A
C1341  C1343   1.397   .     A
C1342  N1393   1.425   .     S
C1342  C551    1.395   1_556 S
C1343  H1386   1.085   .     S
C1344  N1394   1.425   .     S
C1345  N1393   1.448   .     S
C1345  H1389   1.111   .     S
C1345  H1362   1.110   .     S
C1345  H1390   1.110   .     S
C1346  H1364   1.111   .     S
C1346  H1365   1.110   .     S
C1346  N1394   1.448   .     S
C1346  H1366   1.110   .     S
C1347  H1368   1.110   .     S
C1347  H1370   1.109   .     S
C1347  N1395   1.445   .     S
C1347  H1369   1.110   .     S
C1348  H1375   1.110   .     S
C1348  H1374   1.109   .     S
C1348  N1396   1.445   .     S
C1348  H1373   1.110   .     S
C1349  H1379   1.111   .     S
C1349  H1377   1.110   .     S
C1349  N1397   1.450   .     S
C1349  H1378   1.109   .     S
C1350  H1384   1.109   .     S
C1350  H1382   1.111   .     S
C1350  N1398   1.450   .     S
C1350  H1381   1.110   .     S
C1351  H1387   1.085   .     S
C1351  C552    1.395   1_556 S
C1352  N1395   1.430   .     S
C1352  C1530   1.386   1_455 S
C1353  C1356   1.407   .     A
C1353  N1396   1.430   .     S
C1353  C1443   1.386   .     S
C1354  N1397   1.427   .     S
C1354  C1356   1.412   .     A
C1354  C1440   1.386   .     S
C1355  N1398   1.427   .     S
C1355  C1529   1.386   1_455 S
H1363  N1394   1.032   .     S
H1367  N1395   1.029   .     S
H1371  N1396   1.029   .     S
H1376  N1397   1.031   .     S
H1380  N1398   1.031   .     S
H1388  N1393   1.032   .     S
N1391  Zn1407  2.006   .     S
N1392  Zn1408  2.006   .     S
O1399  Zn1407  2.017   .     S
O1400  Zn1408  2.017   .     S
O1401  Zn1407  2.000   .     S
O1402  Zn1408  2.000   .     S
O1403  Zn1407  2.004   .     S
O1404  Zn1408  2.004   .     S
O1405  Zn1407  2.003   .     S
O1406  Zn1408  2.003   .     S
C1409  C1410   1.432   .     S
C1409  O1490   1.288   .     A
C1409  O1487   1.278   .     A
C1410  C1443   1.412   .     A
C1410  C1440   1.407   .     A
C1411  N1480   1.366   .     A
C1411  F1445   1.355   .     S
C1412  F1446   1.355   .     S
C1412  N1479   1.366   .     A
C1412  C885    1.415   1_565 S
C1413  N1480   1.366   .     A
C1413  F1447   1.355   .     S
C1414  N1479   1.366   .     A
C1414  F1448   1.355   .     S
C1414  C883    1.415   1_565 S
C1415  O1491   1.280   .     A
C1415  O1494   1.282   .     A
C1415  C1421   1.418   .     S
C1416  O1493   1.282   .     A
C1416  O1492   1.280   .     A
C1416  C1419   1.418   .     S
C1417  C1428   1.383   .     A
C1417  C1419   1.389   .     A
C1417  H1449   1.085   .     S
C1418  H1460   1.085   .     S
C1418  C1429   1.383   .     A
C1418  C1421   1.388   .     A
C1419  C1422   1.390   .     A
C1420  C1444   1.432   .     S
C1420  O1488   1.278   .     A
C1420  O1489   1.288   .     A
C1421  C1423   1.390   .     A
C1422  C1424   1.391   .     A
C1422  H1471   1.085   .     S
C1423  H1473   1.085   .     S
C1423  C1425   1.391   .     A
C1424  C1430   1.412   .     A
C1424  C1426   1.419   .     A
C1425  C1427   1.418   .     A
C1425  C1432   1.412   .     A
C1426  C1428   1.413   .     A
C1426  C635    1.393   1_556 S
C1427  C1429   1.413   .     A
C1428  C1439   1.397   .     A
C1429  C1431   1.397   .     A
C1430  N1481   1.425   .     S
C1430  C639    1.395   1_556 S
C1431  H1474   1.085   .     S
C1432  N1482   1.425   .     S
C1433  N1481   1.448   .     S
C1433  H1477   1.111   .     S
C1433  H1450   1.110   .     S
C1433  H1478   1.110   .     S
C1434  H1452   1.111   .     S
C1434  H1453   1.110   .     S
C1434  N1482   1.448   .     S
C1434  H1454   1.110   .     S
C1435  H1456   1.110   .     S
C1435  H1458   1.109   .     S
C1435  N1483   1.445   .     S
C1435  H1457   1.110   .     S
C1436  H1463   1.110   .     S
C1436  H1462   1.109   .     S
C1436  N1484   1.445   .     S
C1436  H1461   1.110   .     S
C1437  H1467   1.111   .     S
C1437  H1465   1.110   .     S
C1437  N1485   1.450   .     S
C1437  H1466   1.109   .     S
C1438  H1472   1.109   .     S
C1438  H1470   1.111   .     S
C1438  N1486   1.450   .     S
C1438  H1469   1.110   .     S
C1439  H1475   1.085   .     S
C1439  C640    1.395   1_556 S
C1440  N1483   1.430   .     S
C1441  C1444   1.407   .     A
C1441  N1484   1.430   .     S
C1441  C1531   1.386   .     S
C1442  N1485   1.427   .     S
C1442  C1444   1.412   .     A
C1442  C1528   1.386   .     S
C1443  N1486   1.427   .     S
H1451  N1482   1.032   .     S
H1455  N1483   1.029   .     S
H1459  N1484   1.029   .     S
H1464  N1485   1.031   .     S
H1468  N1486   1.031   .     S
H1476  N1481   1.032   .     S
N1479  Zn1495  2.006   .     S
N1480  Zn1496  2.006   .     S
O1487  Zn1495  2.017   .     S
O1488  Zn1496  2.017   .     S
O1489  Zn1495  2.000   .     S
O1490  Zn1496  2.000   .     S
O1491  Zn1495  2.004   .     S
O1492  Zn1496  2.004   .     S
O1493  Zn1495  2.003   .     S
O1494  Zn1496  2.003   .     S
C1497  C1498   1.432   .     S
C1497  O1578   1.288   .     A
C1497  O1575   1.278   .     A
C1498  C1531   1.412   .     A
C1498  C1528   1.407   .     A
C1499  N1568   1.366   .     A
C1499  F1533   1.355   .     S
C1500  F1534   1.355   .     S
C1500  N1567   1.366   .     A
C1500  C973    1.415   1_565 S
C1501  N1568   1.366   .     A
C1501  F1535   1.355   .     S
C1502  N1567   1.366   .     A
C1502  F1536   1.355   .     S
C1502  C971    1.415   1_565 S
C1503  O1579   1.280   .     A
C1503  O1582   1.282   .     A
C1503  C1509   1.418   .     S
C1504  O1581   1.282   .     A
C1504  O1580   1.280   .     A
C1504  C1507   1.418   .     S
C1505  C1516   1.383   .     A
C1505  C1507   1.389   .     A
C1505  H1537   1.085   .     S
C1506  H1548   1.085   .     S
C1506  C1517   1.383   .     A
C1506  C1509   1.388   .     A
C1507  C1510   1.390   .     A
C1508  C1532   1.432   .     S
C1508  O1576   1.278   .     A
C1508  O1577   1.288   .     A
C1509  C1511   1.390   .     A
C1510  C1512   1.391   .     A
C1510  H1559   1.085   .     S
C1511  H1561   1.085   .     S
C1511  C1513   1.391   .     A
C1512  C1518   1.412   .     A
C1512  C1514   1.419   .     A
C1513  C1515   1.418   .     A
C1513  C1520   1.412   .     A
C1514  C1516   1.413   .     A
C1514  C723    1.393   1_556 S
C1515  C1517   1.413   .     A
C1516  C1527   1.397   .     A
C1517  C1519   1.397   .     A
C1518  N1569   1.425   .     S
C1518  C727    1.395   1_556 S
C1519  H1562   1.085   .     S
C1520  N1570   1.425   .     S
C1521  N1569   1.448   .     S
C1521  H1565   1.111   .     S
C1521  H1538   1.110   .     S
C1521  H1566   1.110   .     S
C1522  H1540   1.111   .     S
C1522  H1541   1.110   .     S
C1522  N1570   1.448   .     S
C1522  H1542   1.110   .     S
C1523  H1544   1.110   .     S
C1523  H1546   1.109   .     S
C1523  N1571   1.445   .     S
C1523  H1545   1.110   .     S
C1524  H1551   1.110   .     S
C1524  H1550   1.109   .     S
C1524  N1572   1.445   .     S
C1524  H1549   1.110   .     S
C1525  H1555   1.111   .     S
C1525  H1553   1.110   .     S
C1525  N1573   1.450   .     S
C1525  H1554   1.109   .     S
C1526  H1560   1.109   .     S
C1526  H1558   1.111   .     S
C1526  N1574   1.450   .     S
C1526  H1557   1.110   .     S
C1527  H1563   1.085   .     S
C1527  C728    1.395   1_556 S
C1528  N1571   1.430   .     S
C1529  C1532   1.407   .     A
C1529  N1572   1.430   .     S
C1529  C1355   1.386   1_655 S
C1530  N1573   1.427   .     S
C1530  C1532   1.412   .     A
C1530  C1352   1.386   1_655 S
C1531  N1574   1.427   .     S
H1539  N1570   1.032   .     S
H1543  N1571   1.029   .     S
H1547  N1572   1.029   .     S
H1552  N1573   1.031   .     S
H1556  N1574   1.031   .     S
H1564  N1569   1.032   .     S
N1567  Zn1583  2.006   .     S
N1568  Zn1584  2.006   .     S
O1575  Zn1583  2.017   .     S
O1576  Zn1584  2.017   .     S
O1577  Zn1583  2.000   .     S
O1578  Zn1584  2.000   .     S
O1579  Zn1583  2.004   .     S
O1580  Zn1584  2.004   .     S
O1581  Zn1583  2.003   .     S
O1582  Zn1584  2.003   .     S
