data_str_m3_o1_o18_pcu_sym.115
_audit_creation_date              2020-01-03
_audit_creation_method            'Materials Studio'
_symmetry_space_group_name_H-M    'P1'
_symmetry_Int_Tables_number       1
_symmetry_cell_setting            triclinic
loop_
_symmetry_equiv_pos_as_xyz
  x,y,z
_cell_length_a                    29.3978
_cell_length_b                    32.3896
_cell_length_c                    31.8638
_cell_angle_alpha                 90.6762
_cell_angle_beta                  69.9717
_cell_angle_gamma                 90.7373
loop_
_atom_site_label
_atom_site_type_symbol
_atom_site_fract_x
_atom_site_fract_y
_atom_site_fract_z
_atom_site_U_iso_or_equiv
_atom_site_adp_type
_atom_site_occupancy
C1     C     0.16801   0.24688   0.24801   0.00000  Uiso   1.00
C2     C     0.16616   0.08684   0.25061   0.00000  Uiso   1.00
C3     C     0.12382   0.14113   0.04146   0.00000  Uiso   1.00
C4     C     0.19301   0.22771   0.47471   0.00000  Uiso   1.00
C5     C     0.08892   0.13312   0.02177   0.00000  Uiso   1.00
C6     C     0.23158   0.23270   0.49086   0.00000  Uiso   1.00
C7     C     0.19853   0.31373   0.26594   0.00000  Uiso   1.00
C8     C     0.14780   0.02211   0.21980   0.00000  Uiso   1.00
C9     C     0.18985   0.02203   0.27460   0.00000  Uiso   1.00
C10    C     0.14745   0.31246   0.21902   0.00000  Uiso   1.00
C11    C     0.16624   0.04292   0.24961   0.00000  Uiso   1.00
C12    C     0.17152   0.29144   0.24394   0.00000  Uiso   1.00
C13    C     0.32014   0.14244   0.22038   0.00000  Uiso   1.00
C14    C     0.01322   0.19072   0.27963   0.00000  Uiso   1.00
C15    C     0.03488   0.14274   0.22031   0.00000  Uiso   1.00
C16    C     0.29887   0.19084   0.27911   0.00000  Uiso   1.00
C17    C     0.13713   0.16751   0.33771   0.00000  Uiso   1.00
C18    C     0.19568   0.17053   0.16306   0.00000  Uiso   1.00
C19    C     0.12030   0.16739   0.38760   0.00000  Uiso   1.00
C20    C     0.20965   0.18219   0.11561   0.00000  Uiso   1.00
C21    C     0.06282   0.14156   0.45708   0.00000  Uiso   1.00
C22    C     0.26698   0.21063   0.04726   0.00000  Uiso   1.00
C23    C     0.07433   0.15047   0.41207   0.00000  Uiso   1.00
C24    C     0.25779   0.19406   0.08983   0.00000  Uiso   1.00
C25    C     0.15150   0.18127   0.41130   0.00000  Uiso   1.00
C26    C     0.17314   0.18443   0.09538   0.00000  Uiso   1.00
C27    C     0.13618   0.17639   0.45859   0.00000  Uiso   1.00
C28    C     0.18905   0.18513   0.04887   0.00000  Uiso   1.00
C29    C     0.09515   0.15072   0.47960   0.00000  Uiso   1.00
C30    C     0.23093   0.20866   0.02760   0.00000  Uiso   1.00
C31    C     0.16324   0.19194   0.48506   0.00000  Uiso   1.00
C32    C     0.15901   0.17208   0.02499   0.00000  Uiso   1.00
H33    H     0.02901   0.12554   0.47367   0.00000  Uiso   1.00
H34    H     0.30175   0.22505   0.03015   0.00000  Uiso   1.00
H35    H     0.12261   0.12390   0.07077   0.00000  Uiso   1.00
H36    H     0.18900   0.25002   0.45161   0.00000  Uiso   1.00
H37    H     0.06200   0.12397   0.19662   0.00000  Uiso   1.00
H38    H     0.27244   0.21032   0.30172   0.00000  Uiso   1.00
N39    N     0.04759   0.16668   0.25001   0.00000  Uiso   1.00
N40    N     0.28574   0.16666   0.24999   0.00000  Uiso   1.00
O41    O     0.12846   0.22775   0.25000   0.00000  Uiso   1.00
O42    O     0.20488   0.10558   0.24999   0.00000  Uiso   1.00
O43    O     0.20490   0.22774   0.25000   0.00000  Uiso   1.00
O44    O     0.12843   0.10559   0.25000   0.00000  Uiso   1.00
O45    O     0.10661   0.16667   0.31612   0.00000  Uiso   1.00
O46    O     0.22672   0.16666   0.18387   0.00000  Uiso   1.00
O47    O     0.18305   0.16666   0.31612   0.00000  Uiso   1.00
O48    O     0.15028   0.16667   0.18388   0.00000  Uiso   1.00
Zn49   Zn    0.11562   0.16667   0.25000   0.00000  Uiso   1.00
Zn50   Zn    0.21771   0.16666   0.25000   0.00000  Uiso   1.00
C51    C     0.04795   0.10353   0.04548   0.00000  Uiso   1.00
C52    C     0.05686   0.06036   0.02464   0.00000  Uiso   1.00
H53    H     0.05945   0.06084   0.48909   0.00000  Uiso   1.00
H54    H     0.09097   0.04779   0.02679   0.00000  Uiso   1.00
H55    H     0.02645   0.03953   0.04306   0.00000  Uiso   1.00
H56    H     0.04443   0.10083   0.08121   0.00000  Uiso   1.00
H57    H     0.01265   0.11557   0.04582   0.00000  Uiso   1.00
C58    C     0.26956   0.26564   0.47073   0.00000  Uiso   1.00
C59    C     0.26196   0.30359   0.00117   0.00000  Uiso   1.00
H60    H     0.26532   0.29567   0.03376   0.00000  Uiso   1.00
H61    H     0.28971   0.32745   0.48500   0.00000  Uiso   1.00
H62    H     0.22552   0.31668   0.00708   0.00000  Uiso   1.00
H63    H     0.30642   0.25309   0.46370   0.00000  Uiso   1.00
H64    H     0.26792   0.27560   0.43799   0.00000  Uiso   1.00
C65    C     0.12007   0.19806   0.11991   0.00000  Uiso   1.00
C66    C     0.10541   0.23560   0.09837   0.00000  Uiso   1.00
H67    H     0.07153   0.24912   0.12153   0.00000  Uiso   1.00
H68    H     0.13425   0.25972   0.09035   0.00000  Uiso   1.00
H69    H     0.09777   0.22694   0.06772   0.00000  Uiso   1.00
H70    H     0.09413   0.17232   0.12258   0.00000  Uiso   1.00
H71    H     0.11277   0.20851   0.15425   0.00000  Uiso   1.00
C72    C     0.20254   0.19752   0.38597   0.00000  Uiso   1.00
C73    C     0.20063   0.24088   0.36774   0.00000  Uiso   1.00
H74    H     0.19350   0.23914   0.33592   0.00000  Uiso   1.00
H75    H     0.17108   0.25955   0.39099   0.00000  Uiso   1.00
H76    H     0.23546   0.25732   0.36253   0.00000  Uiso   1.00
H77    H     0.22771   0.19712   0.40468   0.00000  Uiso   1.00
H78    H     0.22389   0.17527   0.36087   0.00000  Uiso   1.00
C79    C     0.29696   0.19430   0.10745   0.00000  Uiso   1.00
N80    N     0.32847   0.19457   0.12141   0.00000  Uiso   1.00
C81    C     0.03948   0.13775   0.39146   0.00000  Uiso   1.00
N82    N     0.01145   0.12750   0.37517   0.00000  Uiso   1.00
C83    C     0.24019   0.29673   0.27370   0.00000  Uiso   1.00
N84    N     0.27457   0.28436   0.27890   0.00000  Uiso   1.00
C85    C     0.13155   0.04464   0.18836   0.00000  Uiso   1.00
N86    N     0.11900   0.06225   0.16293   0.00000  Uiso   1.00
C87    C     0.20319   0.04301   0.31220   0.00000  Uiso   1.00
C88    C     0.25677   0.05556   0.29818   0.00000  Uiso   1.00
H89    H     0.27208   0.06232   0.26200   0.00000  Uiso   1.00
H90    H     0.26082   0.08351   0.31718   0.00000  Uiso   1.00
H91    H     0.27823   0.03058   0.30564   0.00000  Uiso   1.00
H92    H     0.18038   0.07058   0.32514   0.00000  Uiso   1.00
H93    H     0.19426   0.02191   0.34126   0.00000  Uiso   1.00
C94    C     0.12421   0.28984   0.18946   0.00000  Uiso   1.00
C95    C     0.06929   0.28683   0.21265   0.00000  Uiso   1.00
H96    H     0.05353   0.26328   0.19604   0.00000  Uiso   1.00
H97    H     0.06005   0.27802   0.24812   0.00000  Uiso   1.00
H98    H     0.05240   0.31707   0.21149   0.00000  Uiso   1.00
H99    H     0.13246   0.30532   0.15676   0.00000  Uiso   1.00
H100   H     0.14062   0.25927   0.18024   0.00000  Uiso   1.00
C101   C     0.30773   0.11616   0.18918   0.00000  Uiso   1.00
N102   N     0.29788   0.09485   0.16408   0.00000  Uiso   1.00
C103   C     0.02512   0.21620   0.31173   0.00000  Uiso   1.00
N104   N     0.03439   0.23683   0.33766   0.00000  Uiso   1.00
C105   C     0.50134   0.24688   0.24801   0.00000  Uiso   1.00
C106   C     0.49950   0.08684   0.25061   0.00000  Uiso   1.00
C107   C     0.45716   0.14113   0.04146   0.00000  Uiso   1.00
C108   C     0.52634   0.22771   0.47471   0.00000  Uiso   1.00
C109   C     0.42226   0.13312   0.02177   0.00000  Uiso   1.00
C110   C     0.56491   0.23270   0.49086   0.00000  Uiso   1.00
C111   C     0.53187   0.31373   0.26594   0.00000  Uiso   1.00
C112   C     0.48113   0.02211   0.21980   0.00000  Uiso   1.00
C113   C     0.52318   0.02203   0.27460   0.00000  Uiso   1.00
C114   C     0.48078   0.31246   0.21902   0.00000  Uiso   1.00
C115   C     0.49958   0.04292   0.24961   0.00000  Uiso   1.00
C116   C     0.50486   0.29144   0.24394   0.00000  Uiso   1.00
C117   C     0.65347   0.14244   0.22038   0.00000  Uiso   1.00
C118   C     0.34655   0.19072   0.27963   0.00000  Uiso   1.00
C119   C     0.36821   0.14274   0.22031   0.00000  Uiso   1.00
C120   C     0.63220   0.19084   0.27911   0.00000  Uiso   1.00
C121   C     0.47047   0.16751   0.33771   0.00000  Uiso   1.00
C122   C     0.52901   0.17053   0.16306   0.00000  Uiso   1.00
C123   C     0.45363   0.16739   0.38760   0.00000  Uiso   1.00
C124   C     0.54299   0.18219   0.11561   0.00000  Uiso   1.00
C125   C     0.39615   0.14156   0.45708   0.00000  Uiso   1.00
C126   C     0.60031   0.21063   0.04726   0.00000  Uiso   1.00
C127   C     0.40766   0.15047   0.41207   0.00000  Uiso   1.00
C128   C     0.59113   0.19406   0.08983   0.00000  Uiso   1.00
C129   C     0.48483   0.18127   0.41130   0.00000  Uiso   1.00
C130   C     0.50647   0.18443   0.09538   0.00000  Uiso   1.00
C131   C     0.46951   0.17639   0.45859   0.00000  Uiso   1.00
C132   C     0.52238   0.18513   0.04887   0.00000  Uiso   1.00
C133   C     0.42849   0.15072   0.47960   0.00000  Uiso   1.00
C134   C     0.56426   0.20866   0.02760   0.00000  Uiso   1.00
C135   C     0.49657   0.19194   0.48506   0.00000  Uiso   1.00
C136   C     0.49235   0.17208   0.02499   0.00000  Uiso   1.00
H137   H     0.36234   0.12554   0.47367   0.00000  Uiso   1.00
H138   H     0.63508   0.22505   0.03015   0.00000  Uiso   1.00
H139   H     0.45595   0.12390   0.07077   0.00000  Uiso   1.00
H140   H     0.52233   0.25002   0.45161   0.00000  Uiso   1.00
H141   H     0.39534   0.12397   0.19662   0.00000  Uiso   1.00
H142   H     0.60578   0.21032   0.30172   0.00000  Uiso   1.00
N143   N     0.38093   0.16668   0.25001   0.00000  Uiso   1.00
N144   N     0.61907   0.16666   0.24999   0.00000  Uiso   1.00
O145   O     0.46179   0.22775   0.25000   0.00000  Uiso   1.00
O146   O     0.53821   0.10558   0.24999   0.00000  Uiso   1.00
O147   O     0.53823   0.22774   0.25000   0.00000  Uiso   1.00
O148   O     0.46177   0.10559   0.25000   0.00000  Uiso   1.00
O149   O     0.43994   0.16667   0.31612   0.00000  Uiso   1.00
O150   O     0.56006   0.16666   0.18387   0.00000  Uiso   1.00
O151   O     0.51639   0.16666   0.31612   0.00000  Uiso   1.00
O152   O     0.48361   0.16667   0.18388   0.00000  Uiso   1.00
Zn153  Zn    0.44896   0.16667   0.25000   0.00000  Uiso   1.00
Zn154  Zn    0.55104   0.16666   0.25000   0.00000  Uiso   1.00
C155   C     0.38128   0.10353   0.04548   0.00000  Uiso   1.00
C156   C     0.39019   0.06036   0.02464   0.00000  Uiso   1.00
H157   H     0.39278   0.06084   0.48909   0.00000  Uiso   1.00
H158   H     0.42431   0.04779   0.02679   0.00000  Uiso   1.00
H159   H     0.35979   0.03953   0.04306   0.00000  Uiso   1.00
H160   H     0.37777   0.10083   0.08121   0.00000  Uiso   1.00
H161   H     0.34598   0.11557   0.04582   0.00000  Uiso   1.00
C162   C     0.60289   0.26564   0.47073   0.00000  Uiso   1.00
C163   C     0.59529   0.30359   0.00117   0.00000  Uiso   1.00
H164   H     0.59865   0.29567   0.03376   0.00000  Uiso   1.00
H165   H     0.62304   0.32745   0.48500   0.00000  Uiso   1.00
H166   H     0.55885   0.31668   0.00708   0.00000  Uiso   1.00
H167   H     0.63975   0.25309   0.46370   0.00000  Uiso   1.00
H168   H     0.60126   0.27560   0.43799   0.00000  Uiso   1.00
C169   C     0.45340   0.19806   0.11991   0.00000  Uiso   1.00
C170   C     0.43874   0.23560   0.09837   0.00000  Uiso   1.00
H171   H     0.40486   0.24912   0.12153   0.00000  Uiso   1.00
H172   H     0.46758   0.25972   0.09035   0.00000  Uiso   1.00
H173   H     0.43110   0.22694   0.06772   0.00000  Uiso   1.00
H174   H     0.42746   0.17232   0.12258   0.00000  Uiso   1.00
H175   H     0.44611   0.20851   0.15425   0.00000  Uiso   1.00
C176   C     0.53588   0.19752   0.38597   0.00000  Uiso   1.00
C177   C     0.53397   0.24088   0.36774   0.00000  Uiso   1.00
H178   H     0.52683   0.23914   0.33592   0.00000  Uiso   1.00
H179   H     0.50441   0.25955   0.39099   0.00000  Uiso   1.00
H180   H     0.56880   0.25732   0.36253   0.00000  Uiso   1.00
H181   H     0.56104   0.19712   0.40468   0.00000  Uiso   1.00
H182   H     0.55722   0.17527   0.36087   0.00000  Uiso   1.00
C183   C     0.63029   0.19430   0.10745   0.00000  Uiso   1.00
N184   N     0.66180   0.19457   0.12141   0.00000  Uiso   1.00
C185   C     0.37281   0.13775   0.39146   0.00000  Uiso   1.00
N186   N     0.34479   0.12750   0.37517   0.00000  Uiso   1.00
C187   C     0.57352   0.29673   0.27370   0.00000  Uiso   1.00
N188   N     0.60791   0.28436   0.27890   0.00000  Uiso   1.00
C189   C     0.46488   0.04464   0.18836   0.00000  Uiso   1.00
N190   N     0.45233   0.06225   0.16293   0.00000  Uiso   1.00
C191   C     0.53653   0.04301   0.31220   0.00000  Uiso   1.00
C192   C     0.59010   0.05556   0.29818   0.00000  Uiso   1.00
H193   H     0.60541   0.06232   0.26200   0.00000  Uiso   1.00
H194   H     0.59416   0.08351   0.31718   0.00000  Uiso   1.00
H195   H     0.61157   0.03058   0.30564   0.00000  Uiso   1.00
H196   H     0.51372   0.07058   0.32514   0.00000  Uiso   1.00
H197   H     0.52760   0.02191   0.34126   0.00000  Uiso   1.00
C198   C     0.45754   0.28984   0.18946   0.00000  Uiso   1.00
C199   C     0.40262   0.28683   0.21265   0.00000  Uiso   1.00
H200   H     0.38686   0.26328   0.19604   0.00000  Uiso   1.00
H201   H     0.39338   0.27802   0.24812   0.00000  Uiso   1.00
H202   H     0.38573   0.31707   0.21149   0.00000  Uiso   1.00
H203   H     0.46579   0.30532   0.15676   0.00000  Uiso   1.00
H204   H     0.47395   0.25927   0.18024   0.00000  Uiso   1.00
C205   C     0.64106   0.11616   0.18918   0.00000  Uiso   1.00
N206   N     0.63122   0.09485   0.16408   0.00000  Uiso   1.00
C207   C     0.35845   0.21620   0.31173   0.00000  Uiso   1.00
N208   N     0.36772   0.23683   0.33766   0.00000  Uiso   1.00
C209   C     0.83467   0.24688   0.24801   0.00000  Uiso   1.00
C210   C     0.83283   0.08684   0.25061   0.00000  Uiso   1.00
C211   C     0.79049   0.14113   0.04146   0.00000  Uiso   1.00
C212   C     0.85967   0.22771   0.47471   0.00000  Uiso   1.00
C213   C     0.75559   0.13312   0.02177   0.00000  Uiso   1.00
C214   C     0.89824   0.23270   0.49086   0.00000  Uiso   1.00
C215   C     0.86520   0.31373   0.26594   0.00000  Uiso   1.00
C216   C     0.81447   0.02211   0.21980   0.00000  Uiso   1.00
C217   C     0.85652   0.02203   0.27460   0.00000  Uiso   1.00
C218   C     0.81412   0.31246   0.21902   0.00000  Uiso   1.00
C219   C     0.83291   0.04292   0.24961   0.00000  Uiso   1.00
C220   C     0.83819   0.29144   0.24394   0.00000  Uiso   1.00
C221   C     0.98680   0.14244   0.22038   0.00000  Uiso   1.00
C222   C     0.67989   0.19072   0.27963   0.00000  Uiso   1.00
C223   C     0.70155   0.14274   0.22031   0.00000  Uiso   1.00
C224   C     0.96554   0.19084   0.27911   0.00000  Uiso   1.00
C225   C     0.80380   0.16751   0.33771   0.00000  Uiso   1.00
C226   C     0.86234   0.17053   0.16306   0.00000  Uiso   1.00
C227   C     0.78696   0.16739   0.38760   0.00000  Uiso   1.00
C228   C     0.87632   0.18219   0.11561   0.00000  Uiso   1.00
C229   C     0.72948   0.14156   0.45708   0.00000  Uiso   1.00
C230   C     0.93365   0.21063   0.04726   0.00000  Uiso   1.00
C231   C     0.74100   0.15047   0.41207   0.00000  Uiso   1.00
C232   C     0.92446   0.19406   0.08983   0.00000  Uiso   1.00
C233   C     0.81817   0.18127   0.41130   0.00000  Uiso   1.00
C234   C     0.83980   0.18443   0.09538   0.00000  Uiso   1.00
C235   C     0.80284   0.17639   0.45859   0.00000  Uiso   1.00
C236   C     0.85572   0.18513   0.04887   0.00000  Uiso   1.00
C237   C     0.76182   0.15072   0.47960   0.00000  Uiso   1.00
C238   C     0.89759   0.20866   0.02760   0.00000  Uiso   1.00
C239   C     0.82990   0.19194   0.48506   0.00000  Uiso   1.00
C240   C     0.82568   0.17208   0.02499   0.00000  Uiso   1.00
H241   H     0.69568   0.12554   0.47367   0.00000  Uiso   1.00
H242   H     0.96842   0.22505   0.03015   0.00000  Uiso   1.00
H243   H     0.78928   0.12390   0.07077   0.00000  Uiso   1.00
H244   H     0.85566   0.25002   0.45161   0.00000  Uiso   1.00
H245   H     0.72867   0.12397   0.19662   0.00000  Uiso   1.00
H246   H     0.93911   0.21032   0.30172   0.00000  Uiso   1.00
N247   N     0.71426   0.16668   0.25001   0.00000  Uiso   1.00
N248   N     0.95241   0.16666   0.24999   0.00000  Uiso   1.00
O249   O     0.79512   0.22775   0.25000   0.00000  Uiso   1.00
O250   O     0.87154   0.10558   0.24999   0.00000  Uiso   1.00
O251   O     0.87157   0.22774   0.25000   0.00000  Uiso   1.00
O252   O     0.79510   0.10559   0.25000   0.00000  Uiso   1.00
O253   O     0.77328   0.16667   0.31612   0.00000  Uiso   1.00
O254   O     0.89339   0.16666   0.18387   0.00000  Uiso   1.00
O255   O     0.84972   0.16666   0.31612   0.00000  Uiso   1.00
O256   O     0.81695   0.16667   0.18388   0.00000  Uiso   1.00
Zn257  Zn    0.78229   0.16667   0.25000   0.00000  Uiso   1.00
Zn258  Zn    0.88438   0.16666   0.25000   0.00000  Uiso   1.00
C259   C     0.71462   0.10353   0.04548   0.00000  Uiso   1.00
C260   C     0.72353   0.06036   0.02464   0.00000  Uiso   1.00
H261   H     0.72611   0.06084   0.48909   0.00000  Uiso   1.00
H262   H     0.75764   0.04779   0.02679   0.00000  Uiso   1.00
H263   H     0.69312   0.03953   0.04306   0.00000  Uiso   1.00
H264   H     0.71110   0.10083   0.08121   0.00000  Uiso   1.00
H265   H     0.67931   0.11557   0.04582   0.00000  Uiso   1.00
C266   C     0.93623   0.26564   0.47073   0.00000  Uiso   1.00
C267   C     0.92863   0.30359   0.00117   0.00000  Uiso   1.00
H268   H     0.93199   0.29567   0.03376   0.00000  Uiso   1.00
H269   H     0.95637   0.32745   0.48500   0.00000  Uiso   1.00
H270   H     0.89219   0.31668   0.00708   0.00000  Uiso   1.00
H271   H     0.97308   0.25309   0.46370   0.00000  Uiso   1.00
H272   H     0.93459   0.27560   0.43799   0.00000  Uiso   1.00
C273   C     0.78674   0.19806   0.11991   0.00000  Uiso   1.00
C274   C     0.77207   0.23560   0.09837   0.00000  Uiso   1.00
H275   H     0.73819   0.24912   0.12153   0.00000  Uiso   1.00
H276   H     0.80091   0.25972   0.09035   0.00000  Uiso   1.00
H277   H     0.76444   0.22694   0.06772   0.00000  Uiso   1.00
H278   H     0.76080   0.17232   0.12258   0.00000  Uiso   1.00
H279   H     0.77944   0.20851   0.15425   0.00000  Uiso   1.00
C280   C     0.86921   0.19752   0.38597   0.00000  Uiso   1.00
C281   C     0.86730   0.24088   0.36774   0.00000  Uiso   1.00
H282   H     0.86017   0.23914   0.33592   0.00000  Uiso   1.00
H283   H     0.83774   0.25955   0.39099   0.00000  Uiso   1.00
H284   H     0.90213   0.25732   0.36253   0.00000  Uiso   1.00
H285   H     0.89437   0.19712   0.40468   0.00000  Uiso   1.00
H286   H     0.89056   0.17527   0.36087   0.00000  Uiso   1.00
C287   C     0.96362   0.19430   0.10745   0.00000  Uiso   1.00
N288   N     0.99513   0.19457   0.12141   0.00000  Uiso   1.00
C289   C     0.70615   0.13775   0.39146   0.00000  Uiso   1.00
N290   N     0.67812   0.12750   0.37517   0.00000  Uiso   1.00
C291   C     0.90686   0.29673   0.27370   0.00000  Uiso   1.00
N292   N     0.94124   0.28436   0.27890   0.00000  Uiso   1.00
C293   C     0.79822   0.04464   0.18836   0.00000  Uiso   1.00
N294   N     0.78567   0.06225   0.16293   0.00000  Uiso   1.00
C295   C     0.86986   0.04301   0.31220   0.00000  Uiso   1.00
C296   C     0.92343   0.05556   0.29818   0.00000  Uiso   1.00
H297   H     0.93874   0.06232   0.26200   0.00000  Uiso   1.00
H298   H     0.92749   0.08351   0.31718   0.00000  Uiso   1.00
H299   H     0.94490   0.03058   0.30564   0.00000  Uiso   1.00
H300   H     0.84705   0.07058   0.32514   0.00000  Uiso   1.00
H301   H     0.86093   0.02191   0.34126   0.00000  Uiso   1.00
C302   C     0.79088   0.28984   0.18946   0.00000  Uiso   1.00
C303   C     0.73596   0.28683   0.21265   0.00000  Uiso   1.00
H304   H     0.72020   0.26328   0.19604   0.00000  Uiso   1.00
H305   H     0.72672   0.27802   0.24812   0.00000  Uiso   1.00
H306   H     0.71907   0.31707   0.21149   0.00000  Uiso   1.00
H307   H     0.79912   0.30532   0.15676   0.00000  Uiso   1.00
H308   H     0.80728   0.25927   0.18024   0.00000  Uiso   1.00
C309   C     0.97440   0.11616   0.18918   0.00000  Uiso   1.00
N310   N     0.96455   0.09485   0.16408   0.00000  Uiso   1.00
C311   C     0.69179   0.21620   0.31173   0.00000  Uiso   1.00
N312   N     0.70106   0.23683   0.33766   0.00000  Uiso   1.00
C313   C     0.16801   0.58022   0.24801   0.00000  Uiso   1.00
C314   C     0.16616   0.42017   0.25061   0.00000  Uiso   1.00
C315   C     0.12382   0.47447   0.04146   0.00000  Uiso   1.00
C316   C     0.19301   0.56104   0.47471   0.00000  Uiso   1.00
C317   C     0.08892   0.46645   0.02177   0.00000  Uiso   1.00
C318   C     0.23158   0.56603   0.49086   0.00000  Uiso   1.00
C319   C     0.19853   0.64706   0.26594   0.00000  Uiso   1.00
C320   C     0.14780   0.35545   0.21980   0.00000  Uiso   1.00
C321   C     0.18985   0.35537   0.27460   0.00000  Uiso   1.00
C322   C     0.14745   0.64579   0.21902   0.00000  Uiso   1.00
C323   C     0.16624   0.37626   0.24961   0.00000  Uiso   1.00
C324   C     0.17152   0.62478   0.24394   0.00000  Uiso   1.00
C325   C     0.32014   0.47578   0.22038   0.00000  Uiso   1.00
C326   C     0.01322   0.52405   0.27963   0.00000  Uiso   1.00
C327   C     0.03488   0.47607   0.22031   0.00000  Uiso   1.00
C328   C     0.29887   0.52418   0.27911   0.00000  Uiso   1.00
C329   C     0.13713   0.50085   0.33771   0.00000  Uiso   1.00
C330   C     0.19568   0.50387   0.16306   0.00000  Uiso   1.00
C331   C     0.12030   0.50073   0.38760   0.00000  Uiso   1.00
C332   C     0.20965   0.51552   0.11561   0.00000  Uiso   1.00
C333   C     0.06282   0.47489   0.45708   0.00000  Uiso   1.00
C334   C     0.26698   0.54396   0.04726   0.00000  Uiso   1.00
C335   C     0.07433   0.48380   0.41207   0.00000  Uiso   1.00
C336   C     0.25779   0.52739   0.08983   0.00000  Uiso   1.00
C337   C     0.15150   0.51461   0.41130   0.00000  Uiso   1.00
C338   C     0.17314   0.51776   0.09538   0.00000  Uiso   1.00
C339   C     0.13618   0.50972   0.45859   0.00000  Uiso   1.00
C340   C     0.18905   0.51846   0.04887   0.00000  Uiso   1.00
C341   C     0.09515   0.48405   0.47960   0.00000  Uiso   1.00
C342   C     0.23093   0.54200   0.02760   0.00000  Uiso   1.00
C343   C     0.16324   0.52527   0.48506   0.00000  Uiso   1.00
C344   C     0.15901   0.50541   0.02499   0.00000  Uiso   1.00
H345   H     0.02901   0.45887   0.47367   0.00000  Uiso   1.00
H346   H     0.30175   0.55838   0.03015   0.00000  Uiso   1.00
H347   H     0.12261   0.45723   0.07077   0.00000  Uiso   1.00
H348   H     0.18900   0.58335   0.45161   0.00000  Uiso   1.00
H349   H     0.06200   0.45730   0.19662   0.00000  Uiso   1.00
H350   H     0.27244   0.54365   0.30172   0.00000  Uiso   1.00
N351   N     0.04759   0.50001   0.25001   0.00000  Uiso   1.00
N352   N     0.28574   0.49999   0.24999   0.00000  Uiso   1.00
O353   O     0.12846   0.56108   0.25000   0.00000  Uiso   1.00
O354   O     0.20488   0.43892   0.24999   0.00000  Uiso   1.00
O355   O     0.20490   0.56107   0.25000   0.00000  Uiso   1.00
O356   O     0.12843   0.43893   0.25000   0.00000  Uiso   1.00
O357   O     0.10661   0.50001   0.31612   0.00000  Uiso   1.00
O358   O     0.22672   0.49999   0.18387   0.00000  Uiso   1.00
O359   O     0.18305   0.50000   0.31612   0.00000  Uiso   1.00
O360   O     0.15028   0.50000   0.18388   0.00000  Uiso   1.00
Zn361  Zn    0.11562   0.50001   0.25000   0.00000  Uiso   1.00
Zn362  Zn    0.21771   0.49999   0.25000   0.00000  Uiso   1.00
C363   C     0.04795   0.43686   0.04548   0.00000  Uiso   1.00
C364   C     0.05686   0.39369   0.02464   0.00000  Uiso   1.00
H365   H     0.05945   0.39418   0.48909   0.00000  Uiso   1.00
H366   H     0.09097   0.38113   0.02679   0.00000  Uiso   1.00
H367   H     0.02645   0.37286   0.04306   0.00000  Uiso   1.00
H368   H     0.04443   0.43416   0.08121   0.00000  Uiso   1.00
H369   H     0.01265   0.44890   0.04582   0.00000  Uiso   1.00
C370   C     0.26956   0.59897   0.47073   0.00000  Uiso   1.00
C371   C     0.26196   0.63693   0.00117   0.00000  Uiso   1.00
H372   H     0.26532   0.62900   0.03376   0.00000  Uiso   1.00
H373   H     0.28971   0.66079   0.48500   0.00000  Uiso   1.00
H374   H     0.22552   0.65001   0.00708   0.00000  Uiso   1.00
H375   H     0.30642   0.58642   0.46370   0.00000  Uiso   1.00
H376   H     0.26792   0.60893   0.43799   0.00000  Uiso   1.00
C377   C     0.12007   0.53140   0.11991   0.00000  Uiso   1.00
C378   C     0.10541   0.56893   0.09837   0.00000  Uiso   1.00
H379   H     0.07153   0.58245   0.12153   0.00000  Uiso   1.00
H380   H     0.13425   0.59306   0.09035   0.00000  Uiso   1.00
H381   H     0.09777   0.56028   0.06772   0.00000  Uiso   1.00
H382   H     0.09413   0.50566   0.12258   0.00000  Uiso   1.00
H383   H     0.11277   0.54185   0.15425   0.00000  Uiso   1.00
C384   C     0.20254   0.53085   0.38597   0.00000  Uiso   1.00
C385   C     0.20063   0.57421   0.36774   0.00000  Uiso   1.00
H386   H     0.19350   0.57248   0.33592   0.00000  Uiso   1.00
H387   H     0.17108   0.59289   0.39099   0.00000  Uiso   1.00
H388   H     0.23546   0.59066   0.36253   0.00000  Uiso   1.00
H389   H     0.22771   0.53046   0.40468   0.00000  Uiso   1.00
H390   H     0.22389   0.50860   0.36087   0.00000  Uiso   1.00
C391   C     0.29696   0.52764   0.10745   0.00000  Uiso   1.00
N392   N     0.32847   0.52790   0.12141   0.00000  Uiso   1.00
C393   C     0.03948   0.47108   0.39146   0.00000  Uiso   1.00
N394   N     0.01145   0.46083   0.37517   0.00000  Uiso   1.00
C395   C     0.24019   0.63007   0.27370   0.00000  Uiso   1.00
N396   N     0.27457   0.61769   0.27890   0.00000  Uiso   1.00
C397   C     0.13155   0.37798   0.18836   0.00000  Uiso   1.00
N398   N     0.11900   0.39558   0.16293   0.00000  Uiso   1.00
C399   C     0.20319   0.37634   0.31220   0.00000  Uiso   1.00
C400   C     0.25677   0.38889   0.29818   0.00000  Uiso   1.00
H401   H     0.27208   0.39565   0.26200   0.00000  Uiso   1.00
H402   H     0.26082   0.41684   0.31718   0.00000  Uiso   1.00
H403   H     0.27823   0.36391   0.30564   0.00000  Uiso   1.00
H404   H     0.18038   0.40391   0.32514   0.00000  Uiso   1.00
H405   H     0.19426   0.35525   0.34126   0.00000  Uiso   1.00
C406   C     0.12421   0.62318   0.18946   0.00000  Uiso   1.00
C407   C     0.06929   0.62017   0.21265   0.00000  Uiso   1.00
H408   H     0.05353   0.59662   0.19604   0.00000  Uiso   1.00
H409   H     0.06005   0.61135   0.24812   0.00000  Uiso   1.00
H410   H     0.05240   0.65041   0.21149   0.00000  Uiso   1.00
H411   H     0.13246   0.63866   0.15676   0.00000  Uiso   1.00
H412   H     0.14062   0.59261   0.18024   0.00000  Uiso   1.00
C413   C     0.30773   0.44949   0.18918   0.00000  Uiso   1.00
N414   N     0.29788   0.42819   0.16408   0.00000  Uiso   1.00
C415   C     0.02512   0.54954   0.31173   0.00000  Uiso   1.00
N416   N     0.03439   0.57017   0.33766   0.00000  Uiso   1.00
C417   C     0.50134   0.58022   0.24801   0.00000  Uiso   1.00
C418   C     0.49950   0.42017   0.25061   0.00000  Uiso   1.00
C419   C     0.45716   0.47447   0.04146   0.00000  Uiso   1.00
C420   C     0.52634   0.56104   0.47471   0.00000  Uiso   1.00
C421   C     0.42226   0.46645   0.02177   0.00000  Uiso   1.00
C422   C     0.56491   0.56603   0.49086   0.00000  Uiso   1.00
C423   C     0.53187   0.64706   0.26594   0.00000  Uiso   1.00
C424   C     0.48113   0.35545   0.21980   0.00000  Uiso   1.00
C425   C     0.52318   0.35537   0.27460   0.00000  Uiso   1.00
C426   C     0.48078   0.64579   0.21902   0.00000  Uiso   1.00
C427   C     0.49958   0.37626   0.24961   0.00000  Uiso   1.00
C428   C     0.50486   0.62478   0.24394   0.00000  Uiso   1.00
C429   C     0.65347   0.47578   0.22038   0.00000  Uiso   1.00
C430   C     0.34655   0.52405   0.27963   0.00000  Uiso   1.00
C431   C     0.36821   0.47607   0.22031   0.00000  Uiso   1.00
C432   C     0.63220   0.52418   0.27911   0.00000  Uiso   1.00
C433   C     0.47047   0.50085   0.33771   0.00000  Uiso   1.00
C434   C     0.52901   0.50387   0.16306   0.00000  Uiso   1.00
C435   C     0.45363   0.50073   0.38760   0.00000  Uiso   1.00
C436   C     0.54299   0.51552   0.11561   0.00000  Uiso   1.00
C437   C     0.39615   0.47489   0.45708   0.00000  Uiso   1.00
C438   C     0.60031   0.54396   0.04726   0.00000  Uiso   1.00
C439   C     0.40766   0.48380   0.41207   0.00000  Uiso   1.00
C440   C     0.59113   0.52739   0.08983   0.00000  Uiso   1.00
C441   C     0.48483   0.51461   0.41130   0.00000  Uiso   1.00
C442   C     0.50647   0.51776   0.09538   0.00000  Uiso   1.00
C443   C     0.46951   0.50972   0.45859   0.00000  Uiso   1.00
C444   C     0.52238   0.51846   0.04887   0.00000  Uiso   1.00
C445   C     0.42849   0.48405   0.47960   0.00000  Uiso   1.00
C446   C     0.56426   0.54200   0.02760   0.00000  Uiso   1.00
C447   C     0.49657   0.52527   0.48506   0.00000  Uiso   1.00
C448   C     0.49235   0.50541   0.02499   0.00000  Uiso   1.00
H449   H     0.36234   0.45887   0.47367   0.00000  Uiso   1.00
H450   H     0.63508   0.55838   0.03015   0.00000  Uiso   1.00
H451   H     0.45595   0.45723   0.07077   0.00000  Uiso   1.00
H452   H     0.52233   0.58335   0.45161   0.00000  Uiso   1.00
H453   H     0.39534   0.45730   0.19662   0.00000  Uiso   1.00
H454   H     0.60578   0.54365   0.30172   0.00000  Uiso   1.00
N455   N     0.38093   0.50001   0.25001   0.00000  Uiso   1.00
N456   N     0.61907   0.49999   0.24999   0.00000  Uiso   1.00
O457   O     0.46179   0.56108   0.25000   0.00000  Uiso   1.00
O458   O     0.53821   0.43892   0.24999   0.00000  Uiso   1.00
O459   O     0.53823   0.56107   0.25000   0.00000  Uiso   1.00
O460   O     0.46177   0.43893   0.25000   0.00000  Uiso   1.00
O461   O     0.43994   0.50001   0.31612   0.00000  Uiso   1.00
O462   O     0.56006   0.49999   0.18387   0.00000  Uiso   1.00
O463   O     0.51639   0.50000   0.31612   0.00000  Uiso   1.00
O464   O     0.48361   0.50000   0.18388   0.00000  Uiso   1.00
Zn465  Zn    0.44896   0.50001   0.25000   0.00000  Uiso   1.00
Zn466  Zn    0.55104   0.49999   0.25000   0.00000  Uiso   1.00
C467   C     0.38128   0.43686   0.04548   0.00000  Uiso   1.00
C468   C     0.39019   0.39369   0.02464   0.00000  Uiso   1.00
H469   H     0.39278   0.39418   0.48909   0.00000  Uiso   1.00
H470   H     0.42431   0.38113   0.02679   0.00000  Uiso   1.00
H471   H     0.35979   0.37286   0.04306   0.00000  Uiso   1.00
H472   H     0.37777   0.43416   0.08121   0.00000  Uiso   1.00
H473   H     0.34598   0.44890   0.04582   0.00000  Uiso   1.00
C474   C     0.60289   0.59897   0.47073   0.00000  Uiso   1.00
C475   C     0.59529   0.63693   0.00117   0.00000  Uiso   1.00
H476   H     0.59865   0.62900   0.03376   0.00000  Uiso   1.00
H477   H     0.62304   0.66079   0.48500   0.00000  Uiso   1.00
H478   H     0.55885   0.65001   0.00708   0.00000  Uiso   1.00
H479   H     0.63975   0.58642   0.46370   0.00000  Uiso   1.00
H480   H     0.60126   0.60893   0.43799   0.00000  Uiso   1.00
C481   C     0.45340   0.53140   0.11991   0.00000  Uiso   1.00
C482   C     0.43874   0.56893   0.09837   0.00000  Uiso   1.00
H483   H     0.40486   0.58245   0.12153   0.00000  Uiso   1.00
H484   H     0.46758   0.59306   0.09035   0.00000  Uiso   1.00
H485   H     0.43110   0.56028   0.06772   0.00000  Uiso   1.00
H486   H     0.42746   0.50566   0.12258   0.00000  Uiso   1.00
H487   H     0.44611   0.54185   0.15425   0.00000  Uiso   1.00
C488   C     0.53588   0.53085   0.38597   0.00000  Uiso   1.00
C489   C     0.53397   0.57421   0.36774   0.00000  Uiso   1.00
H490   H     0.52683   0.57248   0.33592   0.00000  Uiso   1.00
H491   H     0.50441   0.59289   0.39099   0.00000  Uiso   1.00
H492   H     0.56880   0.59066   0.36253   0.00000  Uiso   1.00
H493   H     0.56104   0.53046   0.40468   0.00000  Uiso   1.00
H494   H     0.55722   0.50860   0.36087   0.00000  Uiso   1.00
C495   C     0.63029   0.52764   0.10745   0.00000  Uiso   1.00
N496   N     0.66180   0.52790   0.12141   0.00000  Uiso   1.00
C497   C     0.37281   0.47108   0.39146   0.00000  Uiso   1.00
N498   N     0.34479   0.46083   0.37517   0.00000  Uiso   1.00
C499   C     0.57352   0.63007   0.27370   0.00000  Uiso   1.00
N500   N     0.60791   0.61769   0.27890   0.00000  Uiso   1.00
C501   C     0.46488   0.37798   0.18836   0.00000  Uiso   1.00
N502   N     0.45233   0.39558   0.16293   0.00000  Uiso   1.00
C503   C     0.53653   0.37634   0.31220   0.00000  Uiso   1.00
C504   C     0.59010   0.38889   0.29818   0.00000  Uiso   1.00
H505   H     0.60541   0.39565   0.26200   0.00000  Uiso   1.00
H506   H     0.59416   0.41684   0.31718   0.00000  Uiso   1.00
H507   H     0.61157   0.36391   0.30564   0.00000  Uiso   1.00
H508   H     0.51372   0.40391   0.32514   0.00000  Uiso   1.00
H509   H     0.52760   0.35525   0.34126   0.00000  Uiso   1.00
C510   C     0.45754   0.62318   0.18946   0.00000  Uiso   1.00
C511   C     0.40262   0.62017   0.21265   0.00000  Uiso   1.00
H512   H     0.38686   0.59662   0.19604   0.00000  Uiso   1.00
H513   H     0.39338   0.61135   0.24812   0.00000  Uiso   1.00
H514   H     0.38573   0.65041   0.21149   0.00000  Uiso   1.00
H515   H     0.46579   0.63866   0.15676   0.00000  Uiso   1.00
H516   H     0.47395   0.59261   0.18024   0.00000  Uiso   1.00
C517   C     0.64106   0.44949   0.18918   0.00000  Uiso   1.00
N518   N     0.63122   0.42819   0.16408   0.00000  Uiso   1.00
C519   C     0.35845   0.54954   0.31173   0.00000  Uiso   1.00
N520   N     0.36772   0.57017   0.33766   0.00000  Uiso   1.00
C521   C     0.83467   0.58022   0.24801   0.00000  Uiso   1.00
C522   C     0.83283   0.42017   0.25061   0.00000  Uiso   1.00
C523   C     0.79049   0.47447   0.04146   0.00000  Uiso   1.00
C524   C     0.85967   0.56104   0.47471   0.00000  Uiso   1.00
C525   C     0.75559   0.46645   0.02177   0.00000  Uiso   1.00
C526   C     0.89824   0.56603   0.49086   0.00000  Uiso   1.00
C527   C     0.86520   0.64706   0.26594   0.00000  Uiso   1.00
C528   C     0.81447   0.35545   0.21980   0.00000  Uiso   1.00
C529   C     0.85652   0.35537   0.27460   0.00000  Uiso   1.00
C530   C     0.81412   0.64579   0.21902   0.00000  Uiso   1.00
C531   C     0.83291   0.37626   0.24961   0.00000  Uiso   1.00
C532   C     0.83819   0.62478   0.24394   0.00000  Uiso   1.00
C533   C     0.98680   0.47578   0.22038   0.00000  Uiso   1.00
C534   C     0.67989   0.52405   0.27963   0.00000  Uiso   1.00
C535   C     0.70155   0.47607   0.22031   0.00000  Uiso   1.00
C536   C     0.96554   0.52418   0.27911   0.00000  Uiso   1.00
C537   C     0.80380   0.50085   0.33771   0.00000  Uiso   1.00
C538   C     0.86234   0.50387   0.16306   0.00000  Uiso   1.00
C539   C     0.78696   0.50073   0.38760   0.00000  Uiso   1.00
C540   C     0.87632   0.51552   0.11561   0.00000  Uiso   1.00
C541   C     0.72948   0.47489   0.45708   0.00000  Uiso   1.00
C542   C     0.93365   0.54396   0.04726   0.00000  Uiso   1.00
C543   C     0.74100   0.48380   0.41207   0.00000  Uiso   1.00
C544   C     0.92446   0.52739   0.08983   0.00000  Uiso   1.00
C545   C     0.81817   0.51461   0.41130   0.00000  Uiso   1.00
C546   C     0.83980   0.51776   0.09538   0.00000  Uiso   1.00
C547   C     0.80284   0.50972   0.45859   0.00000  Uiso   1.00
C548   C     0.85572   0.51846   0.04887   0.00000  Uiso   1.00
C549   C     0.76182   0.48405   0.47960   0.00000  Uiso   1.00
C550   C     0.89759   0.54200   0.02760   0.00000  Uiso   1.00
C551   C     0.82990   0.52527   0.48506   0.00000  Uiso   1.00
C552   C     0.82568   0.50541   0.02499   0.00000  Uiso   1.00
H553   H     0.69568   0.45887   0.47367   0.00000  Uiso   1.00
H554   H     0.96842   0.55838   0.03015   0.00000  Uiso   1.00
H555   H     0.78928   0.45723   0.07077   0.00000  Uiso   1.00
H556   H     0.85566   0.58335   0.45161   0.00000  Uiso   1.00
H557   H     0.72867   0.45730   0.19662   0.00000  Uiso   1.00
H558   H     0.93911   0.54365   0.30172   0.00000  Uiso   1.00
N559   N     0.71426   0.50001   0.25001   0.00000  Uiso   1.00
N560   N     0.95241   0.49999   0.24999   0.00000  Uiso   1.00
O561   O     0.79512   0.56108   0.25000   0.00000  Uiso   1.00
O562   O     0.87154   0.43892   0.24999   0.00000  Uiso   1.00
O563   O     0.87157   0.56107   0.25000   0.00000  Uiso   1.00
O564   O     0.79510   0.43893   0.25000   0.00000  Uiso   1.00
O565   O     0.77328   0.50001   0.31612   0.00000  Uiso   1.00
O566   O     0.89339   0.49999   0.18387   0.00000  Uiso   1.00
O567   O     0.84972   0.50000   0.31612   0.00000  Uiso   1.00
O568   O     0.81695   0.50000   0.18388   0.00000  Uiso   1.00
Zn569  Zn    0.78229   0.50001   0.25000   0.00000  Uiso   1.00
Zn570  Zn    0.88438   0.49999   0.25000   0.00000  Uiso   1.00
C571   C     0.71462   0.43686   0.04548   0.00000  Uiso   1.00
C572   C     0.72353   0.39369   0.02464   0.00000  Uiso   1.00
H573   H     0.72611   0.39418   0.48909   0.00000  Uiso   1.00
H574   H     0.75764   0.38113   0.02679   0.00000  Uiso   1.00
H575   H     0.69312   0.37286   0.04306   0.00000  Uiso   1.00
H576   H     0.71110   0.43416   0.08121   0.00000  Uiso   1.00
H577   H     0.67931   0.44890   0.04582   0.00000  Uiso   1.00
C578   C     0.93623   0.59897   0.47073   0.00000  Uiso   1.00
C579   C     0.92863   0.63693   0.00117   0.00000  Uiso   1.00
H580   H     0.93199   0.62900   0.03376   0.00000  Uiso   1.00
H581   H     0.95637   0.66079   0.48500   0.00000  Uiso   1.00
H582   H     0.89219   0.65001   0.00708   0.00000  Uiso   1.00
H583   H     0.97308   0.58642   0.46370   0.00000  Uiso   1.00
H584   H     0.93459   0.60893   0.43799   0.00000  Uiso   1.00
C585   C     0.78674   0.53140   0.11991   0.00000  Uiso   1.00
C586   C     0.77207   0.56893   0.09837   0.00000  Uiso   1.00
H587   H     0.73819   0.58245   0.12153   0.00000  Uiso   1.00
H588   H     0.80091   0.59306   0.09035   0.00000  Uiso   1.00
H589   H     0.76444   0.56028   0.06772   0.00000  Uiso   1.00
H590   H     0.76080   0.50566   0.12258   0.00000  Uiso   1.00
H591   H     0.77944   0.54185   0.15425   0.00000  Uiso   1.00
C592   C     0.86921   0.53085   0.38597   0.00000  Uiso   1.00
C593   C     0.86730   0.57421   0.36774   0.00000  Uiso   1.00
H594   H     0.86017   0.57248   0.33592   0.00000  Uiso   1.00
H595   H     0.83774   0.59289   0.39099   0.00000  Uiso   1.00
H596   H     0.90213   0.59066   0.36253   0.00000  Uiso   1.00
H597   H     0.89437   0.53046   0.40468   0.00000  Uiso   1.00
H598   H     0.89056   0.50860   0.36087   0.00000  Uiso   1.00
C599   C     0.96362   0.52764   0.10745   0.00000  Uiso   1.00
N600   N     0.99513   0.52790   0.12141   0.00000  Uiso   1.00
C601   C     0.70615   0.47108   0.39146   0.00000  Uiso   1.00
N602   N     0.67812   0.46083   0.37517   0.00000  Uiso   1.00
C603   C     0.90686   0.63007   0.27370   0.00000  Uiso   1.00
N604   N     0.94124   0.61769   0.27890   0.00000  Uiso   1.00
C605   C     0.79822   0.37798   0.18836   0.00000  Uiso   1.00
N606   N     0.78567   0.39558   0.16293   0.00000  Uiso   1.00
C607   C     0.86986   0.37634   0.31220   0.00000  Uiso   1.00
C608   C     0.92343   0.38889   0.29818   0.00000  Uiso   1.00
H609   H     0.93874   0.39565   0.26200   0.00000  Uiso   1.00
H610   H     0.92749   0.41684   0.31718   0.00000  Uiso   1.00
H611   H     0.94490   0.36391   0.30564   0.00000  Uiso   1.00
H612   H     0.84705   0.40391   0.32514   0.00000  Uiso   1.00
H613   H     0.86093   0.35525   0.34126   0.00000  Uiso   1.00
C614   C     0.79088   0.62318   0.18946   0.00000  Uiso   1.00
C615   C     0.73596   0.62017   0.21265   0.00000  Uiso   1.00
H616   H     0.72020   0.59662   0.19604   0.00000  Uiso   1.00
H617   H     0.72672   0.61135   0.24812   0.00000  Uiso   1.00
H618   H     0.71907   0.65041   0.21149   0.00000  Uiso   1.00
H619   H     0.79912   0.63866   0.15676   0.00000  Uiso   1.00
H620   H     0.80728   0.59261   0.18024   0.00000  Uiso   1.00
C621   C     0.97440   0.44949   0.18918   0.00000  Uiso   1.00
N622   N     0.96455   0.42819   0.16408   0.00000  Uiso   1.00
C623   C     0.69179   0.54954   0.31173   0.00000  Uiso   1.00
N624   N     0.70106   0.57017   0.33766   0.00000  Uiso   1.00
C625   C     0.16801   0.91355   0.24801   0.00000  Uiso   1.00
C626   C     0.16616   0.75350   0.25061   0.00000  Uiso   1.00
C627   C     0.12382   0.80780   0.04146   0.00000  Uiso   1.00
C628   C     0.19301   0.89438   0.47471   0.00000  Uiso   1.00
C629   C     0.08892   0.79979   0.02177   0.00000  Uiso   1.00
C630   C     0.23158   0.89936   0.49086   0.00000  Uiso   1.00
C631   C     0.19853   0.98039   0.26594   0.00000  Uiso   1.00
C632   C     0.14780   0.68878   0.21980   0.00000  Uiso   1.00
C633   C     0.18985   0.68870   0.27460   0.00000  Uiso   1.00
C634   C     0.14745   0.97913   0.21902   0.00000  Uiso   1.00
C635   C     0.16624   0.70959   0.24961   0.00000  Uiso   1.00
C636   C     0.17152   0.95811   0.24394   0.00000  Uiso   1.00
C637   C     0.32014   0.80911   0.22038   0.00000  Uiso   1.00
C638   C     0.01322   0.85738   0.27963   0.00000  Uiso   1.00
C639   C     0.03488   0.80940   0.22031   0.00000  Uiso   1.00
C640   C     0.29887   0.85751   0.27911   0.00000  Uiso   1.00
C641   C     0.13713   0.83418   0.33771   0.00000  Uiso   1.00
C642   C     0.19568   0.83720   0.16306   0.00000  Uiso   1.00
C643   C     0.12030   0.83406   0.38760   0.00000  Uiso   1.00
C644   C     0.20965   0.84885   0.11561   0.00000  Uiso   1.00
C645   C     0.06282   0.80823   0.45708   0.00000  Uiso   1.00
C646   C     0.26698   0.87730   0.04726   0.00000  Uiso   1.00
C647   C     0.07433   0.81713   0.41207   0.00000  Uiso   1.00
C648   C     0.25779   0.86072   0.08983   0.00000  Uiso   1.00
C649   C     0.15150   0.84794   0.41130   0.00000  Uiso   1.00
C650   C     0.17314   0.85109   0.09538   0.00000  Uiso   1.00
C651   C     0.13618   0.84305   0.45859   0.00000  Uiso   1.00
C652   C     0.18905   0.85179   0.04887   0.00000  Uiso   1.00
C653   C     0.09515   0.81738   0.47960   0.00000  Uiso   1.00
C654   C     0.23093   0.87533   0.02760   0.00000  Uiso   1.00
C655   C     0.16324   0.85861   0.48506   0.00000  Uiso   1.00
C656   C     0.15901   0.83875   0.02499   0.00000  Uiso   1.00
H657   H     0.02901   0.79220   0.47367   0.00000  Uiso   1.00
H658   H     0.30175   0.89172   0.03015   0.00000  Uiso   1.00
H659   H     0.12261   0.79057   0.07077   0.00000  Uiso   1.00
H660   H     0.18900   0.91668   0.45161   0.00000  Uiso   1.00
H661   H     0.06200   0.79063   0.19662   0.00000  Uiso   1.00
H662   H     0.27244   0.87699   0.30172   0.00000  Uiso   1.00
N663   N     0.04759   0.83334   0.25001   0.00000  Uiso   1.00
N664   N     0.28574   0.83332   0.24999   0.00000  Uiso   1.00
O665   O     0.12846   0.89442   0.25000   0.00000  Uiso   1.00
O666   O     0.20488   0.77225   0.24999   0.00000  Uiso   1.00
O667   O     0.20490   0.89441   0.25000   0.00000  Uiso   1.00
O668   O     0.12843   0.77226   0.25000   0.00000  Uiso   1.00
O669   O     0.10661   0.83334   0.31612   0.00000  Uiso   1.00
O670   O     0.22672   0.83333   0.18387   0.00000  Uiso   1.00
O671   O     0.18305   0.83333   0.31612   0.00000  Uiso   1.00
O672   O     0.15028   0.83334   0.18388   0.00000  Uiso   1.00
Zn673  Zn    0.11562   0.83334   0.25000   0.00000  Uiso   1.00
Zn674  Zn    0.21771   0.83333   0.25000   0.00000  Uiso   1.00
C675   C     0.04795   0.77020   0.04548   0.00000  Uiso   1.00
C676   C     0.05686   0.72702   0.02464   0.00000  Uiso   1.00
H677   H     0.05945   0.72751   0.48909   0.00000  Uiso   1.00
H678   H     0.09097   0.71446   0.02679   0.00000  Uiso   1.00
H679   H     0.02645   0.70620   0.04306   0.00000  Uiso   1.00
H680   H     0.04443   0.76749   0.08121   0.00000  Uiso   1.00
H681   H     0.01265   0.78224   0.04582   0.00000  Uiso   1.00
C682   C     0.26956   0.93231   0.47073   0.00000  Uiso   1.00
C683   C     0.26196   0.97026   0.00117   0.00000  Uiso   1.00
H684   H     0.26532   0.96233   0.03376   0.00000  Uiso   1.00
H685   H     0.28971   0.99412   0.48500   0.00000  Uiso   1.00
H686   H     0.22552   0.98335   0.00708   0.00000  Uiso   1.00
H687   H     0.30642   0.91975   0.46370   0.00000  Uiso   1.00
H688   H     0.26792   0.94226   0.43799   0.00000  Uiso   1.00
C689   C     0.12007   0.86473   0.11991   0.00000  Uiso   1.00
C690   C     0.10541   0.90227   0.09837   0.00000  Uiso   1.00
H691   H     0.07153   0.91578   0.12153   0.00000  Uiso   1.00
H692   H     0.13425   0.92639   0.09035   0.00000  Uiso   1.00
H693   H     0.09777   0.89361   0.06772   0.00000  Uiso   1.00
H694   H     0.09413   0.83899   0.12258   0.00000  Uiso   1.00
H695   H     0.11277   0.87518   0.15425   0.00000  Uiso   1.00
C696   C     0.20254   0.86418   0.38597   0.00000  Uiso   1.00
C697   C     0.20063   0.90755   0.36774   0.00000  Uiso   1.00
H698   H     0.19350   0.90581   0.33592   0.00000  Uiso   1.00
H699   H     0.17108   0.92622   0.39099   0.00000  Uiso   1.00
H700   H     0.23546   0.92399   0.36253   0.00000  Uiso   1.00
H701   H     0.22771   0.86379   0.40468   0.00000  Uiso   1.00
H702   H     0.22389   0.84194   0.36087   0.00000  Uiso   1.00
C703   C     0.29696   0.86097   0.10745   0.00000  Uiso   1.00
N704   N     0.32847   0.86124   0.12141   0.00000  Uiso   1.00
C705   C     0.03948   0.80441   0.39146   0.00000  Uiso   1.00
N706   N     0.01145   0.79417   0.37517   0.00000  Uiso   1.00
C707   C     0.24019   0.96340   0.27370   0.00000  Uiso   1.00
N708   N     0.27457   0.95102   0.27890   0.00000  Uiso   1.00
C709   C     0.13155   0.71131   0.18836   0.00000  Uiso   1.00
N710   N     0.11900   0.72891   0.16293   0.00000  Uiso   1.00
C711   C     0.20319   0.70967   0.31220   0.00000  Uiso   1.00
C712   C     0.25677   0.72222   0.29818   0.00000  Uiso   1.00
H713   H     0.27208   0.72898   0.26200   0.00000  Uiso   1.00
H714   H     0.26082   0.75017   0.31718   0.00000  Uiso   1.00
H715   H     0.27823   0.69724   0.30564   0.00000  Uiso   1.00
H716   H     0.18038   0.73724   0.32514   0.00000  Uiso   1.00
H717   H     0.19426   0.68858   0.34126   0.00000  Uiso   1.00
C718   C     0.12421   0.95651   0.18946   0.00000  Uiso   1.00
C719   C     0.06929   0.95350   0.21265   0.00000  Uiso   1.00
H720   H     0.05353   0.92995   0.19604   0.00000  Uiso   1.00
H721   H     0.06005   0.94469   0.24812   0.00000  Uiso   1.00
H722   H     0.05240   0.98374   0.21149   0.00000  Uiso   1.00
H723   H     0.13246   0.97199   0.15676   0.00000  Uiso   1.00
H724   H     0.14062   0.92594   0.18024   0.00000  Uiso   1.00
C725   C     0.30773   0.78283   0.18918   0.00000  Uiso   1.00
N726   N     0.29788   0.76152   0.16408   0.00000  Uiso   1.00
C727   C     0.02512   0.88287   0.31173   0.00000  Uiso   1.00
N728   N     0.03439   0.90350   0.33766   0.00000  Uiso   1.00
C729   C     0.50134   0.91355   0.24801   0.00000  Uiso   1.00
C730   C     0.49950   0.75350   0.25061   0.00000  Uiso   1.00
C731   C     0.45716   0.80780   0.04146   0.00000  Uiso   1.00
C732   C     0.52634   0.89438   0.47471   0.00000  Uiso   1.00
C733   C     0.42226   0.79979   0.02177   0.00000  Uiso   1.00
C734   C     0.56491   0.89936   0.49086   0.00000  Uiso   1.00
C735   C     0.53187   0.98039   0.26594   0.00000  Uiso   1.00
C736   C     0.48113   0.68878   0.21980   0.00000  Uiso   1.00
C737   C     0.52318   0.68870   0.27460   0.00000  Uiso   1.00
C738   C     0.48078   0.97913   0.21902   0.00000  Uiso   1.00
C739   C     0.49958   0.70959   0.24961   0.00000  Uiso   1.00
C740   C     0.50486   0.95811   0.24394   0.00000  Uiso   1.00
C741   C     0.65347   0.80911   0.22038   0.00000  Uiso   1.00
C742   C     0.34655   0.85738   0.27963   0.00000  Uiso   1.00
C743   C     0.36821   0.80940   0.22031   0.00000  Uiso   1.00
C744   C     0.63220   0.85751   0.27911   0.00000  Uiso   1.00
C745   C     0.47047   0.83418   0.33771   0.00000  Uiso   1.00
C746   C     0.52901   0.83720   0.16306   0.00000  Uiso   1.00
C747   C     0.45363   0.83406   0.38760   0.00000  Uiso   1.00
C748   C     0.54299   0.84885   0.11561   0.00000  Uiso   1.00
C749   C     0.39615   0.80823   0.45708   0.00000  Uiso   1.00
C750   C     0.60031   0.87730   0.04726   0.00000  Uiso   1.00
C751   C     0.40766   0.81713   0.41207   0.00000  Uiso   1.00
C752   C     0.59113   0.86072   0.08983   0.00000  Uiso   1.00
C753   C     0.48483   0.84794   0.41130   0.00000  Uiso   1.00
C754   C     0.50647   0.85109   0.09538   0.00000  Uiso   1.00
C755   C     0.46951   0.84305   0.45859   0.00000  Uiso   1.00
C756   C     0.52238   0.85179   0.04887   0.00000  Uiso   1.00
C757   C     0.42849   0.81738   0.47960   0.00000  Uiso   1.00
C758   C     0.56426   0.87533   0.02760   0.00000  Uiso   1.00
C759   C     0.49657   0.85861   0.48506   0.00000  Uiso   1.00
C760   C     0.49235   0.83875   0.02499   0.00000  Uiso   1.00
H761   H     0.36234   0.79220   0.47367   0.00000  Uiso   1.00
H762   H     0.63508   0.89172   0.03015   0.00000  Uiso   1.00
H763   H     0.45595   0.79057   0.07077   0.00000  Uiso   1.00
H764   H     0.52233   0.91668   0.45161   0.00000  Uiso   1.00
H765   H     0.39534   0.79063   0.19662   0.00000  Uiso   1.00
H766   H     0.60578   0.87699   0.30172   0.00000  Uiso   1.00
N767   N     0.38093   0.83334   0.25001   0.00000  Uiso   1.00
N768   N     0.61907   0.83332   0.24999   0.00000  Uiso   1.00
O769   O     0.46179   0.89442   0.25000   0.00000  Uiso   1.00
O770   O     0.53821   0.77225   0.24999   0.00000  Uiso   1.00
O771   O     0.53823   0.89441   0.25000   0.00000  Uiso   1.00
O772   O     0.46177   0.77226   0.25000   0.00000  Uiso   1.00
O773   O     0.43994   0.83334   0.31612   0.00000  Uiso   1.00
O774   O     0.56006   0.83333   0.18387   0.00000  Uiso   1.00
O775   O     0.51639   0.83333   0.31612   0.00000  Uiso   1.00
O776   O     0.48361   0.83334   0.18388   0.00000  Uiso   1.00
Zn777  Zn    0.44896   0.83334   0.25000   0.00000  Uiso   1.00
Zn778  Zn    0.55104   0.83333   0.25000   0.00000  Uiso   1.00
C779   C     0.38128   0.77020   0.04548   0.00000  Uiso   1.00
C780   C     0.39019   0.72702   0.02464   0.00000  Uiso   1.00
H781   H     0.39278   0.72751   0.48909   0.00000  Uiso   1.00
H782   H     0.42431   0.71446   0.02679   0.00000  Uiso   1.00
H783   H     0.35979   0.70620   0.04306   0.00000  Uiso   1.00
H784   H     0.37777   0.76749   0.08121   0.00000  Uiso   1.00
H785   H     0.34598   0.78224   0.04582   0.00000  Uiso   1.00
C786   C     0.60289   0.93231   0.47073   0.00000  Uiso   1.00
C787   C     0.59529   0.97026   0.00117   0.00000  Uiso   1.00
H788   H     0.59865   0.96233   0.03376   0.00000  Uiso   1.00
H789   H     0.62304   0.99412   0.48500   0.00000  Uiso   1.00
H790   H     0.55885   0.98335   0.00708   0.00000  Uiso   1.00
H791   H     0.63975   0.91975   0.46370   0.00000  Uiso   1.00
H792   H     0.60126   0.94226   0.43799   0.00000  Uiso   1.00
C793   C     0.45340   0.86473   0.11991   0.00000  Uiso   1.00
C794   C     0.43874   0.90227   0.09837   0.00000  Uiso   1.00
H795   H     0.40486   0.91578   0.12153   0.00000  Uiso   1.00
H796   H     0.46758   0.92639   0.09035   0.00000  Uiso   1.00
H797   H     0.43110   0.89361   0.06772   0.00000  Uiso   1.00
H798   H     0.42746   0.83899   0.12258   0.00000  Uiso   1.00
H799   H     0.44611   0.87518   0.15425   0.00000  Uiso   1.00
C800   C     0.53588   0.86418   0.38597   0.00000  Uiso   1.00
C801   C     0.53397   0.90755   0.36774   0.00000  Uiso   1.00
H802   H     0.52683   0.90581   0.33592   0.00000  Uiso   1.00
H803   H     0.50441   0.92622   0.39099   0.00000  Uiso   1.00
H804   H     0.56880   0.92399   0.36253   0.00000  Uiso   1.00
H805   H     0.56104   0.86379   0.40468   0.00000  Uiso   1.00
H806   H     0.55722   0.84194   0.36087   0.00000  Uiso   1.00
C807   C     0.63029   0.86097   0.10745   0.00000  Uiso   1.00
N808   N     0.66180   0.86124   0.12141   0.00000  Uiso   1.00
C809   C     0.37281   0.80441   0.39146   0.00000  Uiso   1.00
N810   N     0.34479   0.79417   0.37517   0.00000  Uiso   1.00
C811   C     0.57352   0.96340   0.27370   0.00000  Uiso   1.00
N812   N     0.60791   0.95102   0.27890   0.00000  Uiso   1.00
C813   C     0.46488   0.71131   0.18836   0.00000  Uiso   1.00
N814   N     0.45233   0.72891   0.16293   0.00000  Uiso   1.00
C815   C     0.53653   0.70967   0.31220   0.00000  Uiso   1.00
C816   C     0.59010   0.72222   0.29818   0.00000  Uiso   1.00
H817   H     0.60541   0.72898   0.26200   0.00000  Uiso   1.00
H818   H     0.59416   0.75017   0.31718   0.00000  Uiso   1.00
H819   H     0.61157   0.69724   0.30564   0.00000  Uiso   1.00
H820   H     0.51372   0.73724   0.32514   0.00000  Uiso   1.00
H821   H     0.52760   0.68858   0.34126   0.00000  Uiso   1.00
C822   C     0.45754   0.95651   0.18946   0.00000  Uiso   1.00
C823   C     0.40262   0.95350   0.21265   0.00000  Uiso   1.00
H824   H     0.38686   0.92995   0.19604   0.00000  Uiso   1.00
H825   H     0.39338   0.94469   0.24812   0.00000  Uiso   1.00
H826   H     0.38573   0.98374   0.21149   0.00000  Uiso   1.00
H827   H     0.46579   0.97199   0.15676   0.00000  Uiso   1.00
H828   H     0.47395   0.92594   0.18024   0.00000  Uiso   1.00
C829   C     0.64106   0.78283   0.18918   0.00000  Uiso   1.00
N830   N     0.63122   0.76152   0.16408   0.00000  Uiso   1.00
C831   C     0.35845   0.88287   0.31173   0.00000  Uiso   1.00
N832   N     0.36772   0.90350   0.33766   0.00000  Uiso   1.00
C833   C     0.83467   0.91355   0.24801   0.00000  Uiso   1.00
C834   C     0.83283   0.75350   0.25061   0.00000  Uiso   1.00
C835   C     0.79049   0.80780   0.04146   0.00000  Uiso   1.00
C836   C     0.85967   0.89438   0.47471   0.00000  Uiso   1.00
C837   C     0.75559   0.79979   0.02177   0.00000  Uiso   1.00
C838   C     0.89824   0.89936   0.49086   0.00000  Uiso   1.00
C839   C     0.86520   0.98039   0.26594   0.00000  Uiso   1.00
C840   C     0.81447   0.68878   0.21980   0.00000  Uiso   1.00
C841   C     0.85652   0.68870   0.27460   0.00000  Uiso   1.00
C842   C     0.81412   0.97913   0.21902   0.00000  Uiso   1.00
C843   C     0.83291   0.70959   0.24961   0.00000  Uiso   1.00
C844   C     0.83819   0.95811   0.24394   0.00000  Uiso   1.00
C845   C     0.98680   0.80911   0.22038   0.00000  Uiso   1.00
C846   C     0.67989   0.85738   0.27963   0.00000  Uiso   1.00
C847   C     0.70155   0.80940   0.22031   0.00000  Uiso   1.00
C848   C     0.96554   0.85751   0.27911   0.00000  Uiso   1.00
C849   C     0.80380   0.83418   0.33771   0.00000  Uiso   1.00
C850   C     0.86234   0.83720   0.16306   0.00000  Uiso   1.00
C851   C     0.78696   0.83406   0.38760   0.00000  Uiso   1.00
C852   C     0.87632   0.84885   0.11561   0.00000  Uiso   1.00
C853   C     0.72948   0.80823   0.45708   0.00000  Uiso   1.00
C854   C     0.93365   0.87730   0.04726   0.00000  Uiso   1.00
C855   C     0.74100   0.81713   0.41207   0.00000  Uiso   1.00
C856   C     0.92446   0.86072   0.08983   0.00000  Uiso   1.00
C857   C     0.81817   0.84794   0.41130   0.00000  Uiso   1.00
C858   C     0.83980   0.85109   0.09538   0.00000  Uiso   1.00
C859   C     0.80284   0.84305   0.45859   0.00000  Uiso   1.00
C860   C     0.85572   0.85179   0.04887   0.00000  Uiso   1.00
C861   C     0.76182   0.81738   0.47960   0.00000  Uiso   1.00
C862   C     0.89759   0.87533   0.02760   0.00000  Uiso   1.00
C863   C     0.82990   0.85861   0.48506   0.00000  Uiso   1.00
C864   C     0.82568   0.83875   0.02499   0.00000  Uiso   1.00
H865   H     0.69568   0.79220   0.47367   0.00000  Uiso   1.00
H866   H     0.96842   0.89172   0.03015   0.00000  Uiso   1.00
H867   H     0.78928   0.79057   0.07077   0.00000  Uiso   1.00
H868   H     0.85566   0.91668   0.45161   0.00000  Uiso   1.00
H869   H     0.72867   0.79063   0.19662   0.00000  Uiso   1.00
H870   H     0.93911   0.87699   0.30172   0.00000  Uiso   1.00
N871   N     0.71426   0.83334   0.25001   0.00000  Uiso   1.00
N872   N     0.95241   0.83332   0.24999   0.00000  Uiso   1.00
O873   O     0.79512   0.89442   0.25000   0.00000  Uiso   1.00
O874   O     0.87154   0.77225   0.24999   0.00000  Uiso   1.00
O875   O     0.87157   0.89441   0.25000   0.00000  Uiso   1.00
O876   O     0.79510   0.77226   0.25000   0.00000  Uiso   1.00
O877   O     0.77328   0.83334   0.31612   0.00000  Uiso   1.00
O878   O     0.89339   0.83333   0.18387   0.00000  Uiso   1.00
O879   O     0.84972   0.83333   0.31612   0.00000  Uiso   1.00
O880   O     0.81695   0.83334   0.18388   0.00000  Uiso   1.00
Zn881  Zn    0.78229   0.83334   0.25000   0.00000  Uiso   1.00
Zn882  Zn    0.88438   0.83333   0.25000   0.00000  Uiso   1.00
C883   C     0.71462   0.77020   0.04548   0.00000  Uiso   1.00
C884   C     0.72353   0.72702   0.02464   0.00000  Uiso   1.00
H885   H     0.72611   0.72751   0.48909   0.00000  Uiso   1.00
H886   H     0.75764   0.71446   0.02679   0.00000  Uiso   1.00
H887   H     0.69312   0.70620   0.04306   0.00000  Uiso   1.00
H888   H     0.71110   0.76749   0.08121   0.00000  Uiso   1.00
H889   H     0.67931   0.78224   0.04582   0.00000  Uiso   1.00
C890   C     0.93623   0.93231   0.47073   0.00000  Uiso   1.00
C891   C     0.92863   0.97026   0.00117   0.00000  Uiso   1.00
H892   H     0.93199   0.96233   0.03376   0.00000  Uiso   1.00
H893   H     0.95637   0.99412   0.48500   0.00000  Uiso   1.00
H894   H     0.89219   0.98335   0.00708   0.00000  Uiso   1.00
H895   H     0.97308   0.91975   0.46370   0.00000  Uiso   1.00
H896   H     0.93459   0.94226   0.43799   0.00000  Uiso   1.00
C897   C     0.78674   0.86473   0.11991   0.00000  Uiso   1.00
C898   C     0.77207   0.90227   0.09837   0.00000  Uiso   1.00
H899   H     0.73819   0.91578   0.12153   0.00000  Uiso   1.00
H900   H     0.80091   0.92639   0.09035   0.00000  Uiso   1.00
H901   H     0.76444   0.89361   0.06772   0.00000  Uiso   1.00
H902   H     0.76080   0.83899   0.12258   0.00000  Uiso   1.00
H903   H     0.77944   0.87518   0.15425   0.00000  Uiso   1.00
C904   C     0.86921   0.86418   0.38597   0.00000  Uiso   1.00
C905   C     0.86730   0.90755   0.36774   0.00000  Uiso   1.00
H906   H     0.86017   0.90581   0.33592   0.00000  Uiso   1.00
H907   H     0.83774   0.92622   0.39099   0.00000  Uiso   1.00
H908   H     0.90213   0.92399   0.36253   0.00000  Uiso   1.00
H909   H     0.89437   0.86379   0.40468   0.00000  Uiso   1.00
H910   H     0.89056   0.84194   0.36087   0.00000  Uiso   1.00
C911   C     0.96362   0.86097   0.10745   0.00000  Uiso   1.00
N912   N     0.99513   0.86124   0.12141   0.00000  Uiso   1.00
C913   C     0.70615   0.80441   0.39146   0.00000  Uiso   1.00
N914   N     0.67812   0.79417   0.37517   0.00000  Uiso   1.00
C915   C     0.90686   0.96340   0.27370   0.00000  Uiso   1.00
N916   N     0.94124   0.95102   0.27890   0.00000  Uiso   1.00
C917   C     0.79822   0.71131   0.18836   0.00000  Uiso   1.00
N918   N     0.78567   0.72891   0.16293   0.00000  Uiso   1.00
C919   C     0.86986   0.70967   0.31220   0.00000  Uiso   1.00
C920   C     0.92343   0.72222   0.29818   0.00000  Uiso   1.00
H921   H     0.93874   0.72898   0.26200   0.00000  Uiso   1.00
H922   H     0.92749   0.75017   0.31718   0.00000  Uiso   1.00
H923   H     0.94490   0.69724   0.30564   0.00000  Uiso   1.00
H924   H     0.84705   0.73724   0.32514   0.00000  Uiso   1.00
H925   H     0.86093   0.68858   0.34126   0.00000  Uiso   1.00
C926   C     0.79088   0.95651   0.18946   0.00000  Uiso   1.00
C927   C     0.73596   0.95350   0.21265   0.00000  Uiso   1.00
H928   H     0.72020   0.92995   0.19604   0.00000  Uiso   1.00
H929   H     0.72672   0.94469   0.24812   0.00000  Uiso   1.00
H930   H     0.71907   0.98374   0.21149   0.00000  Uiso   1.00
H931   H     0.79912   0.97199   0.15676   0.00000  Uiso   1.00
H932   H     0.80728   0.92594   0.18024   0.00000  Uiso   1.00
C933   C     0.97440   0.78283   0.18918   0.00000  Uiso   1.00
N934   N     0.96455   0.76152   0.16408   0.00000  Uiso   1.00
C935   C     0.69179   0.88287   0.31173   0.00000  Uiso   1.00
N936   N     0.70106   0.90350   0.33766   0.00000  Uiso   1.00
C937   C     0.16801   0.24688   0.74801   0.00000  Uiso   1.00
C938   C     0.16616   0.08684   0.75061   0.00000  Uiso   1.00
C939   C     0.12382   0.14113   0.54146   0.00000  Uiso   1.00
C940   C     0.19301   0.22771   0.97471   0.00000  Uiso   1.00
C941   C     0.08892   0.13312   0.52177   0.00000  Uiso   1.00
C942   C     0.23158   0.23270   0.99086   0.00000  Uiso   1.00
C943   C     0.19853   0.31373   0.76594   0.00000  Uiso   1.00
C944   C     0.14780   0.02211   0.71980   0.00000  Uiso   1.00
C945   C     0.18985   0.02203   0.77460   0.00000  Uiso   1.00
C946   C     0.14745   0.31246   0.71902   0.00000  Uiso   1.00
C947   C     0.16624   0.04292   0.74961   0.00000  Uiso   1.00
C948   C     0.17152   0.29144   0.74394   0.00000  Uiso   1.00
C949   C     0.32014   0.14244   0.72038   0.00000  Uiso   1.00
C950   C     0.01322   0.19072   0.77963   0.00000  Uiso   1.00
C951   C     0.03488   0.14274   0.72031   0.00000  Uiso   1.00
C952   C     0.29887   0.19084   0.77911   0.00000  Uiso   1.00
C953   C     0.13713   0.16751   0.83771   0.00000  Uiso   1.00
C954   C     0.19568   0.17053   0.66306   0.00000  Uiso   1.00
C955   C     0.12030   0.16739   0.88760   0.00000  Uiso   1.00
C956   C     0.20965   0.18219   0.61561   0.00000  Uiso   1.00
C957   C     0.06282   0.14156   0.95708   0.00000  Uiso   1.00
C958   C     0.26698   0.21063   0.54726   0.00000  Uiso   1.00
C959   C     0.07433   0.15047   0.91207   0.00000  Uiso   1.00
C960   C     0.25779   0.19406   0.58983   0.00000  Uiso   1.00
C961   C     0.15150   0.18127   0.91130   0.00000  Uiso   1.00
C962   C     0.17314   0.18443   0.59538   0.00000  Uiso   1.00
C963   C     0.13618   0.17639   0.95859   0.00000  Uiso   1.00
C964   C     0.18905   0.18513   0.54887   0.00000  Uiso   1.00
C965   C     0.09515   0.15072   0.97960   0.00000  Uiso   1.00
C966   C     0.23093   0.20866   0.52760   0.00000  Uiso   1.00
C967   C     0.16324   0.19194   0.98506   0.00000  Uiso   1.00
C968   C     0.15901   0.17208   0.52499   0.00000  Uiso   1.00
H969   H     0.02901   0.12554   0.97367   0.00000  Uiso   1.00
H970   H     0.30175   0.22505   0.53015   0.00000  Uiso   1.00
H971   H     0.12261   0.12390   0.57077   0.00000  Uiso   1.00
H972   H     0.18900   0.25002   0.95161   0.00000  Uiso   1.00
H973   H     0.06200   0.12397   0.69662   0.00000  Uiso   1.00
H974   H     0.27244   0.21032   0.80172   0.00000  Uiso   1.00
N975   N     0.04759   0.16668   0.75001   0.00000  Uiso   1.00
N976   N     0.28574   0.16666   0.74999   0.00000  Uiso   1.00
O977   O     0.12846   0.22775   0.75000   0.00000  Uiso   1.00
O978   O     0.20488   0.10558   0.74999   0.00000  Uiso   1.00
O979   O     0.20490   0.22774   0.75000   0.00000  Uiso   1.00
O980   O     0.12843   0.10559   0.75000   0.00000  Uiso   1.00
O981   O     0.10661   0.16667   0.81612   0.00000  Uiso   1.00
O982   O     0.22672   0.16666   0.68387   0.00000  Uiso   1.00
O983   O     0.18305   0.16666   0.81612   0.00000  Uiso   1.00
O984   O     0.15028   0.16667   0.68388   0.00000  Uiso   1.00
Zn985  Zn    0.11562   0.16667   0.75000   0.00000  Uiso   1.00
Zn986  Zn    0.21771   0.16666   0.75000   0.00000  Uiso   1.00
C987   C     0.04795   0.10353   0.54548   0.00000  Uiso   1.00
C988   C     0.05686   0.06036   0.52464   0.00000  Uiso   1.00
H989   H     0.05945   0.06084   0.98909   0.00000  Uiso   1.00
H990   H     0.09097   0.04779   0.52679   0.00000  Uiso   1.00
H991   H     0.02645   0.03953   0.54306   0.00000  Uiso   1.00
H992   H     0.04443   0.10083   0.58121   0.00000  Uiso   1.00
H993   H     0.01265   0.11557   0.54582   0.00000  Uiso   1.00
C994   C     0.26956   0.26564   0.97073   0.00000  Uiso   1.00
C995   C     0.26196   0.30359   0.50117   0.00000  Uiso   1.00
H996   H     0.26532   0.29567   0.53376   0.00000  Uiso   1.00
H997   H     0.28971   0.32745   0.98500   0.00000  Uiso   1.00
H998   H     0.22552   0.31668   0.50708   0.00000  Uiso   1.00
H999   H     0.30642   0.25309   0.96370   0.00000  Uiso   1.00
H1000  H     0.26792   0.27560   0.93799   0.00000  Uiso   1.00
C1001  C     0.12007   0.19806   0.61991   0.00000  Uiso   1.00
C1002  C     0.10541   0.23560   0.59837   0.00000  Uiso   1.00
H1003  H     0.07153   0.24912   0.62153   0.00000  Uiso   1.00
H1004  H     0.13425   0.25972   0.59035   0.00000  Uiso   1.00
H1005  H     0.09777   0.22694   0.56772   0.00000  Uiso   1.00
H1006  H     0.09413   0.17232   0.62258   0.00000  Uiso   1.00
H1007  H     0.11277   0.20851   0.65425   0.00000  Uiso   1.00
C1008  C     0.20254   0.19752   0.88597   0.00000  Uiso   1.00
C1009  C     0.20063   0.24088   0.86774   0.00000  Uiso   1.00
H1010  H     0.19350   0.23914   0.83592   0.00000  Uiso   1.00
H1011  H     0.17108   0.25955   0.89099   0.00000  Uiso   1.00
H1012  H     0.23546   0.25732   0.86253   0.00000  Uiso   1.00
H1013  H     0.22771   0.19712   0.90468   0.00000  Uiso   1.00
H1014  H     0.22389   0.17527   0.86087   0.00000  Uiso   1.00
C1015  C     0.29696   0.19430   0.60745   0.00000  Uiso   1.00
N1016  N     0.32847   0.19457   0.62141   0.00000  Uiso   1.00
C1017  C     0.03948   0.13775   0.89146   0.00000  Uiso   1.00
N1018  N     0.01145   0.12750   0.87517   0.00000  Uiso   1.00
C1019  C     0.24019   0.29673   0.77370   0.00000  Uiso   1.00
N1020  N     0.27457   0.28436   0.77890   0.00000  Uiso   1.00
C1021  C     0.13155   0.04464   0.68836   0.00000  Uiso   1.00
N1022  N     0.11900   0.06225   0.66293   0.00000  Uiso   1.00
C1023  C     0.20319   0.04301   0.81220   0.00000  Uiso   1.00
C1024  C     0.25677   0.05556   0.79818   0.00000  Uiso   1.00
H1025  H     0.27208   0.06232   0.76200   0.00000  Uiso   1.00
H1026  H     0.26082   0.08351   0.81718   0.00000  Uiso   1.00
H1027  H     0.27823   0.03058   0.80564   0.00000  Uiso   1.00
H1028  H     0.18038   0.07058   0.82514   0.00000  Uiso   1.00
H1029  H     0.19426   0.02191   0.84126   0.00000  Uiso   1.00
C1030  C     0.12421   0.28984   0.68946   0.00000  Uiso   1.00
C1031  C     0.06929   0.28683   0.71265   0.00000  Uiso   1.00
H1032  H     0.05353   0.26328   0.69604   0.00000  Uiso   1.00
H1033  H     0.06005   0.27802   0.74812   0.00000  Uiso   1.00
H1034  H     0.05240   0.31707   0.71149   0.00000  Uiso   1.00
H1035  H     0.13246   0.30532   0.65676   0.00000  Uiso   1.00
H1036  H     0.14062   0.25927   0.68024   0.00000  Uiso   1.00
C1037  C     0.30773   0.11616   0.68918   0.00000  Uiso   1.00
N1038  N     0.29788   0.09485   0.66408   0.00000  Uiso   1.00
C1039  C     0.02512   0.21620   0.81173   0.00000  Uiso   1.00
N1040  N     0.03439   0.23683   0.83766   0.00000  Uiso   1.00
C1041  C     0.50134   0.24688   0.74801   0.00000  Uiso   1.00
C1042  C     0.49950   0.08684   0.75061   0.00000  Uiso   1.00
C1043  C     0.45716   0.14113   0.54146   0.00000  Uiso   1.00
C1044  C     0.52634   0.22771   0.97471   0.00000  Uiso   1.00
C1045  C     0.42226   0.13312   0.52177   0.00000  Uiso   1.00
C1046  C     0.56491   0.23270   0.99086   0.00000  Uiso   1.00
C1047  C     0.53187   0.31373   0.76594   0.00000  Uiso   1.00
C1048  C     0.48113   0.02211   0.71980   0.00000  Uiso   1.00
C1049  C     0.52318   0.02203   0.77460   0.00000  Uiso   1.00
C1050  C     0.48078   0.31246   0.71902   0.00000  Uiso   1.00
C1051  C     0.49958   0.04292   0.74961   0.00000  Uiso   1.00
C1052  C     0.50486   0.29144   0.74394   0.00000  Uiso   1.00
C1053  C     0.65347   0.14244   0.72038   0.00000  Uiso   1.00
C1054  C     0.34655   0.19072   0.77963   0.00000  Uiso   1.00
C1055  C     0.36821   0.14274   0.72031   0.00000  Uiso   1.00
C1056  C     0.63220   0.19084   0.77911   0.00000  Uiso   1.00
C1057  C     0.47047   0.16751   0.83771   0.00000  Uiso   1.00
C1058  C     0.52901   0.17053   0.66306   0.00000  Uiso   1.00
C1059  C     0.45363   0.16739   0.88760   0.00000  Uiso   1.00
C1060  C     0.54299   0.18219   0.61561   0.00000  Uiso   1.00
C1061  C     0.39615   0.14156   0.95708   0.00000  Uiso   1.00
C1062  C     0.60031   0.21063   0.54726   0.00000  Uiso   1.00
C1063  C     0.40766   0.15047   0.91207   0.00000  Uiso   1.00
C1064  C     0.59113   0.19406   0.58983   0.00000  Uiso   1.00
C1065  C     0.48483   0.18127   0.91130   0.00000  Uiso   1.00
C1066  C     0.50647   0.18443   0.59538   0.00000  Uiso   1.00
C1067  C     0.46951   0.17639   0.95859   0.00000  Uiso   1.00
C1068  C     0.52238   0.18513   0.54887   0.00000  Uiso   1.00
C1069  C     0.42849   0.15072   0.97960   0.00000  Uiso   1.00
C1070  C     0.56426   0.20866   0.52760   0.00000  Uiso   1.00
C1071  C     0.49657   0.19194   0.98506   0.00000  Uiso   1.00
C1072  C     0.49235   0.17208   0.52499   0.00000  Uiso   1.00
H1073  H     0.36234   0.12554   0.97367   0.00000  Uiso   1.00
H1074  H     0.63508   0.22505   0.53015   0.00000  Uiso   1.00
H1075  H     0.45595   0.12390   0.57077   0.00000  Uiso   1.00
H1076  H     0.52233   0.25002   0.95161   0.00000  Uiso   1.00
H1077  H     0.39534   0.12397   0.69662   0.00000  Uiso   1.00
H1078  H     0.60578   0.21032   0.80172   0.00000  Uiso   1.00
N1079  N     0.38093   0.16668   0.75001   0.00000  Uiso   1.00
N1080  N     0.61907   0.16666   0.74999   0.00000  Uiso   1.00
O1081  O     0.46179   0.22775   0.75000   0.00000  Uiso   1.00
O1082  O     0.53821   0.10558   0.74999   0.00000  Uiso   1.00
O1083  O     0.53823   0.22774   0.75000   0.00000  Uiso   1.00
O1084  O     0.46177   0.10559   0.75000   0.00000  Uiso   1.00
O1085  O     0.43994   0.16667   0.81612   0.00000  Uiso   1.00
O1086  O     0.56006   0.16666   0.68387   0.00000  Uiso   1.00
O1087  O     0.51639   0.16666   0.81612   0.00000  Uiso   1.00
O1088  O     0.48361   0.16667   0.68388   0.00000  Uiso   1.00
Zn1089 Zn    0.44896   0.16667   0.75000   0.00000  Uiso   1.00
Zn1090 Zn    0.55104   0.16666   0.75000   0.00000  Uiso   1.00
C1091  C     0.38128   0.10353   0.54548   0.00000  Uiso   1.00
C1092  C     0.39019   0.06036   0.52464   0.00000  Uiso   1.00
H1093  H     0.39278   0.06084   0.98909   0.00000  Uiso   1.00
H1094  H     0.42431   0.04779   0.52679   0.00000  Uiso   1.00
H1095  H     0.35979   0.03953   0.54306   0.00000  Uiso   1.00
H1096  H     0.37777   0.10083   0.58121   0.00000  Uiso   1.00
H1097  H     0.34598   0.11557   0.54582   0.00000  Uiso   1.00
C1098  C     0.60289   0.26564   0.97073   0.00000  Uiso   1.00
C1099  C     0.59529   0.30359   0.50117   0.00000  Uiso   1.00
H1100  H     0.59865   0.29567   0.53376   0.00000  Uiso   1.00
H1101  H     0.62304   0.32745   0.98500   0.00000  Uiso   1.00
H1102  H     0.55885   0.31668   0.50708   0.00000  Uiso   1.00
H1103  H     0.63975   0.25309   0.96370   0.00000  Uiso   1.00
H1104  H     0.60126   0.27560   0.93799   0.00000  Uiso   1.00
C1105  C     0.45340   0.19806   0.61991   0.00000  Uiso   1.00
C1106  C     0.43874   0.23560   0.59837   0.00000  Uiso   1.00
H1107  H     0.40486   0.24912   0.62153   0.00000  Uiso   1.00
H1108  H     0.46758   0.25972   0.59035   0.00000  Uiso   1.00
H1109  H     0.43110   0.22694   0.56772   0.00000  Uiso   1.00
H1110  H     0.42746   0.17232   0.62258   0.00000  Uiso   1.00
H1111  H     0.44611   0.20851   0.65425   0.00000  Uiso   1.00
C1112  C     0.53588   0.19752   0.88597   0.00000  Uiso   1.00
C1113  C     0.53397   0.24088   0.86774   0.00000  Uiso   1.00
H1114  H     0.52683   0.23914   0.83592   0.00000  Uiso   1.00
H1115  H     0.50441   0.25955   0.89099   0.00000  Uiso   1.00
H1116  H     0.56880   0.25732   0.86253   0.00000  Uiso   1.00
H1117  H     0.56104   0.19712   0.90468   0.00000  Uiso   1.00
H1118  H     0.55722   0.17527   0.86087   0.00000  Uiso   1.00
C1119  C     0.63029   0.19430   0.60745   0.00000  Uiso   1.00
N1120  N     0.66180   0.19457   0.62141   0.00000  Uiso   1.00
C1121  C     0.37281   0.13775   0.89146   0.00000  Uiso   1.00
N1122  N     0.34479   0.12750   0.87517   0.00000  Uiso   1.00
C1123  C     0.57352   0.29673   0.77370   0.00000  Uiso   1.00
N1124  N     0.60791   0.28436   0.77890   0.00000  Uiso   1.00
C1125  C     0.46488   0.04464   0.68836   0.00000  Uiso   1.00
N1126  N     0.45233   0.06225   0.66293   0.00000  Uiso   1.00
C1127  C     0.53653   0.04301   0.81220   0.00000  Uiso   1.00
C1128  C     0.59010   0.05556   0.79818   0.00000  Uiso   1.00
H1129  H     0.60541   0.06232   0.76200   0.00000  Uiso   1.00
H1130  H     0.59416   0.08351   0.81718   0.00000  Uiso   1.00
H1131  H     0.61157   0.03058   0.80564   0.00000  Uiso   1.00
H1132  H     0.51372   0.07058   0.82514   0.00000  Uiso   1.00
H1133  H     0.52760   0.02191   0.84126   0.00000  Uiso   1.00
C1134  C     0.45754   0.28984   0.68946   0.00000  Uiso   1.00
C1135  C     0.40262   0.28683   0.71265   0.00000  Uiso   1.00
H1136  H     0.38686   0.26328   0.69604   0.00000  Uiso   1.00
H1137  H     0.39338   0.27802   0.74812   0.00000  Uiso   1.00
H1138  H     0.38573   0.31707   0.71149   0.00000  Uiso   1.00
H1139  H     0.46579   0.30532   0.65676   0.00000  Uiso   1.00
H1140  H     0.47395   0.25927   0.68024   0.00000  Uiso   1.00
C1141  C     0.64106   0.11616   0.68918   0.00000  Uiso   1.00
N1142  N     0.63122   0.09485   0.66408   0.00000  Uiso   1.00
C1143  C     0.35845   0.21620   0.81173   0.00000  Uiso   1.00
N1144  N     0.36772   0.23683   0.83766   0.00000  Uiso   1.00
C1145  C     0.83467   0.24688   0.74801   0.00000  Uiso   1.00
C1146  C     0.83283   0.08684   0.75061   0.00000  Uiso   1.00
C1147  C     0.79049   0.14113   0.54146   0.00000  Uiso   1.00
C1148  C     0.85967   0.22771   0.97471   0.00000  Uiso   1.00
C1149  C     0.75559   0.13312   0.52177   0.00000  Uiso   1.00
C1150  C     0.89824   0.23270   0.99086   0.00000  Uiso   1.00
C1151  C     0.86520   0.31373   0.76594   0.00000  Uiso   1.00
C1152  C     0.81447   0.02211   0.71980   0.00000  Uiso   1.00
C1153  C     0.85652   0.02203   0.77460   0.00000  Uiso   1.00
C1154  C     0.81412   0.31246   0.71902   0.00000  Uiso   1.00
C1155  C     0.83291   0.04292   0.74961   0.00000  Uiso   1.00
C1156  C     0.83819   0.29144   0.74394   0.00000  Uiso   1.00
C1157  C     0.98680   0.14244   0.72038   0.00000  Uiso   1.00
C1158  C     0.67989   0.19072   0.77963   0.00000  Uiso   1.00
C1159  C     0.70155   0.14274   0.72031   0.00000  Uiso   1.00
C1160  C     0.96554   0.19084   0.77911   0.00000  Uiso   1.00
C1161  C     0.80380   0.16751   0.83771   0.00000  Uiso   1.00
C1162  C     0.86234   0.17053   0.66306   0.00000  Uiso   1.00
C1163  C     0.78696   0.16739   0.88760   0.00000  Uiso   1.00
C1164  C     0.87632   0.18219   0.61561   0.00000  Uiso   1.00
C1165  C     0.72948   0.14156   0.95708   0.00000  Uiso   1.00
C1166  C     0.93365   0.21063   0.54726   0.00000  Uiso   1.00
C1167  C     0.74100   0.15047   0.91207   0.00000  Uiso   1.00
C1168  C     0.92446   0.19406   0.58983   0.00000  Uiso   1.00
C1169  C     0.81817   0.18127   0.91130   0.00000  Uiso   1.00
C1170  C     0.83980   0.18443   0.59538   0.00000  Uiso   1.00
C1171  C     0.80284   0.17639   0.95859   0.00000  Uiso   1.00
C1172  C     0.85572   0.18513   0.54887   0.00000  Uiso   1.00
C1173  C     0.76182   0.15072   0.97960   0.00000  Uiso   1.00
C1174  C     0.89759   0.20866   0.52760   0.00000  Uiso   1.00
C1175  C     0.82990   0.19194   0.98506   0.00000  Uiso   1.00
C1176  C     0.82568   0.17208   0.52499   0.00000  Uiso   1.00
H1177  H     0.69568   0.12554   0.97367   0.00000  Uiso   1.00
H1178  H     0.96842   0.22505   0.53015   0.00000  Uiso   1.00
H1179  H     0.78928   0.12390   0.57077   0.00000  Uiso   1.00
H1180  H     0.85566   0.25002   0.95161   0.00000  Uiso   1.00
H1181  H     0.72867   0.12397   0.69662   0.00000  Uiso   1.00
H1182  H     0.93911   0.21032   0.80172   0.00000  Uiso   1.00
N1183  N     0.71426   0.16668   0.75001   0.00000  Uiso   1.00
N1184  N     0.95241   0.16666   0.74999   0.00000  Uiso   1.00
O1185  O     0.79512   0.22775   0.75000   0.00000  Uiso   1.00
O1186  O     0.87154   0.10558   0.74999   0.00000  Uiso   1.00
O1187  O     0.87157   0.22774   0.75000   0.00000  Uiso   1.00
O1188  O     0.79510   0.10559   0.75000   0.00000  Uiso   1.00
O1189  O     0.77328   0.16667   0.81612   0.00000  Uiso   1.00
O1190  O     0.89339   0.16666   0.68387   0.00000  Uiso   1.00
O1191  O     0.84972   0.16666   0.81612   0.00000  Uiso   1.00
O1192  O     0.81695   0.16667   0.68388   0.00000  Uiso   1.00
Zn1193 Zn    0.78229   0.16667   0.75000   0.00000  Uiso   1.00
Zn1194 Zn    0.88438   0.16666   0.75000   0.00000  Uiso   1.00
C1195  C     0.71462   0.10353   0.54548   0.00000  Uiso   1.00
C1196  C     0.72353   0.06036   0.52464   0.00000  Uiso   1.00
H1197  H     0.72611   0.06084   0.98909   0.00000  Uiso   1.00
H1198  H     0.75764   0.04779   0.52679   0.00000  Uiso   1.00
H1199  H     0.69312   0.03953   0.54306   0.00000  Uiso   1.00
H1200  H     0.71110   0.10083   0.58121   0.00000  Uiso   1.00
H1201  H     0.67931   0.11557   0.54582   0.00000  Uiso   1.00
C1202  C     0.93623   0.26564   0.97073   0.00000  Uiso   1.00
C1203  C     0.92863   0.30359   0.50117   0.00000  Uiso   1.00
H1204  H     0.93199   0.29567   0.53376   0.00000  Uiso   1.00
H1205  H     0.95637   0.32745   0.98500   0.00000  Uiso   1.00
H1206  H     0.89219   0.31668   0.50708   0.00000  Uiso   1.00
H1207  H     0.97308   0.25309   0.96370   0.00000  Uiso   1.00
H1208  H     0.93459   0.27560   0.93799   0.00000  Uiso   1.00
C1209  C     0.78674   0.19806   0.61991   0.00000  Uiso   1.00
C1210  C     0.77207   0.23560   0.59837   0.00000  Uiso   1.00
H1211  H     0.73819   0.24912   0.62153   0.00000  Uiso   1.00
H1212  H     0.80091   0.25972   0.59035   0.00000  Uiso   1.00
H1213  H     0.76444   0.22694   0.56772   0.00000  Uiso   1.00
H1214  H     0.76080   0.17232   0.62258   0.00000  Uiso   1.00
H1215  H     0.77944   0.20851   0.65425   0.00000  Uiso   1.00
C1216  C     0.86921   0.19752   0.88597   0.00000  Uiso   1.00
C1217  C     0.86730   0.24088   0.86774   0.00000  Uiso   1.00
H1218  H     0.86017   0.23914   0.83592   0.00000  Uiso   1.00
H1219  H     0.83774   0.25955   0.89099   0.00000  Uiso   1.00
H1220  H     0.90213   0.25732   0.86253   0.00000  Uiso   1.00
H1221  H     0.89437   0.19712   0.90468   0.00000  Uiso   1.00
H1222  H     0.89056   0.17527   0.86087   0.00000  Uiso   1.00
C1223  C     0.96362   0.19430   0.60745   0.00000  Uiso   1.00
N1224  N     0.99513   0.19457   0.62141   0.00000  Uiso   1.00
C1225  C     0.70615   0.13775   0.89146   0.00000  Uiso   1.00
N1226  N     0.67812   0.12750   0.87517   0.00000  Uiso   1.00
C1227  C     0.90686   0.29673   0.77370   0.00000  Uiso   1.00
N1228  N     0.94124   0.28436   0.77890   0.00000  Uiso   1.00
C1229  C     0.79822   0.04464   0.68836   0.00000  Uiso   1.00
N1230  N     0.78567   0.06225   0.66293   0.00000  Uiso   1.00
C1231  C     0.86986   0.04301   0.81220   0.00000  Uiso   1.00
C1232  C     0.92343   0.05556   0.79818   0.00000  Uiso   1.00
H1233  H     0.93874   0.06232   0.76200   0.00000  Uiso   1.00
H1234  H     0.92749   0.08351   0.81718   0.00000  Uiso   1.00
H1235  H     0.94490   0.03058   0.80564   0.00000  Uiso   1.00
H1236  H     0.84705   0.07058   0.82514   0.00000  Uiso   1.00
H1237  H     0.86093   0.02191   0.84126   0.00000  Uiso   1.00
C1238  C     0.79088   0.28984   0.68946   0.00000  Uiso   1.00
C1239  C     0.73596   0.28683   0.71265   0.00000  Uiso   1.00
H1240  H     0.72020   0.26328   0.69604   0.00000  Uiso   1.00
H1241  H     0.72672   0.27802   0.74812   0.00000  Uiso   1.00
H1242  H     0.71907   0.31707   0.71149   0.00000  Uiso   1.00
H1243  H     0.79912   0.30532   0.65676   0.00000  Uiso   1.00
H1244  H     0.80728   0.25927   0.68024   0.00000  Uiso   1.00
C1245  C     0.97440   0.11616   0.68918   0.00000  Uiso   1.00
N1246  N     0.96455   0.09485   0.66408   0.00000  Uiso   1.00
C1247  C     0.69179   0.21620   0.81173   0.00000  Uiso   1.00
N1248  N     0.70106   0.23683   0.83766   0.00000  Uiso   1.00
C1249  C     0.16801   0.58022   0.74801   0.00000  Uiso   1.00
C1250  C     0.16616   0.42017   0.75061   0.00000  Uiso   1.00
C1251  C     0.12382   0.47447   0.54146   0.00000  Uiso   1.00
C1252  C     0.19301   0.56104   0.97471   0.00000  Uiso   1.00
C1253  C     0.08892   0.46645   0.52177   0.00000  Uiso   1.00
C1254  C     0.23158   0.56603   0.99086   0.00000  Uiso   1.00
C1255  C     0.19853   0.64706   0.76594   0.00000  Uiso   1.00
C1256  C     0.14780   0.35545   0.71980   0.00000  Uiso   1.00
C1257  C     0.18985   0.35537   0.77460   0.00000  Uiso   1.00
C1258  C     0.14745   0.64579   0.71902   0.00000  Uiso   1.00
C1259  C     0.16624   0.37626   0.74961   0.00000  Uiso   1.00
C1260  C     0.17152   0.62478   0.74394   0.00000  Uiso   1.00
C1261  C     0.32014   0.47578   0.72038   0.00000  Uiso   1.00
C1262  C     0.01322   0.52405   0.77963   0.00000  Uiso   1.00
C1263  C     0.03488   0.47607   0.72031   0.00000  Uiso   1.00
C1264  C     0.29887   0.52418   0.77911   0.00000  Uiso   1.00
C1265  C     0.13713   0.50085   0.83771   0.00000  Uiso   1.00
C1266  C     0.19568   0.50387   0.66306   0.00000  Uiso   1.00
C1267  C     0.12030   0.50073   0.88760   0.00000  Uiso   1.00
C1268  C     0.20965   0.51552   0.61561   0.00000  Uiso   1.00
C1269  C     0.06282   0.47489   0.95708   0.00000  Uiso   1.00
C1270  C     0.26698   0.54396   0.54726   0.00000  Uiso   1.00
C1271  C     0.07433   0.48380   0.91207   0.00000  Uiso   1.00
C1272  C     0.25779   0.52739   0.58983   0.00000  Uiso   1.00
C1273  C     0.15150   0.51461   0.91130   0.00000  Uiso   1.00
C1274  C     0.17314   0.51776   0.59538   0.00000  Uiso   1.00
C1275  C     0.13618   0.50972   0.95859   0.00000  Uiso   1.00
C1276  C     0.18905   0.51846   0.54887   0.00000  Uiso   1.00
C1277  C     0.09515   0.48405   0.97960   0.00000  Uiso   1.00
C1278  C     0.23093   0.54200   0.52760   0.00000  Uiso   1.00
C1279  C     0.16324   0.52527   0.98506   0.00000  Uiso   1.00
C1280  C     0.15901   0.50541   0.52499   0.00000  Uiso   1.00
H1281  H     0.02901   0.45887   0.97367   0.00000  Uiso   1.00
H1282  H     0.30175   0.55838   0.53015   0.00000  Uiso   1.00
H1283  H     0.12261   0.45723   0.57077   0.00000  Uiso   1.00
H1284  H     0.18900   0.58335   0.95161   0.00000  Uiso   1.00
H1285  H     0.06200   0.45730   0.69662   0.00000  Uiso   1.00
H1286  H     0.27244   0.54365   0.80172   0.00000  Uiso   1.00
N1287  N     0.04759   0.50001   0.75001   0.00000  Uiso   1.00
N1288  N     0.28574   0.49999   0.74999   0.00000  Uiso   1.00
O1289  O     0.12846   0.56108   0.75000   0.00000  Uiso   1.00
O1290  O     0.20488   0.43892   0.74999   0.00000  Uiso   1.00
O1291  O     0.20490   0.56107   0.75000   0.00000  Uiso   1.00
O1292  O     0.12843   0.43893   0.75000   0.00000  Uiso   1.00
O1293  O     0.10661   0.50001   0.81612   0.00000  Uiso   1.00
O1294  O     0.22672   0.49999   0.68387   0.00000  Uiso   1.00
O1295  O     0.18305   0.50000   0.81612   0.00000  Uiso   1.00
O1296  O     0.15028   0.50000   0.68388   0.00000  Uiso   1.00
Zn1297 Zn    0.11562   0.50001   0.75000   0.00000  Uiso   1.00
Zn1298 Zn    0.21771   0.49999   0.75000   0.00000  Uiso   1.00
C1299  C     0.04795   0.43686   0.54548   0.00000  Uiso   1.00
C1300  C     0.05686   0.39369   0.52464   0.00000  Uiso   1.00
H1301  H     0.05945   0.39418   0.98909   0.00000  Uiso   1.00
H1302  H     0.09097   0.38113   0.52679   0.00000  Uiso   1.00
H1303  H     0.02645   0.37286   0.54306   0.00000  Uiso   1.00
H1304  H     0.04443   0.43416   0.58121   0.00000  Uiso   1.00
H1305  H     0.01265   0.44890   0.54582   0.00000  Uiso   1.00
C1306  C     0.26956   0.59897   0.97073   0.00000  Uiso   1.00
C1307  C     0.26196   0.63693   0.50117   0.00000  Uiso   1.00
H1308  H     0.26532   0.62900   0.53376   0.00000  Uiso   1.00
H1309  H     0.28971   0.66079   0.98500   0.00000  Uiso   1.00
H1310  H     0.22552   0.65001   0.50708   0.00000  Uiso   1.00
H1311  H     0.30642   0.58642   0.96370   0.00000  Uiso   1.00
H1312  H     0.26792   0.60893   0.93799   0.00000  Uiso   1.00
C1313  C     0.12007   0.53140   0.61991   0.00000  Uiso   1.00
C1314  C     0.10541   0.56893   0.59837   0.00000  Uiso   1.00
H1315  H     0.07153   0.58245   0.62153   0.00000  Uiso   1.00
H1316  H     0.13425   0.59306   0.59035   0.00000  Uiso   1.00
H1317  H     0.09777   0.56028   0.56772   0.00000  Uiso   1.00
H1318  H     0.09413   0.50566   0.62258   0.00000  Uiso   1.00
H1319  H     0.11277   0.54185   0.65425   0.00000  Uiso   1.00
C1320  C     0.20254   0.53085   0.88597   0.00000  Uiso   1.00
C1321  C     0.20063   0.57421   0.86774   0.00000  Uiso   1.00
H1322  H     0.19350   0.57248   0.83592   0.00000  Uiso   1.00
H1323  H     0.17108   0.59289   0.89099   0.00000  Uiso   1.00
H1324  H     0.23546   0.59066   0.86253   0.00000  Uiso   1.00
H1325  H     0.22771   0.53046   0.90468   0.00000  Uiso   1.00
H1326  H     0.22389   0.50860   0.86087   0.00000  Uiso   1.00
C1327  C     0.29696   0.52764   0.60745   0.00000  Uiso   1.00
N1328  N     0.32847   0.52790   0.62141   0.00000  Uiso   1.00
C1329  C     0.03948   0.47108   0.89146   0.00000  Uiso   1.00
N1330  N     0.01145   0.46083   0.87517   0.00000  Uiso   1.00
C1331  C     0.24019   0.63007   0.77370   0.00000  Uiso   1.00
N1332  N     0.27457   0.61769   0.77890   0.00000  Uiso   1.00
C1333  C     0.13155   0.37798   0.68836   0.00000  Uiso   1.00
N1334  N     0.11900   0.39558   0.66293   0.00000  Uiso   1.00
C1335  C     0.20319   0.37634   0.81220   0.00000  Uiso   1.00
C1336  C     0.25677   0.38889   0.79818   0.00000  Uiso   1.00
H1337  H     0.27208   0.39565   0.76200   0.00000  Uiso   1.00
H1338  H     0.26082   0.41684   0.81718   0.00000  Uiso   1.00
H1339  H     0.27823   0.36391   0.80564   0.00000  Uiso   1.00
H1340  H     0.18038   0.40391   0.82514   0.00000  Uiso   1.00
H1341  H     0.19426   0.35525   0.84126   0.00000  Uiso   1.00
C1342  C     0.12421   0.62318   0.68946   0.00000  Uiso   1.00
C1343  C     0.06929   0.62017   0.71265   0.00000  Uiso   1.00
H1344  H     0.05353   0.59662   0.69604   0.00000  Uiso   1.00
H1345  H     0.06005   0.61135   0.74812   0.00000  Uiso   1.00
H1346  H     0.05240   0.65041   0.71149   0.00000  Uiso   1.00
H1347  H     0.13246   0.63866   0.65676   0.00000  Uiso   1.00
H1348  H     0.14062   0.59261   0.68024   0.00000  Uiso   1.00
C1349  C     0.30773   0.44949   0.68918   0.00000  Uiso   1.00
N1350  N     0.29788   0.42819   0.66408   0.00000  Uiso   1.00
C1351  C     0.02512   0.54954   0.81173   0.00000  Uiso   1.00
N1352  N     0.03439   0.57017   0.83766   0.00000  Uiso   1.00
C1353  C     0.50134   0.58022   0.74801   0.00000  Uiso   1.00
C1354  C     0.49950   0.42017   0.75061   0.00000  Uiso   1.00
C1355  C     0.45716   0.47447   0.54146   0.00000  Uiso   1.00
C1356  C     0.52634   0.56104   0.97471   0.00000  Uiso   1.00
C1357  C     0.42226   0.46645   0.52177   0.00000  Uiso   1.00
C1358  C     0.56491   0.56603   0.99086   0.00000  Uiso   1.00
C1359  C     0.53187   0.64706   0.76594   0.00000  Uiso   1.00
C1360  C     0.48113   0.35545   0.71980   0.00000  Uiso   1.00
C1361  C     0.52318   0.35537   0.77460   0.00000  Uiso   1.00
C1362  C     0.48078   0.64579   0.71902   0.00000  Uiso   1.00
C1363  C     0.49958   0.37626   0.74961   0.00000  Uiso   1.00
C1364  C     0.50486   0.62478   0.74394   0.00000  Uiso   1.00
C1365  C     0.65347   0.47578   0.72038   0.00000  Uiso   1.00
C1366  C     0.34655   0.52405   0.77963   0.00000  Uiso   1.00
C1367  C     0.36821   0.47607   0.72031   0.00000  Uiso   1.00
C1368  C     0.63220   0.52418   0.77911   0.00000  Uiso   1.00
C1369  C     0.47047   0.50085   0.83771   0.00000  Uiso   1.00
C1370  C     0.52901   0.50387   0.66306   0.00000  Uiso   1.00
C1371  C     0.45363   0.50073   0.88760   0.00000  Uiso   1.00
C1372  C     0.54299   0.51552   0.61561   0.00000  Uiso   1.00
C1373  C     0.39615   0.47489   0.95708   0.00000  Uiso   1.00
C1374  C     0.60031   0.54396   0.54726   0.00000  Uiso   1.00
C1375  C     0.40766   0.48380   0.91207   0.00000  Uiso   1.00
C1376  C     0.59113   0.52739   0.58983   0.00000  Uiso   1.00
C1377  C     0.48483   0.51461   0.91130   0.00000  Uiso   1.00
C1378  C     0.50647   0.51776   0.59538   0.00000  Uiso   1.00
C1379  C     0.46951   0.50972   0.95859   0.00000  Uiso   1.00
C1380  C     0.52238   0.51846   0.54887   0.00000  Uiso   1.00
C1381  C     0.42849   0.48405   0.97960   0.00000  Uiso   1.00
C1382  C     0.56426   0.54200   0.52760   0.00000  Uiso   1.00
C1383  C     0.49657   0.52527   0.98506   0.00000  Uiso   1.00
C1384  C     0.49235   0.50541   0.52499   0.00000  Uiso   1.00
H1385  H     0.36234   0.45887   0.97367   0.00000  Uiso   1.00
H1386  H     0.63508   0.55838   0.53015   0.00000  Uiso   1.00
H1387  H     0.45595   0.45723   0.57077   0.00000  Uiso   1.00
H1388  H     0.52233   0.58335   0.95161   0.00000  Uiso   1.00
H1389  H     0.39534   0.45730   0.69662   0.00000  Uiso   1.00
H1390  H     0.60578   0.54365   0.80172   0.00000  Uiso   1.00
N1391  N     0.38093   0.50001   0.75001   0.00000  Uiso   1.00
N1392  N     0.61907   0.49999   0.74999   0.00000  Uiso   1.00
O1393  O     0.46179   0.56108   0.75000   0.00000  Uiso   1.00
O1394  O     0.53821   0.43892   0.74999   0.00000  Uiso   1.00
O1395  O     0.53823   0.56107   0.75000   0.00000  Uiso   1.00
O1396  O     0.46177   0.43893   0.75000   0.00000  Uiso   1.00
O1397  O     0.43994   0.50001   0.81612   0.00000  Uiso   1.00
O1398  O     0.56006   0.49999   0.68387   0.00000  Uiso   1.00
O1399  O     0.51639   0.50000   0.81612   0.00000  Uiso   1.00
O1400  O     0.48361   0.50000   0.68388   0.00000  Uiso   1.00
Zn1401 Zn    0.44896   0.50001   0.75000   0.00000  Uiso   1.00
Zn1402 Zn    0.55104   0.49999   0.75000   0.00000  Uiso   1.00
C1403  C     0.38128   0.43686   0.54548   0.00000  Uiso   1.00
C1404  C     0.39019   0.39369   0.52464   0.00000  Uiso   1.00
H1405  H     0.39278   0.39418   0.98909   0.00000  Uiso   1.00
H1406  H     0.42431   0.38113   0.52679   0.00000  Uiso   1.00
H1407  H     0.35979   0.37286   0.54306   0.00000  Uiso   1.00
H1408  H     0.37777   0.43416   0.58121   0.00000  Uiso   1.00
H1409  H     0.34598   0.44890   0.54582   0.00000  Uiso   1.00
C1410  C     0.60289   0.59897   0.97073   0.00000  Uiso   1.00
C1411  C     0.59529   0.63693   0.50117   0.00000  Uiso   1.00
H1412  H     0.59865   0.62900   0.53376   0.00000  Uiso   1.00
H1413  H     0.62304   0.66079   0.98500   0.00000  Uiso   1.00
H1414  H     0.55885   0.65001   0.50708   0.00000  Uiso   1.00
H1415  H     0.63975   0.58642   0.96370   0.00000  Uiso   1.00
H1416  H     0.60126   0.60893   0.93799   0.00000  Uiso   1.00
C1417  C     0.45340   0.53140   0.61991   0.00000  Uiso   1.00
C1418  C     0.43874   0.56893   0.59837   0.00000  Uiso   1.00
H1419  H     0.40486   0.58245   0.62153   0.00000  Uiso   1.00
H1420  H     0.46758   0.59306   0.59035   0.00000  Uiso   1.00
H1421  H     0.43110   0.56028   0.56772   0.00000  Uiso   1.00
H1422  H     0.42746   0.50566   0.62258   0.00000  Uiso   1.00
H1423  H     0.44611   0.54185   0.65425   0.00000  Uiso   1.00
C1424  C     0.53588   0.53085   0.88597   0.00000  Uiso   1.00
C1425  C     0.53397   0.57421   0.86774   0.00000  Uiso   1.00
H1426  H     0.52683   0.57248   0.83592   0.00000  Uiso   1.00
H1427  H     0.50441   0.59289   0.89099   0.00000  Uiso   1.00
H1428  H     0.56880   0.59066   0.86253   0.00000  Uiso   1.00
H1429  H     0.56104   0.53046   0.90468   0.00000  Uiso   1.00
H1430  H     0.55722   0.50860   0.86087   0.00000  Uiso   1.00
C1431  C     0.63029   0.52764   0.60745   0.00000  Uiso   1.00
N1432  N     0.66180   0.52790   0.62141   0.00000  Uiso   1.00
C1433  C     0.37281   0.47108   0.89146   0.00000  Uiso   1.00
N1434  N     0.34479   0.46083   0.87517   0.00000  Uiso   1.00
C1435  C     0.57352   0.63007   0.77370   0.00000  Uiso   1.00
N1436  N     0.60791   0.61769   0.77890   0.00000  Uiso   1.00
C1437  C     0.46488   0.37798   0.68836   0.00000  Uiso   1.00
N1438  N     0.45233   0.39558   0.66293   0.00000  Uiso   1.00
C1439  C     0.53653   0.37634   0.81220   0.00000  Uiso   1.00
C1440  C     0.59010   0.38889   0.79818   0.00000  Uiso   1.00
H1441  H     0.60541   0.39565   0.76200   0.00000  Uiso   1.00
H1442  H     0.59416   0.41684   0.81718   0.00000  Uiso   1.00
H1443  H     0.61157   0.36391   0.80564   0.00000  Uiso   1.00
H1444  H     0.51372   0.40391   0.82514   0.00000  Uiso   1.00
H1445  H     0.52760   0.35525   0.84126   0.00000  Uiso   1.00
C1446  C     0.45754   0.62318   0.68946   0.00000  Uiso   1.00
C1447  C     0.40262   0.62017   0.71265   0.00000  Uiso   1.00
H1448  H     0.38686   0.59662   0.69604   0.00000  Uiso   1.00
H1449  H     0.39338   0.61135   0.74812   0.00000  Uiso   1.00
H1450  H     0.38573   0.65041   0.71149   0.00000  Uiso   1.00
H1451  H     0.46579   0.63866   0.65676   0.00000  Uiso   1.00
H1452  H     0.47395   0.59261   0.68024   0.00000  Uiso   1.00
C1453  C     0.64106   0.44949   0.68918   0.00000  Uiso   1.00
N1454  N     0.63122   0.42819   0.66408   0.00000  Uiso   1.00
C1455  C     0.35845   0.54954   0.81173   0.00000  Uiso   1.00
N1456  N     0.36772   0.57017   0.83766   0.00000  Uiso   1.00
C1457  C     0.83467   0.58022   0.74801   0.00000  Uiso   1.00
C1458  C     0.83283   0.42017   0.75061   0.00000  Uiso   1.00
C1459  C     0.79049   0.47447   0.54146   0.00000  Uiso   1.00
C1460  C     0.85967   0.56104   0.97471   0.00000  Uiso   1.00
C1461  C     0.75559   0.46645   0.52177   0.00000  Uiso   1.00
C1462  C     0.89824   0.56603   0.99086   0.00000  Uiso   1.00
C1463  C     0.86520   0.64706   0.76594   0.00000  Uiso   1.00
C1464  C     0.81447   0.35545   0.71980   0.00000  Uiso   1.00
C1465  C     0.85652   0.35537   0.77460   0.00000  Uiso   1.00
C1466  C     0.81412   0.64579   0.71902   0.00000  Uiso   1.00
C1467  C     0.83291   0.37626   0.74961   0.00000  Uiso   1.00
C1468  C     0.83819   0.62478   0.74394   0.00000  Uiso   1.00
C1469  C     0.98680   0.47578   0.72038   0.00000  Uiso   1.00
C1470  C     0.67989   0.52405   0.77963   0.00000  Uiso   1.00
C1471  C     0.70155   0.47607   0.72031   0.00000  Uiso   1.00
C1472  C     0.96554   0.52418   0.77911   0.00000  Uiso   1.00
C1473  C     0.80380   0.50085   0.83771   0.00000  Uiso   1.00
C1474  C     0.86234   0.50387   0.66306   0.00000  Uiso   1.00
C1475  C     0.78696   0.50073   0.88760   0.00000  Uiso   1.00
C1476  C     0.87632   0.51552   0.61561   0.00000  Uiso   1.00
C1477  C     0.72948   0.47489   0.95708   0.00000  Uiso   1.00
C1478  C     0.93365   0.54396   0.54726   0.00000  Uiso   1.00
C1479  C     0.74100   0.48380   0.91207   0.00000  Uiso   1.00
C1480  C     0.92446   0.52739   0.58983   0.00000  Uiso   1.00
C1481  C     0.81817   0.51461   0.91130   0.00000  Uiso   1.00
C1482  C     0.83980   0.51776   0.59538   0.00000  Uiso   1.00
C1483  C     0.80284   0.50972   0.95859   0.00000  Uiso   1.00
C1484  C     0.85572   0.51846   0.54887   0.00000  Uiso   1.00
C1485  C     0.76182   0.48405   0.97960   0.00000  Uiso   1.00
C1486  C     0.89759   0.54200   0.52760   0.00000  Uiso   1.00
C1487  C     0.82990   0.52527   0.98506   0.00000  Uiso   1.00
C1488  C     0.82568   0.50541   0.52499   0.00000  Uiso   1.00
H1489  H     0.69568   0.45887   0.97367   0.00000  Uiso   1.00
H1490  H     0.96842   0.55838   0.53015   0.00000  Uiso   1.00
H1491  H     0.78928   0.45723   0.57077   0.00000  Uiso   1.00
H1492  H     0.85566   0.58335   0.95161   0.00000  Uiso   1.00
H1493  H     0.72867   0.45730   0.69662   0.00000  Uiso   1.00
H1494  H     0.93911   0.54365   0.80172   0.00000  Uiso   1.00
N1495  N     0.71426   0.50001   0.75001   0.00000  Uiso   1.00
N1496  N     0.95241   0.49999   0.74999   0.00000  Uiso   1.00
O1497  O     0.79512   0.56108   0.75000   0.00000  Uiso   1.00
O1498  O     0.87154   0.43892   0.74999   0.00000  Uiso   1.00
O1499  O     0.87157   0.56107   0.75000   0.00000  Uiso   1.00
O1500  O     0.79510   0.43893   0.75000   0.00000  Uiso   1.00
O1501  O     0.77328   0.50001   0.81612   0.00000  Uiso   1.00
O1502  O     0.89339   0.49999   0.68387   0.00000  Uiso   1.00
O1503  O     0.84972   0.50000   0.81612   0.00000  Uiso   1.00
O1504  O     0.81695   0.50000   0.68388   0.00000  Uiso   1.00
Zn1505 Zn    0.78229   0.50001   0.75000   0.00000  Uiso   1.00
Zn1506 Zn    0.88438   0.49999   0.75000   0.00000  Uiso   1.00
C1507  C     0.71462   0.43686   0.54548   0.00000  Uiso   1.00
C1508  C     0.72353   0.39369   0.52464   0.00000  Uiso   1.00
H1509  H     0.72611   0.39418   0.98909   0.00000  Uiso   1.00
H1510  H     0.75764   0.38113   0.52679   0.00000  Uiso   1.00
H1511  H     0.69312   0.37286   0.54306   0.00000  Uiso   1.00
H1512  H     0.71110   0.43416   0.58121   0.00000  Uiso   1.00
H1513  H     0.67931   0.44890   0.54582   0.00000  Uiso   1.00
C1514  C     0.93623   0.59897   0.97073   0.00000  Uiso   1.00
C1515  C     0.92863   0.63693   0.50117   0.00000  Uiso   1.00
H1516  H     0.93199   0.62900   0.53376   0.00000  Uiso   1.00
H1517  H     0.95637   0.66079   0.98500   0.00000  Uiso   1.00
H1518  H     0.89219   0.65001   0.50708   0.00000  Uiso   1.00
H1519  H     0.97308   0.58642   0.96370   0.00000  Uiso   1.00
H1520  H     0.93459   0.60893   0.93799   0.00000  Uiso   1.00
C1521  C     0.78674   0.53140   0.61991   0.00000  Uiso   1.00
C1522  C     0.77207   0.56893   0.59837   0.00000  Uiso   1.00
H1523  H     0.73819   0.58245   0.62153   0.00000  Uiso   1.00
H1524  H     0.80091   0.59306   0.59035   0.00000  Uiso   1.00
H1525  H     0.76444   0.56028   0.56772   0.00000  Uiso   1.00
H1526  H     0.76080   0.50566   0.62258   0.00000  Uiso   1.00
H1527  H     0.77944   0.54185   0.65425   0.00000  Uiso   1.00
C1528  C     0.86921   0.53085   0.88597   0.00000  Uiso   1.00
C1529  C     0.86730   0.57421   0.86774   0.00000  Uiso   1.00
H1530  H     0.86017   0.57248   0.83592   0.00000  Uiso   1.00
H1531  H     0.83774   0.59289   0.89099   0.00000  Uiso   1.00
H1532  H     0.90213   0.59066   0.86253   0.00000  Uiso   1.00
H1533  H     0.89437   0.53046   0.90468   0.00000  Uiso   1.00
H1534  H     0.89056   0.50860   0.86087   0.00000  Uiso   1.00
C1535  C     0.96362   0.52764   0.60745   0.00000  Uiso   1.00
N1536  N     0.99513   0.52790   0.62141   0.00000  Uiso   1.00
C1537  C     0.70615   0.47108   0.89146   0.00000  Uiso   1.00
N1538  N     0.67812   0.46083   0.87517   0.00000  Uiso   1.00
C1539  C     0.90686   0.63007   0.77370   0.00000  Uiso   1.00
N1540  N     0.94124   0.61769   0.77890   0.00000  Uiso   1.00
C1541  C     0.79822   0.37798   0.68836   0.00000  Uiso   1.00
N1542  N     0.78567   0.39558   0.66293   0.00000  Uiso   1.00
C1543  C     0.86986   0.37634   0.81220   0.00000  Uiso   1.00
C1544  C     0.92343   0.38889   0.79818   0.00000  Uiso   1.00
H1545  H     0.93874   0.39565   0.76200   0.00000  Uiso   1.00
H1546  H     0.92749   0.41684   0.81718   0.00000  Uiso   1.00
H1547  H     0.94490   0.36391   0.80564   0.00000  Uiso   1.00
H1548  H     0.84705   0.40391   0.82514   0.00000  Uiso   1.00
H1549  H     0.86093   0.35525   0.84126   0.00000  Uiso   1.00
C1550  C     0.79088   0.62318   0.68946   0.00000  Uiso   1.00
C1551  C     0.73596   0.62017   0.71265   0.00000  Uiso   1.00
H1552  H     0.72020   0.59662   0.69604   0.00000  Uiso   1.00
H1553  H     0.72672   0.61135   0.74812   0.00000  Uiso   1.00
H1554  H     0.71907   0.65041   0.71149   0.00000  Uiso   1.00
H1555  H     0.79912   0.63866   0.65676   0.00000  Uiso   1.00
H1556  H     0.80728   0.59261   0.68024   0.00000  Uiso   1.00
C1557  C     0.97440   0.44949   0.68918   0.00000  Uiso   1.00
N1558  N     0.96455   0.42819   0.66408   0.00000  Uiso   1.00
C1559  C     0.69179   0.54954   0.81173   0.00000  Uiso   1.00
N1560  N     0.70106   0.57017   0.83766   0.00000  Uiso   1.00
C1561  C     0.16801   0.91355   0.74801   0.00000  Uiso   1.00
C1562  C     0.16616   0.75350   0.75061   0.00000  Uiso   1.00
C1563  C     0.12382   0.80780   0.54146   0.00000  Uiso   1.00
C1564  C     0.19301   0.89438   0.97471   0.00000  Uiso   1.00
C1565  C     0.08892   0.79979   0.52177   0.00000  Uiso   1.00
C1566  C     0.23158   0.89936   0.99086   0.00000  Uiso   1.00
C1567  C     0.19853   0.98039   0.76594   0.00000  Uiso   1.00
C1568  C     0.14780   0.68878   0.71980   0.00000  Uiso   1.00
C1569  C     0.18985   0.68870   0.77460   0.00000  Uiso   1.00
C1570  C     0.14745   0.97913   0.71902   0.00000  Uiso   1.00
C1571  C     0.16624   0.70959   0.74961   0.00000  Uiso   1.00
C1572  C     0.17152   0.95811   0.74394   0.00000  Uiso   1.00
C1573  C     0.32014   0.80911   0.72038   0.00000  Uiso   1.00
C1574  C     0.01322   0.85738   0.77963   0.00000  Uiso   1.00
C1575  C     0.03488   0.80940   0.72031   0.00000  Uiso   1.00
C1576  C     0.29887   0.85751   0.77911   0.00000  Uiso   1.00
C1577  C     0.13713   0.83418   0.83771   0.00000  Uiso   1.00
C1578  C     0.19568   0.83720   0.66306   0.00000  Uiso   1.00
C1579  C     0.12030   0.83406   0.88760   0.00000  Uiso   1.00
C1580  C     0.20965   0.84885   0.61561   0.00000  Uiso   1.00
C1581  C     0.06282   0.80823   0.95708   0.00000  Uiso   1.00
C1582  C     0.26698   0.87730   0.54726   0.00000  Uiso   1.00
C1583  C     0.07433   0.81713   0.91207   0.00000  Uiso   1.00
C1584  C     0.25779   0.86072   0.58983   0.00000  Uiso   1.00
C1585  C     0.15150   0.84794   0.91130   0.00000  Uiso   1.00
C1586  C     0.17314   0.85109   0.59538   0.00000  Uiso   1.00
C1587  C     0.13618   0.84305   0.95859   0.00000  Uiso   1.00
C1588  C     0.18905   0.85179   0.54887   0.00000  Uiso   1.00
C1589  C     0.09515   0.81738   0.97960   0.00000  Uiso   1.00
C1590  C     0.23093   0.87533   0.52760   0.00000  Uiso   1.00
C1591  C     0.16324   0.85861   0.98506   0.00000  Uiso   1.00
C1592  C     0.15901   0.83875   0.52499   0.00000  Uiso   1.00
H1593  H     0.02901   0.79220   0.97367   0.00000  Uiso   1.00
H1594  H     0.30175   0.89172   0.53015   0.00000  Uiso   1.00
H1595  H     0.12261   0.79057   0.57077   0.00000  Uiso   1.00
H1596  H     0.18900   0.91668   0.95161   0.00000  Uiso   1.00
H1597  H     0.06200   0.79063   0.69662   0.00000  Uiso   1.00
H1598  H     0.27244   0.87699   0.80172   0.00000  Uiso   1.00
N1599  N     0.04759   0.83334   0.75001   0.00000  Uiso   1.00
N1600  N     0.28574   0.83332   0.74999   0.00000  Uiso   1.00
O1601  O     0.12846   0.89442   0.75000   0.00000  Uiso   1.00
O1602  O     0.20488   0.77225   0.74999   0.00000  Uiso   1.00
O1603  O     0.20490   0.89441   0.75000   0.00000  Uiso   1.00
O1604  O     0.12843   0.77226   0.75000   0.00000  Uiso   1.00
O1605  O     0.10661   0.83334   0.81612   0.00000  Uiso   1.00
O1606  O     0.22672   0.83333   0.68387   0.00000  Uiso   1.00
O1607  O     0.18305   0.83333   0.81612   0.00000  Uiso   1.00
O1608  O     0.15028   0.83334   0.68388   0.00000  Uiso   1.00
Zn1609 Zn    0.11562   0.83334   0.75000   0.00000  Uiso   1.00
Zn1610 Zn    0.21771   0.83333   0.75000   0.00000  Uiso   1.00
C1611  C     0.04795   0.77020   0.54548   0.00000  Uiso   1.00
C1612  C     0.05686   0.72702   0.52464   0.00000  Uiso   1.00
H1613  H     0.05945   0.72751   0.98909   0.00000  Uiso   1.00
H1614  H     0.09097   0.71446   0.52679   0.00000  Uiso   1.00
H1615  H     0.02645   0.70620   0.54306   0.00000  Uiso   1.00
H1616  H     0.04443   0.76749   0.58121   0.00000  Uiso   1.00
H1617  H     0.01265   0.78224   0.54582   0.00000  Uiso   1.00
C1618  C     0.26956   0.93231   0.97073   0.00000  Uiso   1.00
C1619  C     0.26196   0.97026   0.50117   0.00000  Uiso   1.00
H1620  H     0.26532   0.96233   0.53376   0.00000  Uiso   1.00
H1621  H     0.28971   0.99412   0.98500   0.00000  Uiso   1.00
H1622  H     0.22552   0.98335   0.50708   0.00000  Uiso   1.00
H1623  H     0.30642   0.91975   0.96370   0.00000  Uiso   1.00
H1624  H     0.26792   0.94226   0.93799   0.00000  Uiso   1.00
C1625  C     0.12007   0.86473   0.61991   0.00000  Uiso   1.00
C1626  C     0.10541   0.90227   0.59837   0.00000  Uiso   1.00
H1627  H     0.07153   0.91578   0.62153   0.00000  Uiso   1.00
H1628  H     0.13425   0.92639   0.59035   0.00000  Uiso   1.00
H1629  H     0.09777   0.89361   0.56772   0.00000  Uiso   1.00
H1630  H     0.09413   0.83899   0.62258   0.00000  Uiso   1.00
H1631  H     0.11277   0.87518   0.65425   0.00000  Uiso   1.00
C1632  C     0.20254   0.86418   0.88597   0.00000  Uiso   1.00
C1633  C     0.20063   0.90755   0.86774   0.00000  Uiso   1.00
H1634  H     0.19350   0.90581   0.83592   0.00000  Uiso   1.00
H1635  H     0.17108   0.92622   0.89099   0.00000  Uiso   1.00
H1636  H     0.23546   0.92399   0.86253   0.00000  Uiso   1.00
H1637  H     0.22771   0.86379   0.90468   0.00000  Uiso   1.00
H1638  H     0.22389   0.84194   0.86087   0.00000  Uiso   1.00
C1639  C     0.29696   0.86097   0.60745   0.00000  Uiso   1.00
N1640  N     0.32847   0.86124   0.62141   0.00000  Uiso   1.00
C1641  C     0.03948   0.80441   0.89146   0.00000  Uiso   1.00
N1642  N     0.01145   0.79417   0.87517   0.00000  Uiso   1.00
C1643  C     0.24019   0.96340   0.77370   0.00000  Uiso   1.00
N1644  N     0.27457   0.95102   0.77890   0.00000  Uiso   1.00
C1645  C     0.13155   0.71131   0.68836   0.00000  Uiso   1.00
N1646  N     0.11900   0.72891   0.66293   0.00000  Uiso   1.00
C1647  C     0.20319   0.70967   0.81220   0.00000  Uiso   1.00
C1648  C     0.25677   0.72222   0.79818   0.00000  Uiso   1.00
H1649  H     0.27208   0.72898   0.76200   0.00000  Uiso   1.00
H1650  H     0.26082   0.75017   0.81718   0.00000  Uiso   1.00
H1651  H     0.27823   0.69724   0.80564   0.00000  Uiso   1.00
H1652  H     0.18038   0.73724   0.82514   0.00000  Uiso   1.00
H1653  H     0.19426   0.68858   0.84126   0.00000  Uiso   1.00
C1654  C     0.12421   0.95651   0.68946   0.00000  Uiso   1.00
C1655  C     0.06929   0.95350   0.71265   0.00000  Uiso   1.00
H1656  H     0.05353   0.92995   0.69604   0.00000  Uiso   1.00
H1657  H     0.06005   0.94469   0.74812   0.00000  Uiso   1.00
H1658  H     0.05240   0.98374   0.71149   0.00000  Uiso   1.00
H1659  H     0.13246   0.97199   0.65676   0.00000  Uiso   1.00
H1660  H     0.14062   0.92594   0.68024   0.00000  Uiso   1.00
C1661  C     0.30773   0.78283   0.68918   0.00000  Uiso   1.00
N1662  N     0.29788   0.76152   0.66408   0.00000  Uiso   1.00
C1663  C     0.02512   0.88287   0.81173   0.00000  Uiso   1.00
N1664  N     0.03439   0.90350   0.83766   0.00000  Uiso   1.00
C1665  C     0.50134   0.91355   0.74801   0.00000  Uiso   1.00
C1666  C     0.49950   0.75350   0.75061   0.00000  Uiso   1.00
C1667  C     0.45716   0.80780   0.54146   0.00000  Uiso   1.00
C1668  C     0.52634   0.89438   0.97471   0.00000  Uiso   1.00
C1669  C     0.42226   0.79979   0.52177   0.00000  Uiso   1.00
C1670  C     0.56491   0.89936   0.99086   0.00000  Uiso   1.00
C1671  C     0.53187   0.98039   0.76594   0.00000  Uiso   1.00
C1672  C     0.48113   0.68878   0.71980   0.00000  Uiso   1.00
C1673  C     0.52318   0.68870   0.77460   0.00000  Uiso   1.00
C1674  C     0.48078   0.97913   0.71902   0.00000  Uiso   1.00
C1675  C     0.49958   0.70959   0.74961   0.00000  Uiso   1.00
C1676  C     0.50486   0.95811   0.74394   0.00000  Uiso   1.00
C1677  C     0.65347   0.80911   0.72038   0.00000  Uiso   1.00
C1678  C     0.34655   0.85738   0.77963   0.00000  Uiso   1.00
C1679  C     0.36821   0.80940   0.72031   0.00000  Uiso   1.00
C1680  C     0.63220   0.85751   0.77911   0.00000  Uiso   1.00
C1681  C     0.47047   0.83418   0.83771   0.00000  Uiso   1.00
C1682  C     0.52901   0.83720   0.66306   0.00000  Uiso   1.00
C1683  C     0.45363   0.83406   0.88760   0.00000  Uiso   1.00
C1684  C     0.54299   0.84885   0.61561   0.00000  Uiso   1.00
C1685  C     0.39615   0.80823   0.95708   0.00000  Uiso   1.00
C1686  C     0.60031   0.87730   0.54726   0.00000  Uiso   1.00
C1687  C     0.40766   0.81713   0.91207   0.00000  Uiso   1.00
C1688  C     0.59113   0.86072   0.58983   0.00000  Uiso   1.00
C1689  C     0.48483   0.84794   0.91130   0.00000  Uiso   1.00
C1690  C     0.50647   0.85109   0.59538   0.00000  Uiso   1.00
C1691  C     0.46951   0.84305   0.95859   0.00000  Uiso   1.00
C1692  C     0.52238   0.85179   0.54887   0.00000  Uiso   1.00
C1693  C     0.42849   0.81738   0.97960   0.00000  Uiso   1.00
C1694  C     0.56426   0.87533   0.52760   0.00000  Uiso   1.00
C1695  C     0.49657   0.85861   0.98506   0.00000  Uiso   1.00
C1696  C     0.49235   0.83875   0.52499   0.00000  Uiso   1.00
H1697  H     0.36234   0.79220   0.97367   0.00000  Uiso   1.00
H1698  H     0.63508   0.89172   0.53015   0.00000  Uiso   1.00
H1699  H     0.45595   0.79057   0.57077   0.00000  Uiso   1.00
H1700  H     0.52233   0.91668   0.95161   0.00000  Uiso   1.00
H1701  H     0.39534   0.79063   0.69662   0.00000  Uiso   1.00
H1702  H     0.60578   0.87699   0.80172   0.00000  Uiso   1.00
N1703  N     0.38093   0.83334   0.75001   0.00000  Uiso   1.00
N1704  N     0.61907   0.83332   0.74999   0.00000  Uiso   1.00
O1705  O     0.46179   0.89442   0.75000   0.00000  Uiso   1.00
O1706  O     0.53821   0.77225   0.74999   0.00000  Uiso   1.00
O1707  O     0.53823   0.89441   0.75000   0.00000  Uiso   1.00
O1708  O     0.46177   0.77226   0.75000   0.00000  Uiso   1.00
O1709  O     0.43994   0.83334   0.81612   0.00000  Uiso   1.00
O1710  O     0.56006   0.83333   0.68387   0.00000  Uiso   1.00
O1711  O     0.51639   0.83333   0.81612   0.00000  Uiso   1.00
O1712  O     0.48361   0.83334   0.68388   0.00000  Uiso   1.00
Zn1713 Zn    0.44896   0.83334   0.75000   0.00000  Uiso   1.00
Zn1714 Zn    0.55104   0.83333   0.75000   0.00000  Uiso   1.00
C1715  C     0.38128   0.77020   0.54548   0.00000  Uiso   1.00
C1716  C     0.39019   0.72702   0.52464   0.00000  Uiso   1.00
H1717  H     0.39278   0.72751   0.98909   0.00000  Uiso   1.00
H1718  H     0.42431   0.71446   0.52679   0.00000  Uiso   1.00
H1719  H     0.35979   0.70620   0.54306   0.00000  Uiso   1.00
H1720  H     0.37777   0.76749   0.58121   0.00000  Uiso   1.00
H1721  H     0.34598   0.78224   0.54582   0.00000  Uiso   1.00
C1722  C     0.60289   0.93231   0.97073   0.00000  Uiso   1.00
C1723  C     0.59529   0.97026   0.50117   0.00000  Uiso   1.00
H1724  H     0.59865   0.96233   0.53376   0.00000  Uiso   1.00
H1725  H     0.62304   0.99412   0.98500   0.00000  Uiso   1.00
H1726  H     0.55885   0.98335   0.50708   0.00000  Uiso   1.00
H1727  H     0.63975   0.91975   0.96370   0.00000  Uiso   1.00
H1728  H     0.60126   0.94226   0.93799   0.00000  Uiso   1.00
C1729  C     0.45340   0.86473   0.61991   0.00000  Uiso   1.00
C1730  C     0.43874   0.90227   0.59837   0.00000  Uiso   1.00
H1731  H     0.40486   0.91578   0.62153   0.00000  Uiso   1.00
H1732  H     0.46758   0.92639   0.59035   0.00000  Uiso   1.00
H1733  H     0.43110   0.89361   0.56772   0.00000  Uiso   1.00
H1734  H     0.42746   0.83899   0.62258   0.00000  Uiso   1.00
H1735  H     0.44611   0.87518   0.65425   0.00000  Uiso   1.00
C1736  C     0.53588   0.86418   0.88597   0.00000  Uiso   1.00
C1737  C     0.53397   0.90755   0.86774   0.00000  Uiso   1.00
H1738  H     0.52683   0.90581   0.83592   0.00000  Uiso   1.00
H1739  H     0.50441   0.92622   0.89099   0.00000  Uiso   1.00
H1740  H     0.56880   0.92399   0.86253   0.00000  Uiso   1.00
H1741  H     0.56104   0.86379   0.90468   0.00000  Uiso   1.00
H1742  H     0.55722   0.84194   0.86087   0.00000  Uiso   1.00
C1743  C     0.63029   0.86097   0.60745   0.00000  Uiso   1.00
N1744  N     0.66180   0.86124   0.62141   0.00000  Uiso   1.00
C1745  C     0.37281   0.80441   0.89146   0.00000  Uiso   1.00
N1746  N     0.34479   0.79417   0.87517   0.00000  Uiso   1.00
C1747  C     0.57352   0.96340   0.77370   0.00000  Uiso   1.00
N1748  N     0.60791   0.95102   0.77890   0.00000  Uiso   1.00
C1749  C     0.46488   0.71131   0.68836   0.00000  Uiso   1.00
N1750  N     0.45233   0.72891   0.66293   0.00000  Uiso   1.00
C1751  C     0.53653   0.70967   0.81220   0.00000  Uiso   1.00
C1752  C     0.59010   0.72222   0.79818   0.00000  Uiso   1.00
H1753  H     0.60541   0.72898   0.76200   0.00000  Uiso   1.00
H1754  H     0.59416   0.75017   0.81718   0.00000  Uiso   1.00
H1755  H     0.61157   0.69724   0.80564   0.00000  Uiso   1.00
H1756  H     0.51372   0.73724   0.82514   0.00000  Uiso   1.00
H1757  H     0.52760   0.68858   0.84126   0.00000  Uiso   1.00
C1758  C     0.45754   0.95651   0.68946   0.00000  Uiso   1.00
C1759  C     0.40262   0.95350   0.71265   0.00000  Uiso   1.00
H1760  H     0.38686   0.92995   0.69604   0.00000  Uiso   1.00
H1761  H     0.39338   0.94469   0.74812   0.00000  Uiso   1.00
H1762  H     0.38573   0.98374   0.71149   0.00000  Uiso   1.00
H1763  H     0.46579   0.97199   0.65676   0.00000  Uiso   1.00
H1764  H     0.47395   0.92594   0.68024   0.00000  Uiso   1.00
C1765  C     0.64106   0.78283   0.68918   0.00000  Uiso   1.00
N1766  N     0.63122   0.76152   0.66408   0.00000  Uiso   1.00
C1767  C     0.35845   0.88287   0.81173   0.00000  Uiso   1.00
N1768  N     0.36772   0.90350   0.83766   0.00000  Uiso   1.00
C1769  C     0.83467   0.91355   0.74801   0.00000  Uiso   1.00
C1770  C     0.83283   0.75350   0.75061   0.00000  Uiso   1.00
C1771  C     0.79049   0.80780   0.54146   0.00000  Uiso   1.00
C1772  C     0.85967   0.89438   0.97471   0.00000  Uiso   1.00
C1773  C     0.75559   0.79979   0.52177   0.00000  Uiso   1.00
C1774  C     0.89824   0.89936   0.99086   0.00000  Uiso   1.00
C1775  C     0.86520   0.98039   0.76594   0.00000  Uiso   1.00
C1776  C     0.81447   0.68878   0.71980   0.00000  Uiso   1.00
C1777  C     0.85652   0.68870   0.77460   0.00000  Uiso   1.00
C1778  C     0.81412   0.97913   0.71902   0.00000  Uiso   1.00
C1779  C     0.83291   0.70959   0.74961   0.00000  Uiso   1.00
C1780  C     0.83819   0.95811   0.74394   0.00000  Uiso   1.00
C1781  C     0.98680   0.80911   0.72038   0.00000  Uiso   1.00
C1782  C     0.67989   0.85738   0.77963   0.00000  Uiso   1.00
C1783  C     0.70155   0.80940   0.72031   0.00000  Uiso   1.00
C1784  C     0.96554   0.85751   0.77911   0.00000  Uiso   1.00
C1785  C     0.80380   0.83418   0.83771   0.00000  Uiso   1.00
C1786  C     0.86234   0.83720   0.66306   0.00000  Uiso   1.00
C1787  C     0.78696   0.83406   0.88760   0.00000  Uiso   1.00
C1788  C     0.87632   0.84885   0.61561   0.00000  Uiso   1.00
C1789  C     0.72948   0.80823   0.95708   0.00000  Uiso   1.00
C1790  C     0.93365   0.87730   0.54726   0.00000  Uiso   1.00
C1791  C     0.74100   0.81713   0.91207   0.00000  Uiso   1.00
C1792  C     0.92446   0.86072   0.58983   0.00000  Uiso   1.00
C1793  C     0.81817   0.84794   0.91130   0.00000  Uiso   1.00
C1794  C     0.83980   0.85109   0.59538   0.00000  Uiso   1.00
C1795  C     0.80284   0.84305   0.95859   0.00000  Uiso   1.00
C1796  C     0.85572   0.85179   0.54887   0.00000  Uiso   1.00
C1797  C     0.76182   0.81738   0.97960   0.00000  Uiso   1.00
C1798  C     0.89759   0.87533   0.52760   0.00000  Uiso   1.00
C1799  C     0.82990   0.85861   0.98506   0.00000  Uiso   1.00
C1800  C     0.82568   0.83875   0.52499   0.00000  Uiso   1.00
H1801  H     0.69568   0.79220   0.97367   0.00000  Uiso   1.00
H1802  H     0.96842   0.89172   0.53015   0.00000  Uiso   1.00
H1803  H     0.78928   0.79057   0.57077   0.00000  Uiso   1.00
H1804  H     0.85566   0.91668   0.95161   0.00000  Uiso   1.00
H1805  H     0.72867   0.79063   0.69662   0.00000  Uiso   1.00
H1806  H     0.93911   0.87699   0.80172   0.00000  Uiso   1.00
N1807  N     0.71426   0.83334   0.75001   0.00000  Uiso   1.00
N1808  N     0.95241   0.83332   0.74999   0.00000  Uiso   1.00
O1809  O     0.79512   0.89442   0.75000   0.00000  Uiso   1.00
O1810  O     0.87154   0.77225   0.74999   0.00000  Uiso   1.00
O1811  O     0.87157   0.89441   0.75000   0.00000  Uiso   1.00
O1812  O     0.79510   0.77226   0.75000   0.00000  Uiso   1.00
O1813  O     0.77328   0.83334   0.81612   0.00000  Uiso   1.00
O1814  O     0.89339   0.83333   0.68387   0.00000  Uiso   1.00
O1815  O     0.84972   0.83333   0.81612   0.00000  Uiso   1.00
O1816  O     0.81695   0.83334   0.68388   0.00000  Uiso   1.00
Zn1817 Zn    0.78229   0.83334   0.75000   0.00000  Uiso   1.00
Zn1818 Zn    0.88438   0.83333   0.75000   0.00000  Uiso   1.00
C1819  C     0.71462   0.77020   0.54548   0.00000  Uiso   1.00
C1820  C     0.72353   0.72702   0.52464   0.00000  Uiso   1.00
H1821  H     0.72611   0.72751   0.98909   0.00000  Uiso   1.00
H1822  H     0.75764   0.71446   0.52679   0.00000  Uiso   1.00
H1823  H     0.69312   0.70620   0.54306   0.00000  Uiso   1.00
H1824  H     0.71110   0.76749   0.58121   0.00000  Uiso   1.00
H1825  H     0.67931   0.78224   0.54582   0.00000  Uiso   1.00
C1826  C     0.93623   0.93231   0.97073   0.00000  Uiso   1.00
C1827  C     0.92863   0.97026   0.50117   0.00000  Uiso   1.00
H1828  H     0.93199   0.96233   0.53376   0.00000  Uiso   1.00
H1829  H     0.95637   0.99412   0.98500   0.00000  Uiso   1.00
H1830  H     0.89219   0.98335   0.50708   0.00000  Uiso   1.00
H1831  H     0.97308   0.91975   0.96370   0.00000  Uiso   1.00
H1832  H     0.93459   0.94226   0.93799   0.00000  Uiso   1.00
C1833  C     0.78674   0.86473   0.61991   0.00000  Uiso   1.00
C1834  C     0.77207   0.90227   0.59837   0.00000  Uiso   1.00
H1835  H     0.73819   0.91578   0.62153   0.00000  Uiso   1.00
H1836  H     0.80091   0.92639   0.59035   0.00000  Uiso   1.00
H1837  H     0.76444   0.89361   0.56772   0.00000  Uiso   1.00
H1838  H     0.76080   0.83899   0.62258   0.00000  Uiso   1.00
H1839  H     0.77944   0.87518   0.65425   0.00000  Uiso   1.00
C1840  C     0.86921   0.86418   0.88597   0.00000  Uiso   1.00
C1841  C     0.86730   0.90755   0.86774   0.00000  Uiso   1.00
H1842  H     0.86017   0.90581   0.83592   0.00000  Uiso   1.00
H1843  H     0.83774   0.92622   0.89099   0.00000  Uiso   1.00
H1844  H     0.90213   0.92399   0.86253   0.00000  Uiso   1.00
H1845  H     0.89437   0.86379   0.90468   0.00000  Uiso   1.00
H1846  H     0.89056   0.84194   0.86087   0.00000  Uiso   1.00
C1847  C     0.96362   0.86097   0.60745   0.00000  Uiso   1.00
N1848  N     0.99513   0.86124   0.62141   0.00000  Uiso   1.00
C1849  C     0.70615   0.80441   0.89146   0.00000  Uiso   1.00
N1850  N     0.67812   0.79417   0.87517   0.00000  Uiso   1.00
C1851  C     0.90686   0.96340   0.77370   0.00000  Uiso   1.00
N1852  N     0.94124   0.95102   0.77890   0.00000  Uiso   1.00
C1853  C     0.79822   0.71131   0.68836   0.00000  Uiso   1.00
N1854  N     0.78567   0.72891   0.66293   0.00000  Uiso   1.00
C1855  C     0.86986   0.70967   0.81220   0.00000  Uiso   1.00
C1856  C     0.92343   0.72222   0.79818   0.00000  Uiso   1.00
H1857  H     0.93874   0.72898   0.76200   0.00000  Uiso   1.00
H1858  H     0.92749   0.75017   0.81718   0.00000  Uiso   1.00
H1859  H     0.94490   0.69724   0.80564   0.00000  Uiso   1.00
H1860  H     0.84705   0.73724   0.82514   0.00000  Uiso   1.00
H1861  H     0.86093   0.68858   0.84126   0.00000  Uiso   1.00
C1862  C     0.79088   0.95651   0.68946   0.00000  Uiso   1.00
C1863  C     0.73596   0.95350   0.71265   0.00000  Uiso   1.00
H1864  H     0.72020   0.92995   0.69604   0.00000  Uiso   1.00
H1865  H     0.72672   0.94469   0.74812   0.00000  Uiso   1.00
H1866  H     0.71907   0.98374   0.71149   0.00000  Uiso   1.00
H1867  H     0.79912   0.97199   0.65676   0.00000  Uiso   1.00
H1868  H     0.80728   0.92594   0.68024   0.00000  Uiso   1.00
C1869  C     0.97440   0.78283   0.68918   0.00000  Uiso   1.00
N1870  N     0.96455   0.76152   0.66408   0.00000  Uiso   1.00
C1871  C     0.69179   0.88287   0.81173   0.00000  Uiso   1.00
N1872  N     0.70106   0.90350   0.83766   0.00000  Uiso   1.00
loop_
_geom_bond_atom_site_label_1
_geom_bond_atom_site_label_2
_geom_bond_distance
_geom_bond_site_symmetry_2
_ccdc_geom_bond_type
C1     O43     1.277   .     A
C1     C12     1.450   .     S
C1     O41     1.293   .     A
C2     O44     1.278   .     A
C2     C11     1.422   .     S
C2     O42     1.277   .     A
C3     C32     1.401   .     A
C3     H35     1.083   .     S
C3     C5      1.394   .     A
C4     H36     1.073   .     S
C4     C6      1.403   .     A
C4     C31     1.415   .     A
C5     C51     1.518   .     S
C5     C965    1.418   1_554 S
C6     C58     1.514   .     S
C6     C966    1.408   .     S
C7     C83     1.446   .     S
C7     C12     1.413   .     A
C7     C321    1.383   .     S
C8     C85     1.455   .     S
C8     C11     1.407   .     A
C8     C634    1.392   1_545 S
C9     C11     1.406   .     A
C9     C87     1.532   .     S
C9     C631    1.383   1_545 S
C10    C94     1.517   .     S
C10    C12     1.416   .     A
C10    C320    1.392   .     S
C13    N40     1.370   .     A
C13    C101    1.438   .     S
C13    C119    1.412   .     S
C14    N39     1.367   .     A
C14    C103    1.438   .     S
C14    C224    1.408   1_455 S
C15    H37     1.079   .     S
C15    N39     1.362   .     A
C15    C221    1.412   1_455 S
C16    N40     1.358   .     A
C16    H38     1.067   .     S
C16    C118    1.408   .     S
C17    O45     1.304   .     A
C17    O47     1.289   .     A
C17    C19     1.494   .     S
C18    O46     1.307   .     A
C18    O48     1.276   .     A
C18    C20     1.477   .     S
C19    C23     1.416   .     A
C19    C25     1.439   .     A
C20    C24     1.422   .     A
C20    C26     1.432   .     A
C21    H33     1.082   .     S
C21    C29     1.400   .     A
C21    C23     1.389   .     A
C22    C24     1.401   .     A
C22    H34     1.083   .     S
C22    C30     1.404   .     A
C23    C81     1.447   .     S
C24    C79     1.443   .     S
C25    C72     1.530   .     S
C25    C27     1.427   .     A
C26    C65     1.554   .     S
C26    C28     1.393   .     A
C27    C29     1.424   .     A
C27    C31     1.428   .     A
C28    C32     1.407   .     A
C28    C30     1.404   .     A
C29    C941    1.418   .     S
C30    C942    1.408   1_554 S
C31    C968    1.399   .     S
C32    C967    1.399   1_554 S
N39    Zn49    2.000   .     S
N40    Zn50    2.000   .     S
O41    Zn49    2.009   .     S
O42    Zn50    2.009   .     S
O43    Zn50    2.019   .     S
O44    Zn49    2.019   .     S
O45    Zn49    2.032   .     S
O46    Zn50    2.032   .     S
O47    Zn50    2.002   .     S
O48    Zn49    2.002   .     S
C51    H56     1.112   .     S
C51    H57     1.110   .     S
C51    C52     1.528   .     S
C52    H55     1.110   .     S
C52    H54     1.111   .     S
C52    H989    1.109   1_554 S
H53    C988    1.109   .     S
C58    H64     1.112   .     S
C58    H63     1.110   .     S
C58    C995    1.527   .     S
C59    H60     1.110   .     S
C59    H62     1.111   .     S
C59    C994    1.527   1_554 S
C59    H997    1.110   1_554 S
H61    C995    1.110   .     S
C65    H70     1.107   .     S
C65    H71     1.091   .     S
C65    C66     1.540   .     S
C66    H68     1.111   .     S
C66    H69     1.107   .     S
C66    H67     1.108   .     S
C72    H78     1.099   .     S
C72    H77     1.098   .     S
C72    C73     1.535   .     S
C73    H74     1.104   .     S
C73    H75     1.110   .     S
C73    H76     1.110   .     S
C79    N80     1.157   .     T
C81    N82     1.158   .     T
C83    N84     1.156   .     T
C85    N86     1.157   .     T
C87    C88     1.533   .     S
C87    H92     1.111   .     S
C87    H93     1.112   .     S
C88    H91     1.109   .     S
C88    H90     1.111   .     S
C88    H89     1.108   .     S
C94    H100    1.099   .     S
C94    H99     1.110   .     S
C94    C95     1.531   .     S
C95    H96     1.107   .     S
C95    H98     1.110   .     S
C95    H97     1.108   .     S
C101   N102    1.157   .     T
C103   N104    1.157   .     T
C105   O147    1.277   .     A
C105   C116    1.450   .     S
C105   O145    1.293   .     A
C106   O148    1.278   .     A
C106   C115    1.422   .     S
C106   O146    1.277   .     A
C107   C136    1.401   .     A
C107   H139    1.083   .     S
C107   C109    1.394   .     A
C108   H140    1.073   .     S
C108   C110    1.403   .     A
C108   C135    1.415   .     A
C109   C155    1.518   .     S
C109   C1069   1.418   1_554 S
C110   C162    1.514   .     S
C110   C1070   1.408   .     S
C111   C187    1.446   .     S
C111   C116    1.413   .     A
C111   C425    1.383   .     S
C112   C189    1.455   .     S
C112   C115    1.407   .     A
C112   C738    1.392   1_545 S
C113   C115    1.406   .     A
C113   C191    1.532   .     S
C113   C735    1.383   1_545 S
C114   C198    1.517   .     S
C114   C116    1.416   .     A
C114   C424    1.392   .     S
C117   N144    1.370   .     A
C117   C205    1.438   .     S
C117   C223    1.412   .     S
C118   N143    1.367   .     A
C118   C207    1.438   .     S
C119   H141    1.079   .     S
C119   N143    1.362   .     A
C120   N144    1.358   .     A
C120   H142    1.067   .     S
C120   C222    1.408   .     S
C121   O149    1.304   .     A
C121   O151    1.289   .     A
C121   C123    1.494   .     S
C122   O150    1.307   .     A
C122   O152    1.276   .     A
C122   C124    1.477   .     S
C123   C127    1.416   .     A
C123   C129    1.439   .     A
C124   C128    1.422   .     A
C124   C130    1.432   .     A
C125   H137    1.082   .     S
C125   C133    1.400   .     A
C125   C127    1.389   .     A
C126   C128    1.401   .     A
C126   H138    1.083   .     S
C126   C134    1.404   .     A
C127   C185    1.447   .     S
C128   C183    1.443   .     S
C129   C176    1.530   .     S
C129   C131    1.427   .     A
C130   C169    1.554   .     S
C130   C132    1.393   .     A
C131   C133    1.424   .     A
C131   C135    1.428   .     A
C132   C136    1.407   .     A
C132   C134    1.404   .     A
C133   C1045   1.418   .     S
C134   C1046   1.408   1_554 S
C135   C1072   1.399   .     S
C136   C1071   1.399   1_554 S
N143   Zn153   2.000   .     S
N144   Zn154   2.000   .     S
O145   Zn153   2.009   .     S
O146   Zn154   2.009   .     S
O147   Zn154   2.019   .     S
O148   Zn153   2.019   .     S
O149   Zn153   2.032   .     S
O150   Zn154   2.032   .     S
O151   Zn154   2.002   .     S
O152   Zn153   2.002   .     S
C155   H160    1.112   .     S
C155   H161    1.110   .     S
C155   C156    1.528   .     S
C156   H159    1.110   .     S
C156   H158    1.111   .     S
C156   H1093   1.109   1_554 S
H157   C1092   1.109   .     S
C162   H168    1.112   .     S
C162   H167    1.110   .     S
C162   C1099   1.527   .     S
C163   H164    1.110   .     S
C163   H166    1.111   .     S
C163   C1098   1.527   1_554 S
C163   H1101   1.110   1_554 S
H165   C1099   1.110   .     S
C169   H174    1.107   .     S
C169   H175    1.091   .     S
C169   C170    1.540   .     S
C170   H172    1.111   .     S
C170   H173    1.107   .     S
C170   H171    1.108   .     S
C176   H182    1.099   .     S
C176   H181    1.098   .     S
C176   C177    1.535   .     S
C177   H178    1.104   .     S
C177   H179    1.110   .     S
C177   H180    1.110   .     S
C183   N184    1.157   .     T
C185   N186    1.158   .     T
C187   N188    1.156   .     T
C189   N190    1.157   .     T
C191   C192    1.533   .     S
C191   H196    1.111   .     S
C191   H197    1.112   .     S
C192   H195    1.109   .     S
C192   H194    1.111   .     S
C192   H193    1.108   .     S
C198   H204    1.099   .     S
C198   H203    1.110   .     S
C198   C199    1.531   .     S
C199   H200    1.107   .     S
C199   H202    1.110   .     S
C199   H201    1.108   .     S
C205   N206    1.157   .     T
C207   N208    1.157   .     T
C209   O251    1.277   .     A
C209   C220    1.450   .     S
C209   O249    1.293   .     A
C210   O252    1.278   .     A
C210   C219    1.422   .     S
C210   O250    1.277   .     A
C211   C240    1.401   .     A
C211   H243    1.083   .     S
C211   C213    1.394   .     A
C212   H244    1.073   .     S
C212   C214    1.403   .     A
C212   C239    1.415   .     A
C213   C259    1.518   .     S
C213   C1173   1.418   1_554 S
C214   C266    1.514   .     S
C214   C1174   1.408   .     S
C215   C291    1.446   .     S
C215   C220    1.413   .     A
C215   C529    1.383   .     S
C216   C293    1.455   .     S
C216   C219    1.407   .     A
C216   C842    1.392   1_545 S
C217   C219    1.406   .     A
C217   C295    1.532   .     S
C217   C839    1.383   1_545 S
C218   C302    1.517   .     S
C218   C220    1.416   .     A
C218   C528    1.392   .     S
C221   N248    1.370   .     A
C221   C309    1.438   .     S
C221   C15     1.412   1_655 S
C222   N247    1.367   .     A
C222   C311    1.438   .     S
C223   H245    1.079   .     S
C223   N247    1.362   .     A
C224   N248    1.358   .     A
C224   H246    1.067   .     S
C224   C14     1.408   1_655 S
C225   O253    1.304   .     A
C225   O255    1.289   .     A
C225   C227    1.494   .     S
C226   O254    1.307   .     A
C226   O256    1.276   .     A
C226   C228    1.477   .     S
C227   C231    1.416   .     A
C227   C233    1.439   .     A
C228   C232    1.422   .     A
C228   C234    1.432   .     A
C229   H241    1.082   .     S
C229   C237    1.400   .     A
C229   C231    1.389   .     A
C230   C232    1.401   .     A
C230   H242    1.083   .     S
C230   C238    1.404   .     A
C231   C289    1.447   .     S
C232   C287    1.443   .     S
C233   C280    1.530   .     S
C233   C235    1.427   .     A
C234   C273    1.554   .     S
C234   C236    1.393   .     A
C235   C237    1.424   .     A
C235   C239    1.428   .     A
C236   C240    1.407   .     A
C236   C238    1.404   .     A
C237   C1149   1.418   .     S
C238   C1150   1.408   1_554 S
C239   C1176   1.399   .     S
C240   C1175   1.399   1_554 S
N247   Zn257   2.000   .     S
N248   Zn258   2.000   .     S
O249   Zn257   2.009   .     S
O250   Zn258   2.009   .     S
O251   Zn258   2.019   .     S
O252   Zn257   2.019   .     S
O253   Zn257   2.032   .     S
O254   Zn258   2.032   .     S
O255   Zn258   2.002   .     S
O256   Zn257   2.002   .     S
C259   H264    1.112   .     S
C259   H265    1.110   .     S
C259   C260    1.528   .     S
C260   H263    1.110   .     S
C260   H262    1.111   .     S
C260   H1197   1.109   1_554 S
H261   C1196   1.109   .     S
C266   H272    1.112   .     S
C266   H271    1.110   .     S
C266   C1203   1.527   .     S
C267   H268    1.110   .     S
C267   H270    1.111   .     S
C267   C1202   1.527   1_554 S
C267   H1205   1.110   1_554 S
H269   C1203   1.110   .     S
C273   H278    1.107   .     S
C273   H279    1.091   .     S
C273   C274    1.540   .     S
C274   H276    1.111   .     S
C274   H277    1.107   .     S
C274   H275    1.108   .     S
C280   H286    1.099   .     S
C280   H285    1.098   .     S
C280   C281    1.535   .     S
C281   H282    1.104   .     S
C281   H283    1.110   .     S
C281   H284    1.110   .     S
C287   N288    1.157   .     T
C289   N290    1.158   .     T
C291   N292    1.156   .     T
C293   N294    1.157   .     T
C295   C296    1.533   .     S
C295   H300    1.111   .     S
C295   H301    1.112   .     S
C296   H299    1.109   .     S
C296   H298    1.111   .     S
C296   H297    1.108   .     S
C302   H308    1.099   .     S
C302   H307    1.110   .     S
C302   C303    1.531   .     S
C303   H304    1.107   .     S
C303   H306    1.110   .     S
C303   H305    1.108   .     S
C309   N310    1.157   .     T
C311   N312    1.157   .     T
C313   O355    1.277   .     A
C313   C324    1.450   .     S
C313   O353    1.293   .     A
C314   O356    1.278   .     A
C314   C323    1.422   .     S
C314   O354    1.277   .     A
C315   C344    1.401   .     A
C315   H347    1.083   .     S
C315   C317    1.394   .     A
C316   H348    1.073   .     S
C316   C318    1.403   .     A
C316   C343    1.415   .     A
C317   C363    1.518   .     S
C317   C1277   1.418   1_554 S
C318   C370    1.514   .     S
C318   C1278   1.408   .     S
C319   C395    1.446   .     S
C319   C324    1.413   .     A
C319   C633    1.383   .     S
C320   C397    1.455   .     S
C320   C323    1.407   .     A
C321   C323    1.406   .     A
C321   C399    1.532   .     S
C322   C406    1.517   .     S
C322   C324    1.416   .     A
C322   C632    1.392   .     S
C325   N352    1.370   .     A
C325   C413    1.438   .     S
C325   C431    1.412   .     S
C326   N351    1.367   .     A
C326   C415    1.438   .     S
C326   C536    1.408   1_455 S
C327   H349    1.079   .     S
C327   N351    1.362   .     A
C327   C533    1.412   1_455 S
C328   N352    1.358   .     A
C328   H350    1.067   .     S
C328   C430    1.408   .     S
C329   O357    1.304   .     A
C329   O359    1.289   .     A
C329   C331    1.494   .     S
C330   O358    1.307   .     A
C330   O360    1.276   .     A
C330   C332    1.477   .     S
C331   C335    1.416   .     A
C331   C337    1.439   .     A
C332   C336    1.422   .     A
C332   C338    1.432   .     A
C333   H345    1.082   .     S
C333   C341    1.400   .     A
C333   C335    1.389   .     A
C334   C336    1.401   .     A
C334   H346    1.083   .     S
C334   C342    1.404   .     A
C335   C393    1.447   .     S
C336   C391    1.443   .     S
C337   C384    1.530   .     S
C337   C339    1.427   .     A
C338   C377    1.554   .     S
C338   C340    1.393   .     A
C339   C341    1.424   .     A
C339   C343    1.428   .     A
C340   C344    1.407   .     A
C340   C342    1.404   .     A
C341   C1253   1.418   .     S
C342   C1254   1.408   1_554 S
C343   C1280   1.399   .     S
C344   C1279   1.399   1_554 S
N351   Zn361   2.000   .     S
N352   Zn362   2.000   .     S
O353   Zn361   2.009   .     S
O354   Zn362   2.009   .     S
O355   Zn362   2.019   .     S
O356   Zn361   2.019   .     S
O357   Zn361   2.032   .     S
O358   Zn362   2.032   .     S
O359   Zn362   2.002   .     S
O360   Zn361   2.002   .     S
C363   H368    1.112   .     S
C363   H369    1.110   .     S
C363   C364    1.528   .     S
C364   H367    1.110   .     S
C364   H366    1.111   .     S
C364   H1301   1.109   1_554 S
H365   C1300   1.109   .     S
C370   H376    1.112   .     S
C370   H375    1.110   .     S
C370   C1307   1.527   .     S
C371   H372    1.110   .     S
C371   H374    1.111   .     S
C371   C1306   1.527   1_554 S
C371   H1309   1.110   1_554 S
H373   C1307   1.110   .     S
C377   H382    1.107   .     S
C377   H383    1.091   .     S
C377   C378    1.540   .     S
C378   H380    1.111   .     S
C378   H381    1.107   .     S
C378   H379    1.108   .     S
C384   H390    1.099   .     S
C384   H389    1.098   .     S
C384   C385    1.535   .     S
C385   H386    1.104   .     S
C385   H387    1.110   .     S
C385   H388    1.110   .     S
C391   N392    1.157   .     T
C393   N394    1.158   .     T
C395   N396    1.156   .     T
C397   N398    1.157   .     T
C399   C400    1.533   .     S
C399   H404    1.111   .     S
C399   H405    1.112   .     S
C400   H403    1.109   .     S
C400   H402    1.111   .     S
C400   H401    1.108   .     S
C406   H412    1.099   .     S
C406   H411    1.110   .     S
C406   C407    1.531   .     S
C407   H408    1.107   .     S
C407   H410    1.110   .     S
C407   H409    1.108   .     S
C413   N414    1.157   .     T
C415   N416    1.157   .     T
C417   O459    1.277   .     A
C417   C428    1.450   .     S
C417   O457    1.293   .     A
C418   O460    1.278   .     A
C418   C427    1.422   .     S
C418   O458    1.277   .     A
C419   C448    1.401   .     A
C419   H451    1.083   .     S
C419   C421    1.394   .     A
C420   H452    1.073   .     S
C420   C422    1.403   .     A
C420   C447    1.415   .     A
C421   C467    1.518   .     S
C421   C1381   1.418   1_554 S
C422   C474    1.514   .     S
C422   C1382   1.408   .     S
C423   C499    1.446   .     S
C423   C428    1.413   .     A
C423   C737    1.383   .     S
C424   C501    1.455   .     S
C424   C427    1.407   .     A
C425   C427    1.406   .     A
C425   C503    1.532   .     S
C426   C510    1.517   .     S
C426   C428    1.416   .     A
C426   C736    1.392   .     S
C429   N456    1.370   .     A
C429   C517    1.438   .     S
C429   C535    1.412   .     S
C430   N455    1.367   .     A
C430   C519    1.438   .     S
C431   H453    1.079   .     S
C431   N455    1.362   .     A
C432   N456    1.358   .     A
C432   H454    1.067   .     S
C432   C534    1.408   .     S
C433   O461    1.304   .     A
C433   O463    1.289   .     A
C433   C435    1.494   .     S
C434   O462    1.307   .     A
C434   O464    1.276   .     A
C434   C436    1.477   .     S
C435   C439    1.416   .     A
C435   C441    1.439   .     A
C436   C440    1.422   .     A
C436   C442    1.432   .     A
C437   H449    1.082   .     S
C437   C445    1.400   .     A
C437   C439    1.389   .     A
C438   C440    1.401   .     A
C438   H450    1.083   .     S
C438   C446    1.404   .     A
C439   C497    1.447   .     S
C440   C495    1.443   .     S
C441   C488    1.530   .     S
C441   C443    1.427   .     A
C442   C481    1.554   .     S
C442   C444    1.393   .     A
C443   C445    1.424   .     A
C443   C447    1.428   .     A
C444   C448    1.407   .     A
C444   C446    1.404   .     A
C445   C1357   1.418   .     S
C446   C1358   1.408   1_554 S
C447   C1384   1.399   .     S
C448   C1383   1.399   1_554 S
N455   Zn465   2.000   .     S
N456   Zn466   2.000   .     S
O457   Zn465   2.009   .     S
O458   Zn466   2.009   .     S
O459   Zn466   2.019   .     S
O460   Zn465   2.019   .     S
O461   Zn465   2.032   .     S
O462   Zn466   2.032   .     S
O463   Zn466   2.002   .     S
O464   Zn465   2.002   .     S
C467   H472    1.112   .     S
C467   H473    1.110   .     S
C467   C468    1.528   .     S
C468   H471    1.110   .     S
C468   H470    1.111   .     S
C468   H1405   1.109   1_554 S
H469   C1404   1.109   .     S
C474   H480    1.112   .     S
C474   H479    1.110   .     S
C474   C1411   1.527   .     S
C475   H476    1.110   .     S
C475   H478    1.111   .     S
C475   C1410   1.527   1_554 S
C475   H1413   1.110   1_554 S
H477   C1411   1.110   .     S
C481   H486    1.107   .     S
C481   H487    1.091   .     S
C481   C482    1.540   .     S
C482   H484    1.111   .     S
C482   H485    1.107   .     S
C482   H483    1.108   .     S
C488   H494    1.099   .     S
C488   H493    1.098   .     S
C488   C489    1.535   .     S
C489   H490    1.104   .     S
C489   H491    1.110   .     S
C489   H492    1.110   .     S
C495   N496    1.157   .     T
C497   N498    1.158   .     T
C499   N500    1.156   .     T
C501   N502    1.157   .     T
C503   C504    1.533   .     S
C503   H508    1.111   .     S
C503   H509    1.112   .     S
C504   H507    1.109   .     S
C504   H506    1.111   .     S
C504   H505    1.108   .     S
C510   H516    1.099   .     S
C510   H515    1.110   .     S
C510   C511    1.531   .     S
C511   H512    1.107   .     S
C511   H514    1.110   .     S
C511   H513    1.108   .     S
C517   N518    1.157   .     T
C519   N520    1.157   .     T
C521   O563    1.277   .     A
C521   C532    1.450   .     S
C521   O561    1.293   .     A
C522   O564    1.278   .     A
C522   C531    1.422   .     S
C522   O562    1.277   .     A
C523   C552    1.401   .     A
C523   H555    1.083   .     S
C523   C525    1.394   .     A
C524   H556    1.073   .     S
C524   C526    1.403   .     A
C524   C551    1.415   .     A
C525   C571    1.518   .     S
C525   C1485   1.418   1_554 S
C526   C578    1.514   .     S
C526   C1486   1.408   .     S
C527   C603    1.446   .     S
C527   C532    1.413   .     A
C527   C841    1.383   .     S
C528   C605    1.455   .     S
C528   C531    1.407   .     A
C529   C531    1.406   .     A
C529   C607    1.532   .     S
C530   C614    1.517   .     S
C530   C532    1.416   .     A
C530   C840    1.392   .     S
C533   N560    1.370   .     A
C533   C621    1.438   .     S
C533   C327    1.412   1_655 S
C534   N559    1.367   .     A
C534   C623    1.438   .     S
C535   H557    1.079   .     S
C535   N559    1.362   .     A
C536   N560    1.358   .     A
C536   H558    1.067   .     S
C536   C326    1.408   1_655 S
C537   O565    1.304   .     A
C537   O567    1.289   .     A
C537   C539    1.494   .     S
C538   O566    1.307   .     A
C538   O568    1.276   .     A
C538   C540    1.477   .     S
C539   C543    1.416   .     A
C539   C545    1.439   .     A
C540   C544    1.422   .     A
C540   C546    1.432   .     A
C541   H553    1.082   .     S
C541   C549    1.400   .     A
C541   C543    1.389   .     A
C542   C544    1.401   .     A
C542   H554    1.083   .     S
C542   C550    1.404   .     A
C543   C601    1.447   .     S
C544   C599    1.443   .     S
C545   C592    1.530   .     S
C545   C547    1.427   .     A
C546   C585    1.554   .     S
C546   C548    1.393   .     A
C547   C549    1.424   .     A
C547   C551    1.428   .     A
C548   C552    1.407   .     A
C548   C550    1.404   .     A
C549   C1461   1.418   .     S
C550   C1462   1.408   1_554 S
C551   C1488   1.399   .     S
C552   C1487   1.399   1_554 S
N559   Zn569   2.000   .     S
N560   Zn570   2.000   .     S
O561   Zn569   2.009   .     S
O562   Zn570   2.009   .     S
O563   Zn570   2.019   .     S
O564   Zn569   2.019   .     S
O565   Zn569   2.032   .     S
O566   Zn570   2.032   .     S
O567   Zn570   2.002   .     S
O568   Zn569   2.002   .     S
C571   H576    1.112   .     S
C571   H577    1.110   .     S
C571   C572    1.528   .     S
C572   H575    1.110   .     S
C572   H574    1.111   .     S
C572   H1509   1.109   1_554 S
H573   C1508   1.109   .     S
C578   H584    1.112   .     S
C578   H583    1.110   .     S
C578   C1515   1.527   .     S
C579   H580    1.110   .     S
C579   H582    1.111   .     S
C579   C1514   1.527   1_554 S
C579   H1517   1.110   1_554 S
H581   C1515   1.110   .     S
C585   H590    1.107   .     S
C585   H591    1.091   .     S
C585   C586    1.540   .     S
C586   H588    1.111   .     S
C586   H589    1.107   .     S
C586   H587    1.108   .     S
C592   H598    1.099   .     S
C592   H597    1.098   .     S
C592   C593    1.535   .     S
C593   H594    1.104   .     S
C593   H595    1.110   .     S
C593   H596    1.110   .     S
C599   N600    1.157   .     T
C601   N602    1.158   .     T
C603   N604    1.156   .     T
C605   N606    1.157   .     T
C607   C608    1.533   .     S
C607   H612    1.111   .     S
C607   H613    1.112   .     S
C608   H611    1.109   .     S
C608   H610    1.111   .     S
C608   H609    1.108   .     S
C614   H620    1.099   .     S
C614   H619    1.110   .     S
C614   C615    1.531   .     S
C615   H616    1.107   .     S
C615   H618    1.110   .     S
C615   H617    1.108   .     S
C621   N622    1.157   .     T
C623   N624    1.157   .     T
C625   O667    1.277   .     A
C625   C636    1.450   .     S
C625   O665    1.293   .     A
C626   O668    1.278   .     A
C626   C635    1.422   .     S
C626   O666    1.277   .     A
C627   C656    1.401   .     A
C627   H659    1.083   .     S
C627   C629    1.394   .     A
C628   H660    1.073   .     S
C628   C630    1.403   .     A
C628   C655    1.415   .     A
C629   C675    1.518   .     S
C629   C1589   1.418   1_554 S
C630   C682    1.514   .     S
C630   C1590   1.408   .     S
C631   C707    1.446   .     S
C631   C636    1.413   .     A
C631   C9      1.383   1_565 S
C632   C709    1.455   .     S
C632   C635    1.407   .     A
C633   C635    1.406   .     A
C633   C711    1.532   .     S
C634   C718    1.517   .     S
C634   C636    1.416   .     A
C634   C8      1.392   1_565 S
C637   N664    1.370   .     A
C637   C725    1.438   .     S
C637   C743    1.412   .     S
C638   N663    1.367   .     A
C638   C727    1.438   .     S
C638   C848    1.408   1_455 S
C639   H661    1.079   .     S
C639   N663    1.362   .     A
C639   C845    1.412   1_455 S
C640   N664    1.358   .     A
C640   H662    1.067   .     S
C640   C742    1.408   .     S
C641   O669    1.304   .     A
C641   O671    1.289   .     A
C641   C643    1.494   .     S
C642   O670    1.307   .     A
C642   O672    1.276   .     A
C642   C644    1.477   .     S
C643   C647    1.416   .     A
C643   C649    1.439   .     A
C644   C648    1.422   .     A
C644   C650    1.432   .     A
C645   H657    1.082   .     S
C645   C653    1.400   .     A
C645   C647    1.389   .     A
C646   C648    1.401   .     A
C646   H658    1.083   .     S
C646   C654    1.404   .     A
C647   C705    1.447   .     S
C648   C703    1.443   .     S
C649   C696    1.530   .     S
C649   C651    1.427   .     A
C650   C689    1.554   .     S
C650   C652    1.393   .     A
C651   C653    1.424   .     A
C651   C655    1.428   .     A
C652   C656    1.407   .     A
C652   C654    1.404   .     A
C653   C1565   1.418   .     S
C654   C1566   1.408   1_554 S
C655   C1592   1.399   .     S
C656   C1591   1.399   1_554 S
N663   Zn673   2.000   .     S
N664   Zn674   2.000   .     S
O665   Zn673   2.009   .     S
O666   Zn674   2.009   .     S
O667   Zn674   2.019   .     S
O668   Zn673   2.019   .     S
O669   Zn673   2.032   .     S
O670   Zn674   2.032   .     S
O671   Zn674   2.002   .     S
O672   Zn673   2.002   .     S
C675   H680    1.112   .     S
C675   H681    1.110   .     S
C675   C676    1.528   .     S
C676   H679    1.110   .     S
C676   H678    1.111   .     S
C676   H1613   1.109   1_554 S
H677   C1612   1.109   .     S
C682   H688    1.112   .     S
C682   H687    1.110   .     S
C682   C1619   1.527   .     S
C683   H684    1.110   .     S
C683   H686    1.111   .     S
C683   C1618   1.527   1_554 S
C683   H1621   1.110   1_554 S
H685   C1619   1.110   .     S
C689   H694    1.107   .     S
C689   H695    1.091   .     S
C689   C690    1.540   .     S
C690   H692    1.111   .     S
C690   H693    1.107   .     S
C690   H691    1.108   .     S
C696   H702    1.099   .     S
C696   H701    1.098   .     S
C696   C697    1.535   .     S
C697   H698    1.104   .     S
C697   H699    1.110   .     S
C697   H700    1.110   .     S
C703   N704    1.157   .     T
C705   N706    1.158   .     T
C707   N708    1.156   .     T
C709   N710    1.157   .     T
C711   C712    1.533   .     S
C711   H716    1.111   .     S
C711   H717    1.112   .     S
C712   H715    1.109   .     S
C712   H714    1.111   .     S
C712   H713    1.108   .     S
C718   H724    1.099   .     S
C718   H723    1.110   .     S
C718   C719    1.531   .     S
C719   H720    1.107   .     S
C719   H722    1.110   .     S
C719   H721    1.108   .     S
C725   N726    1.157   .     T
C727   N728    1.157   .     T
C729   O771    1.277   .     A
C729   C740    1.450   .     S
C729   O769    1.293   .     A
C730   O772    1.278   .     A
C730   C739    1.422   .     S
C730   O770    1.277   .     A
C731   C760    1.401   .     A
C731   H763    1.083   .     S
C731   C733    1.394   .     A
C732   H764    1.073   .     S
C732   C734    1.403   .     A
C732   C759    1.415   .     A
C733   C779    1.518   .     S
C733   C1693   1.418   1_554 S
C734   C786    1.514   .     S
C734   C1694   1.408   .     S
C735   C811    1.446   .     S
C735   C740    1.413   .     A
C735   C113    1.383   1_565 S
C736   C813    1.455   .     S
C736   C739    1.407   .     A
C737   C739    1.406   .     A
C737   C815    1.532   .     S
C738   C822    1.517   .     S
C738   C740    1.416   .     A
C738   C112    1.392   1_565 S
C741   N768    1.370   .     A
C741   C829    1.438   .     S
C741   C847    1.412   .     S
C742   N767    1.367   .     A
C742   C831    1.438   .     S
C743   H765    1.079   .     S
C743   N767    1.362   .     A
C744   N768    1.358   .     A
C744   H766    1.067   .     S
C744   C846    1.408   .     S
C745   O773    1.304   .     A
C745   O775    1.289   .     A
C745   C747    1.494   .     S
C746   O774    1.307   .     A
C746   O776    1.276   .     A
C746   C748    1.477   .     S
C747   C751    1.416   .     A
C747   C753    1.439   .     A
C748   C752    1.422   .     A
C748   C754    1.432   .     A
C749   H761    1.082   .     S
C749   C757    1.400   .     A
C749   C751    1.389   .     A
C750   C752    1.401   .     A
C750   H762    1.083   .     S
C750   C758    1.404   .     A
C751   C809    1.447   .     S
C752   C807    1.443   .     S
C753   C800    1.530   .     S
C753   C755    1.427   .     A
C754   C793    1.554   .     S
C754   C756    1.393   .     A
C755   C757    1.424   .     A
C755   C759    1.428   .     A
C756   C760    1.407   .     A
C756   C758    1.404   .     A
C757   C1669   1.418   .     S
C758   C1670   1.408   1_554 S
C759   C1696   1.399   .     S
C760   C1695   1.399   1_554 S
N767   Zn777   2.000   .     S
N768   Zn778   2.000   .     S
O769   Zn777   2.009   .     S
O770   Zn778   2.009   .     S
O771   Zn778   2.019   .     S
O772   Zn777   2.019   .     S
O773   Zn777   2.032   .     S
O774   Zn778   2.032   .     S
O775   Zn778   2.002   .     S
O776   Zn777   2.002   .     S
C779   H784    1.112   .     S
C779   H785    1.110   .     S
C779   C780    1.528   .     S
C780   H783    1.110   .     S
C780   H782    1.111   .     S
C780   H1717   1.109   1_554 S
H781   C1716   1.109   .     S
C786   H792    1.112   .     S
C786   H791    1.110   .     S
C786   C1723   1.527   .     S
C787   H788    1.110   .     S
C787   H790    1.111   .     S
C787   C1722   1.527   1_554 S
C787   H1725   1.110   1_554 S
H789   C1723   1.110   .     S
C793   H798    1.107   .     S
C793   H799    1.091   .     S
C793   C794    1.540   .     S
C794   H796    1.111   .     S
C794   H797    1.107   .     S
C794   H795    1.108   .     S
C800   H806    1.099   .     S
C800   H805    1.098   .     S
C800   C801    1.535   .     S
C801   H802    1.104   .     S
C801   H803    1.110   .     S
C801   H804    1.110   .     S
C807   N808    1.157   .     T
C809   N810    1.158   .     T
C811   N812    1.156   .     T
C813   N814    1.157   .     T
C815   C816    1.533   .     S
C815   H820    1.111   .     S
C815   H821    1.112   .     S
C816   H819    1.109   .     S
C816   H818    1.111   .     S
C816   H817    1.108   .     S
C822   H828    1.099   .     S
C822   H827    1.110   .     S
C822   C823    1.531   .     S
C823   H824    1.107   .     S
C823   H826    1.110   .     S
C823   H825    1.108   .     S
C829   N830    1.157   .     T
C831   N832    1.157   .     T
C833   O875    1.277   .     A
C833   C844    1.450   .     S
C833   O873    1.293   .     A
C834   O876    1.278   .     A
C834   C843    1.422   .     S
C834   O874    1.277   .     A
C835   C864    1.401   .     A
C835   H867    1.083   .     S
C835   C837    1.394   .     A
C836   H868    1.073   .     S
C836   C838    1.403   .     A
C836   C863    1.415   .     A
C837   C883    1.518   .     S
C837   C1797   1.418   1_554 S
C838   C890    1.514   .     S
C838   C1798   1.408   .     S
C839   C915    1.446   .     S
C839   C844    1.413   .     A
C839   C217    1.383   1_565 S
C840   C917    1.455   .     S
C840   C843    1.407   .     A
C841   C843    1.406   .     A
C841   C919    1.532   .     S
C842   C926    1.517   .     S
C842   C844    1.416   .     A
C842   C216    1.392   1_565 S
C845   N872    1.370   .     A
C845   C933    1.438   .     S
C845   C639    1.412   1_655 S
C846   N871    1.367   .     A
C846   C935    1.438   .     S
C847   H869    1.079   .     S
C847   N871    1.362   .     A
C848   N872    1.358   .     A
C848   H870    1.067   .     S
C848   C638    1.408   1_655 S
C849   O877    1.304   .     A
C849   O879    1.289   .     A
C849   C851    1.494   .     S
C850   O878    1.307   .     A
C850   O880    1.276   .     A
C850   C852    1.477   .     S
C851   C855    1.416   .     A
C851   C857    1.439   .     A
C852   C856    1.422   .     A
C852   C858    1.432   .     A
C853   H865    1.082   .     S
C853   C861    1.400   .     A
C853   C855    1.389   .     A
C854   C856    1.401   .     A
C854   H866    1.083   .     S
C854   C862    1.404   .     A
C855   C913    1.447   .     S
C856   C911    1.443   .     S
C857   C904    1.530   .     S
C857   C859    1.427   .     A
C858   C897    1.554   .     S
C858   C860    1.393   .     A
C859   C861    1.424   .     A
C859   C863    1.428   .     A
C860   C864    1.407   .     A
C860   C862    1.404   .     A
C861   C1773   1.418   .     S
C862   C1774   1.408   1_554 S
C863   C1800   1.399   .     S
C864   C1799   1.399   1_554 S
N871   Zn881   2.000   .     S
N872   Zn882   2.000   .     S
O873   Zn881   2.009   .     S
O874   Zn882   2.009   .     S
O875   Zn882   2.019   .     S
O876   Zn881   2.019   .     S
O877   Zn881   2.032   .     S
O878   Zn882   2.032   .     S
O879   Zn882   2.002   .     S
O880   Zn881   2.002   .     S
C883   H888    1.112   .     S
C883   H889    1.110   .     S
C883   C884    1.528   .     S
C884   H887    1.110   .     S
C884   H886    1.111   .     S
C884   H1821   1.109   1_554 S
H885   C1820   1.109   .     S
C890   H896    1.112   .     S
C890   H895    1.110   .     S
C890   C1827   1.527   .     S
C891   H892    1.110   .     S
C891   H894    1.111   .     S
C891   C1826   1.527   1_554 S
C891   H1829   1.110   1_554 S
H893   C1827   1.110   .     S
C897   H902    1.107   .     S
C897   H903    1.091   .     S
C897   C898    1.540   .     S
C898   H900    1.111   .     S
C898   H901    1.107   .     S
C898   H899    1.108   .     S
C904   H910    1.099   .     S
C904   H909    1.098   .     S
C904   C905    1.535   .     S
C905   H906    1.104   .     S
C905   H907    1.110   .     S
C905   H908    1.110   .     S
C911   N912    1.157   .     T
C913   N914    1.158   .     T
C915   N916    1.156   .     T
C917   N918    1.157   .     T
C919   C920    1.533   .     S
C919   H924    1.111   .     S
C919   H925    1.112   .     S
C920   H923    1.109   .     S
C920   H922    1.111   .     S
C920   H921    1.108   .     S
C926   H932    1.099   .     S
C926   H931    1.110   .     S
C926   C927    1.531   .     S
C927   H928    1.107   .     S
C927   H930    1.110   .     S
C927   H929    1.108   .     S
C933   N934    1.157   .     T
C935   N936    1.157   .     T
C937   O979    1.277   .     A
C937   C948    1.450   .     S
C937   O977    1.293   .     A
C938   O980    1.278   .     A
C938   C947    1.422   .     S
C938   O978    1.277   .     A
C939   C968    1.401   .     A
C939   H971    1.083   .     S
C939   C941    1.394   .     A
C940   H972    1.073   .     S
C940   C942    1.403   .     A
C940   C967    1.415   .     A
C941   C987    1.518   .     S
C942   C994    1.514   .     S
C942   C30     1.408   1_556 S
C943   C1019   1.446   .     S
C943   C948    1.413   .     A
C943   C1257   1.383   .     S
C944   C1021   1.455   .     S
C944   C947    1.407   .     A
C944   C1570   1.392   1_545 S
C945   C947    1.406   .     A
C945   C1023   1.532   .     S
C945   C1567   1.383   1_545 S
C946   C1030   1.517   .     S
C946   C948    1.416   .     A
C946   C1256   1.392   .     S
C949   N976    1.370   .     A
C949   C1037   1.438   .     S
C949   C1055   1.412   .     S
C950   N975    1.367   .     A
C950   C1039   1.438   .     S
C950   C1160   1.408   1_455 S
C951   H973    1.079   .     S
C951   N975    1.362   .     A
C951   C1157   1.412   1_455 S
C952   N976    1.358   .     A
C952   H974    1.067   .     S
C952   C1054   1.408   .     S
C953   O981    1.304   .     A
C953   O983    1.289   .     A
C953   C955    1.494   .     S
C954   O982    1.307   .     A
C954   O984    1.276   .     A
C954   C956    1.477   .     S
C955   C959    1.416   .     A
C955   C961    1.439   .     A
C956   C960    1.422   .     A
C956   C962    1.432   .     A
C957   H969    1.082   .     S
C957   C965    1.400   .     A
C957   C959    1.389   .     A
C958   C960    1.401   .     A
C958   H970    1.083   .     S
C958   C966    1.404   .     A
C959   C1017   1.447   .     S
C960   C1015   1.443   .     S
C961   C1008   1.530   .     S
C961   C963    1.427   .     A
C962   C1001   1.554   .     S
C962   C964    1.393   .     A
C963   C965    1.424   .     A
C963   C967    1.428   .     A
C964   C968    1.407   .     A
C964   C966    1.404   .     A
C965   C5      1.418   1_556 S
C967   C32     1.399   1_556 S
N975   Zn985   2.000   .     S
N976   Zn986   2.000   .     S
O977   Zn985   2.009   .     S
O978   Zn986   2.009   .     S
O979   Zn986   2.019   .     S
O980   Zn985   2.019   .     S
O981   Zn985   2.032   .     S
O982   Zn986   2.032   .     S
O983   Zn986   2.002   .     S
O984   Zn985   2.002   .     S
C987   H992    1.112   .     S
C987   H993    1.110   .     S
C987   C988    1.528   .     S
C988   H991    1.110   .     S
C988   H990    1.111   .     S
H989   C52     1.109   1_556 S
C994   H1000   1.112   .     S
C994   H999    1.110   .     S
C994   C59     1.527   1_556 S
C995   H996    1.110   .     S
C995   H998    1.111   .     S
H997   C59     1.110   1_556 S
C1001  H1006   1.107   .     S
C1001  H1007   1.091   .     S
C1001  C1002   1.540   .     S
C1002  H1004   1.111   .     S
C1002  H1005   1.107   .     S
C1002  H1003   1.108   .     S
C1008  H1014   1.099   .     S
C1008  H1013   1.098   .     S
C1008  C1009   1.535   .     S
C1009  H1010   1.104   .     S
C1009  H1011   1.110   .     S
C1009  H1012   1.110   .     S
C1015  N1016   1.157   .     T
C1017  N1018   1.158   .     T
C1019  N1020   1.156   .     T
C1021  N1022   1.157   .     T
C1023  C1024   1.533   .     S
C1023  H1028   1.111   .     S
C1023  H1029   1.112   .     S
C1024  H1027   1.109   .     S
C1024  H1026   1.111   .     S
C1024  H1025   1.108   .     S
C1030  H1036   1.099   .     S
C1030  H1035   1.110   .     S
C1030  C1031   1.531   .     S
C1031  H1032   1.107   .     S
C1031  H1034   1.110   .     S
C1031  H1033   1.108   .     S
C1037  N1038   1.157   .     T
C1039  N1040   1.157   .     T
C1041  O1083   1.277   .     A
C1041  C1052   1.450   .     S
C1041  O1081   1.293   .     A
C1042  O1084   1.278   .     A
C1042  C1051   1.422   .     S
C1042  O1082   1.277   .     A
C1043  C1072   1.401   .     A
C1043  H1075   1.083   .     S
C1043  C1045   1.394   .     A
C1044  H1076   1.073   .     S
C1044  C1046   1.403   .     A
C1044  C1071   1.415   .     A
C1045  C1091   1.518   .     S
C1046  C1098   1.514   .     S
C1046  C134    1.408   1_556 S
C1047  C1123   1.446   .     S
C1047  C1052   1.413   .     A
C1047  C1361   1.383   .     S
C1048  C1125   1.455   .     S
C1048  C1051   1.407   .     A
C1048  C1674   1.392   1_545 S
C1049  C1051   1.406   .     A
C1049  C1127   1.532   .     S
C1049  C1671   1.383   1_545 S
C1050  C1134   1.517   .     S
C1050  C1052   1.416   .     A
C1050  C1360   1.392   .     S
C1053  N1080   1.370   .     A
C1053  C1141   1.438   .     S
C1053  C1159   1.412   .     S
C1054  N1079   1.367   .     A
C1054  C1143   1.438   .     S
C1055  H1077   1.079   .     S
C1055  N1079   1.362   .     A
C1056  N1080   1.358   .     A
C1056  H1078   1.067   .     S
C1056  C1158   1.408   .     S
C1057  O1085   1.304   .     A
C1057  O1087   1.289   .     A
C1057  C1059   1.494   .     S
C1058  O1086   1.307   .     A
C1058  O1088   1.276   .     A
C1058  C1060   1.477   .     S
C1059  C1063   1.416   .     A
C1059  C1065   1.439   .     A
C1060  C1064   1.422   .     A
C1060  C1066   1.432   .     A
C1061  H1073   1.082   .     S
C1061  C1069   1.400   .     A
C1061  C1063   1.389   .     A
C1062  C1064   1.401   .     A
C1062  H1074   1.083   .     S
C1062  C1070   1.404   .     A
C1063  C1121   1.447   .     S
C1064  C1119   1.443   .     S
C1065  C1112   1.530   .     S
C1065  C1067   1.427   .     A
C1066  C1105   1.554   .     S
C1066  C1068   1.393   .     A
C1067  C1069   1.424   .     A
C1067  C1071   1.428   .     A
C1068  C1072   1.407   .     A
C1068  C1070   1.404   .     A
C1069  C109    1.418   1_556 S
C1071  C136    1.399   1_556 S
N1079  Zn1089  2.000   .     S
N1080  Zn1090  2.000   .     S
O1081  Zn1089  2.009   .     S
O1082  Zn1090  2.009   .     S
O1083  Zn1090  2.019   .     S
O1084  Zn1089  2.019   .     S
O1085  Zn1089  2.032   .     S
O1086  Zn1090  2.032   .     S
O1087  Zn1090  2.002   .     S
O1088  Zn1089  2.002   .     S
C1091  H1096   1.112   .     S
C1091  H1097   1.110   .     S
C1091  C1092   1.528   .     S
C1092  H1095   1.110   .     S
C1092  H1094   1.111   .     S
H1093  C156    1.109   1_556 S
C1098  H1104   1.112   .     S
C1098  H1103   1.110   .     S
C1098  C163    1.527   1_556 S
C1099  H1100   1.110   .     S
C1099  H1102   1.111   .     S
H1101  C163    1.110   1_556 S
C1105  H1110   1.107   .     S
C1105  H1111   1.091   .     S
C1105  C1106   1.540   .     S
C1106  H1108   1.111   .     S
C1106  H1109   1.107   .     S
C1106  H1107   1.108   .     S
C1112  H1118   1.099   .     S
C1112  H1117   1.098   .     S
C1112  C1113   1.535   .     S
C1113  H1114   1.104   .     S
C1113  H1115   1.110   .     S
C1113  H1116   1.110   .     S
C1119  N1120   1.157   .     T
C1121  N1122   1.158   .     T
C1123  N1124   1.156   .     T
C1125  N1126   1.157   .     T
C1127  C1128   1.533   .     S
C1127  H1132   1.111   .     S
C1127  H1133   1.112   .     S
C1128  H1131   1.109   .     S
C1128  H1130   1.111   .     S
C1128  H1129   1.108   .     S
C1134  H1140   1.099   .     S
C1134  H1139   1.110   .     S
C1134  C1135   1.531   .     S
C1135  H1136   1.107   .     S
C1135  H1138   1.110   .     S
C1135  H1137   1.108   .     S
C1141  N1142   1.157   .     T
C1143  N1144   1.157   .     T
C1145  O1187   1.277   .     A
C1145  C1156   1.450   .     S
C1145  O1185   1.293   .     A
C1146  O1188   1.278   .     A
C1146  C1155   1.422   .     S
C1146  O1186   1.277   .     A
C1147  C1176   1.401   .     A
C1147  H1179   1.083   .     S
C1147  C1149   1.394   .     A
C1148  H1180   1.073   .     S
C1148  C1150   1.403   .     A
C1148  C1175   1.415   .     A
C1149  C1195   1.518   .     S
C1150  C1202   1.514   .     S
C1150  C238    1.408   1_556 S
C1151  C1227   1.446   .     S
C1151  C1156   1.413   .     A
C1151  C1465   1.383   .     S
C1152  C1229   1.455   .     S
C1152  C1155   1.407   .     A
C1152  C1778   1.392   1_545 S
C1153  C1155   1.406   .     A
C1153  C1231   1.532   .     S
C1153  C1775   1.383   1_545 S
C1154  C1238   1.517   .     S
C1154  C1156   1.416   .     A
C1154  C1464   1.392   .     S
C1157  N1184   1.370   .     A
C1157  C1245   1.438   .     S
C1157  C951    1.412   1_655 S
C1158  N1183   1.367   .     A
C1158  C1247   1.438   .     S
C1159  H1181   1.079   .     S
C1159  N1183   1.362   .     A
C1160  N1184   1.358   .     A
C1160  H1182   1.067   .     S
C1160  C950    1.408   1_655 S
C1161  O1189   1.304   .     A
C1161  O1191   1.289   .     A
C1161  C1163   1.494   .     S
C1162  O1190   1.307   .     A
C1162  O1192   1.276   .     A
C1162  C1164   1.477   .     S
C1163  C1167   1.416   .     A
C1163  C1169   1.439   .     A
C1164  C1168   1.422   .     A
C1164  C1170   1.432   .     A
C1165  H1177   1.082   .     S
C1165  C1173   1.400   .     A
C1165  C1167   1.389   .     A
C1166  C1168   1.401   .     A
C1166  H1178   1.083   .     S
C1166  C1174   1.404   .     A
C1167  C1225   1.447   .     S
C1168  C1223   1.443   .     S
C1169  C1216   1.530   .     S
C1169  C1171   1.427   .     A
C1170  C1209   1.554   .     S
C1170  C1172   1.393   .     A
C1171  C1173   1.424   .     A
C1171  C1175   1.428   .     A
C1172  C1176   1.407   .     A
C1172  C1174   1.404   .     A
C1173  C213    1.418   1_556 S
C1175  C240    1.399   1_556 S
N1183  Zn1193  2.000   .     S
N1184  Zn1194  2.000   .     S
O1185  Zn1193  2.009   .     S
O1186  Zn1194  2.009   .     S
O1187  Zn1194  2.019   .     S
O1188  Zn1193  2.019   .     S
O1189  Zn1193  2.032   .     S
O1190  Zn1194  2.032   .     S
O1191  Zn1194  2.002   .     S
O1192  Zn1193  2.002   .     S
C1195  H1200   1.112   .     S
C1195  H1201   1.110   .     S
C1195  C1196   1.528   .     S
C1196  H1199   1.110   .     S
C1196  H1198   1.111   .     S
H1197  C260    1.109   1_556 S
C1202  H1208   1.112   .     S
C1202  H1207   1.110   .     S
C1202  C267    1.527   1_556 S
C1203  H1204   1.110   .     S
C1203  H1206   1.111   .     S
H1205  C267    1.110   1_556 S
C1209  H1214   1.107   .     S
C1209  H1215   1.091   .     S
C1209  C1210   1.540   .     S
C1210  H1212   1.111   .     S
C1210  H1213   1.107   .     S
C1210  H1211   1.108   .     S
C1216  H1222   1.099   .     S
C1216  H1221   1.098   .     S
C1216  C1217   1.535   .     S
C1217  H1218   1.104   .     S
C1217  H1219   1.110   .     S
C1217  H1220   1.110   .     S
C1223  N1224   1.157   .     T
C1225  N1226   1.158   .     T
C1227  N1228   1.156   .     T
C1229  N1230   1.157   .     T
C1231  C1232   1.533   .     S
C1231  H1236   1.111   .     S
C1231  H1237   1.112   .     S
C1232  H1235   1.109   .     S
C1232  H1234   1.111   .     S
C1232  H1233   1.108   .     S
C1238  H1244   1.099   .     S
C1238  H1243   1.110   .     S
C1238  C1239   1.531   .     S
C1239  H1240   1.107   .     S
C1239  H1242   1.110   .     S
C1239  H1241   1.108   .     S
C1245  N1246   1.157   .     T
C1247  N1248   1.157   .     T
C1249  O1291   1.277   .     A
C1249  C1260   1.450   .     S
C1249  O1289   1.293   .     A
C1250  O1292   1.278   .     A
C1250  C1259   1.422   .     S
C1250  O1290   1.277   .     A
C1251  C1280   1.401   .     A
C1251  H1283   1.083   .     S
C1251  C1253   1.394   .     A
C1252  H1284   1.073   .     S
C1252  C1254   1.403   .     A
C1252  C1279   1.415   .     A
C1253  C1299   1.518   .     S
C1254  C1306   1.514   .     S
C1254  C342    1.408   1_556 S
C1255  C1331   1.446   .     S
C1255  C1260   1.413   .     A
C1255  C1569   1.383   .     S
C1256  C1333   1.455   .     S
C1256  C1259   1.407   .     A
C1257  C1259   1.406   .     A
C1257  C1335   1.532   .     S
C1258  C1342   1.517   .     S
C1258  C1260   1.416   .     A
C1258  C1568   1.392   .     S
C1261  N1288   1.370   .     A
C1261  C1349   1.438   .     S
C1261  C1367   1.412   .     S
C1262  N1287   1.367   .     A
C1262  C1351   1.438   .     S
C1262  C1472   1.408   1_455 S
C1263  H1285   1.079   .     S
C1263  N1287   1.362   .     A
C1263  C1469   1.412   1_455 S
C1264  N1288   1.358   .     A
C1264  H1286   1.067   .     S
C1264  C1366   1.408   .     S
C1265  O1293   1.304   .     A
C1265  O1295   1.289   .     A
C1265  C1267   1.494   .     S
C1266  O1294   1.307   .     A
C1266  O1296   1.276   .     A
C1266  C1268   1.477   .     S
C1267  C1271   1.416   .     A
C1267  C1273   1.439   .     A
C1268  C1272   1.422   .     A
C1268  C1274   1.432   .     A
C1269  H1281   1.082   .     S
C1269  C1277   1.400   .     A
C1269  C1271   1.389   .     A
C1270  C1272   1.401   .     A
C1270  H1282   1.083   .     S
C1270  C1278   1.404   .     A
C1271  C1329   1.447   .     S
C1272  C1327   1.443   .     S
C1273  C1320   1.530   .     S
C1273  C1275   1.427   .     A
C1274  C1313   1.554   .     S
C1274  C1276   1.393   .     A
C1275  C1277   1.424   .     A
C1275  C1279   1.428   .     A
C1276  C1280   1.407   .     A
C1276  C1278   1.404   .     A
C1277  C317    1.418   1_556 S
C1279  C344    1.399   1_556 S
N1287  Zn1297  2.000   .     S
N1288  Zn1298  2.000   .     S
O1289  Zn1297  2.009   .     S
O1290  Zn1298  2.009   .     S
O1291  Zn1298  2.019   .     S
O1292  Zn1297  2.019   .     S
O1293  Zn1297  2.032   .     S
O1294  Zn1298  2.032   .     S
O1295  Zn1298  2.002   .     S
O1296  Zn1297  2.002   .     S
C1299  H1304   1.112   .     S
C1299  H1305   1.110   .     S
C1299  C1300   1.528   .     S
C1300  H1303   1.110   .     S
C1300  H1302   1.111   .     S
H1301  C364    1.109   1_556 S
C1306  H1312   1.112   .     S
C1306  H1311   1.110   .     S
C1306  C371    1.527   1_556 S
C1307  H1308   1.110   .     S
C1307  H1310   1.111   .     S
H1309  C371    1.110   1_556 S
C1313  H1318   1.107   .     S
C1313  H1319   1.091   .     S
C1313  C1314   1.540   .     S
C1314  H1316   1.111   .     S
C1314  H1317   1.107   .     S
C1314  H1315   1.108   .     S
C1320  H1326   1.099   .     S
C1320  H1325   1.098   .     S
C1320  C1321   1.535   .     S
C1321  H1322   1.104   .     S
C1321  H1323   1.110   .     S
C1321  H1324   1.110   .     S
C1327  N1328   1.157   .     T
C1329  N1330   1.158   .     T
C1331  N1332   1.156   .     T
C1333  N1334   1.157   .     T
C1335  C1336   1.533   .     S
C1335  H1340   1.111   .     S
C1335  H1341   1.112   .     S
C1336  H1339   1.109   .     S
C1336  H1338   1.111   .     S
C1336  H1337   1.108   .     S
C1342  H1348   1.099   .     S
C1342  H1347   1.110   .     S
C1342  C1343   1.531   .     S
C1343  H1344   1.107   .     S
C1343  H1346   1.110   .     S
C1343  H1345   1.108   .     S
C1349  N1350   1.157   .     T
C1351  N1352   1.157   .     T
C1353  O1395   1.277   .     A
C1353  C1364   1.450   .     S
C1353  O1393   1.293   .     A
C1354  O1396   1.278   .     A
C1354  C1363   1.422   .     S
C1354  O1394   1.277   .     A
C1355  C1384   1.401   .     A
C1355  H1387   1.083   .     S
C1355  C1357   1.394   .     A
C1356  H1388   1.073   .     S
C1356  C1358   1.403   .     A
C1356  C1383   1.415   .     A
C1357  C1403   1.518   .     S
C1358  C1410   1.514   .     S
C1358  C446    1.408   1_556 S
C1359  C1435   1.446   .     S
C1359  C1364   1.413   .     A
C1359  C1673   1.383   .     S
C1360  C1437   1.455   .     S
C1360  C1363   1.407   .     A
C1361  C1363   1.406   .     A
C1361  C1439   1.532   .     S
C1362  C1446   1.517   .     S
C1362  C1364   1.416   .     A
C1362  C1672   1.392   .     S
C1365  N1392   1.370   .     A
C1365  C1453   1.438   .     S
C1365  C1471   1.412   .     S
C1366  N1391   1.367   .     A
C1366  C1455   1.438   .     S
C1367  H1389   1.079   .     S
C1367  N1391   1.362   .     A
C1368  N1392   1.358   .     A
C1368  H1390   1.067   .     S
C1368  C1470   1.408   .     S
C1369  O1397   1.304   .     A
C1369  O1399   1.289   .     A
C1369  C1371   1.494   .     S
C1370  O1398   1.307   .     A
C1370  O1400   1.276   .     A
C1370  C1372   1.477   .     S
C1371  C1375   1.416   .     A
C1371  C1377   1.439   .     A
C1372  C1376   1.422   .     A
C1372  C1378   1.432   .     A
C1373  H1385   1.082   .     S
C1373  C1381   1.400   .     A
C1373  C1375   1.389   .     A
C1374  C1376   1.401   .     A
C1374  H1386   1.083   .     S
C1374  C1382   1.404   .     A
C1375  C1433   1.447   .     S
C1376  C1431   1.443   .     S
C1377  C1424   1.530   .     S
C1377  C1379   1.427   .     A
C1378  C1417   1.554   .     S
C1378  C1380   1.393   .     A
C1379  C1381   1.424   .     A
C1379  C1383   1.428   .     A
C1380  C1384   1.407   .     A
C1380  C1382   1.404   .     A
C1381  C421    1.418   1_556 S
C1383  C448    1.399   1_556 S
N1391  Zn1401  2.000   .     S
N1392  Zn1402  2.000   .     S
O1393  Zn1401  2.009   .     S
O1394  Zn1402  2.009   .     S
O1395  Zn1402  2.019   .     S
O1396  Zn1401  2.019   .     S
O1397  Zn1401  2.032   .     S
O1398  Zn1402  2.032   .     S
O1399  Zn1402  2.002   .     S
O1400  Zn1401  2.002   .     S
C1403  H1408   1.112   .     S
C1403  H1409   1.110   .     S
C1403  C1404   1.528   .     S
C1404  H1407   1.110   .     S
C1404  H1406   1.111   .     S
H1405  C468    1.109   1_556 S
C1410  H1416   1.112   .     S
C1410  H1415   1.110   .     S
C1410  C475    1.527   1_556 S
C1411  H1412   1.110   .     S
C1411  H1414   1.111   .     S
H1413  C475    1.110   1_556 S
C1417  H1422   1.107   .     S
C1417  H1423   1.091   .     S
C1417  C1418   1.540   .     S
C1418  H1420   1.111   .     S
C1418  H1421   1.107   .     S
C1418  H1419   1.108   .     S
C1424  H1430   1.099   .     S
C1424  H1429   1.098   .     S
C1424  C1425   1.535   .     S
C1425  H1426   1.104   .     S
C1425  H1427   1.110   .     S
C1425  H1428   1.110   .     S
C1431  N1432   1.157   .     T
C1433  N1434   1.158   .     T
C1435  N1436   1.156   .     T
C1437  N1438   1.157   .     T
C1439  C1440   1.533   .     S
C1439  H1444   1.111   .     S
C1439  H1445   1.112   .     S
C1440  H1443   1.109   .     S
C1440  H1442   1.111   .     S
C1440  H1441   1.108   .     S
C1446  H1452   1.099   .     S
C1446  H1451   1.110   .     S
C1446  C1447   1.531   .     S
C1447  H1448   1.107   .     S
C1447  H1450   1.110   .     S
C1447  H1449   1.108   .     S
C1453  N1454   1.157   .     T
C1455  N1456   1.157   .     T
C1457  O1499   1.277   .     A
C1457  C1468   1.450   .     S
C1457  O1497   1.293   .     A
C1458  O1500   1.278   .     A
C1458  C1467   1.422   .     S
C1458  O1498   1.277   .     A
C1459  C1488   1.401   .     A
C1459  H1491   1.083   .     S
C1459  C1461   1.394   .     A
C1460  H1492   1.073   .     S
C1460  C1462   1.403   .     A
C1460  C1487   1.415   .     A
C1461  C1507   1.518   .     S
C1462  C1514   1.514   .     S
C1462  C550    1.408   1_556 S
C1463  C1539   1.446   .     S
C1463  C1468   1.413   .     A
C1463  C1777   1.383   .     S
C1464  C1541   1.455   .     S
C1464  C1467   1.407   .     A
C1465  C1467   1.406   .     A
C1465  C1543   1.532   .     S
C1466  C1550   1.517   .     S
C1466  C1468   1.416   .     A
C1466  C1776   1.392   .     S
C1469  N1496   1.370   .     A
C1469  C1557   1.438   .     S
C1469  C1263   1.412   1_655 S
C1470  N1495   1.367   .     A
C1470  C1559   1.438   .     S
C1471  H1493   1.079   .     S
C1471  N1495   1.362   .     A
C1472  N1496   1.358   .     A
C1472  H1494   1.067   .     S
C1472  C1262   1.408   1_655 S
C1473  O1501   1.304   .     A
C1473  O1503   1.289   .     A
C1473  C1475   1.494   .     S
C1474  O1502   1.307   .     A
C1474  O1504   1.276   .     A
C1474  C1476   1.477   .     S
C1475  C1479   1.416   .     A
C1475  C1481   1.439   .     A
C1476  C1480   1.422   .     A
C1476  C1482   1.432   .     A
C1477  H1489   1.082   .     S
C1477  C1485   1.400   .     A
C1477  C1479   1.389   .     A
C1478  C1480   1.401   .     A
C1478  H1490   1.083   .     S
C1478  C1486   1.404   .     A
C1479  C1537   1.447   .     S
C1480  C1535   1.443   .     S
C1481  C1528   1.530   .     S
C1481  C1483   1.427   .     A
C1482  C1521   1.554   .     S
C1482  C1484   1.393   .     A
C1483  C1485   1.424   .     A
C1483  C1487   1.428   .     A
C1484  C1488   1.407   .     A
C1484  C1486   1.404   .     A
C1485  C525    1.418   1_556 S
C1487  C552    1.399   1_556 S
N1495  Zn1505  2.000   .     S
N1496  Zn1506  2.000   .     S
O1497  Zn1505  2.009   .     S
O1498  Zn1506  2.009   .     S
O1499  Zn1506  2.019   .     S
O1500  Zn1505  2.019   .     S
O1501  Zn1505  2.032   .     S
O1502  Zn1506  2.032   .     S
O1503  Zn1506  2.002   .     S
O1504  Zn1505  2.002   .     S
C1507  H1512   1.112   .     S
C1507  H1513   1.110   .     S
C1507  C1508   1.528   .     S
C1508  H1511   1.110   .     S
C1508  H1510   1.111   .     S
H1509  C572    1.109   1_556 S
C1514  H1520   1.112   .     S
C1514  H1519   1.110   .     S
C1514  C579    1.527   1_556 S
C1515  H1516   1.110   .     S
C1515  H1518   1.111   .     S
H1517  C579    1.110   1_556 S
C1521  H1526   1.107   .     S
C1521  H1527   1.091   .     S
C1521  C1522   1.540   .     S
C1522  H1524   1.111   .     S
C1522  H1525   1.107   .     S
C1522  H1523   1.108   .     S
C1528  H1534   1.099   .     S
C1528  H1533   1.098   .     S
C1528  C1529   1.535   .     S
C1529  H1530   1.104   .     S
C1529  H1531   1.110   .     S
C1529  H1532   1.110   .     S
C1535  N1536   1.157   .     T
C1537  N1538   1.158   .     T
C1539  N1540   1.156   .     T
C1541  N1542   1.157   .     T
C1543  C1544   1.533   .     S
C1543  H1548   1.111   .     S
C1543  H1549   1.112   .     S
C1544  H1547   1.109   .     S
C1544  H1546   1.111   .     S
C1544  H1545   1.108   .     S
C1550  H1556   1.099   .     S
C1550  H1555   1.110   .     S
C1550  C1551   1.531   .     S
C1551  H1552   1.107   .     S
C1551  H1554   1.110   .     S
C1551  H1553   1.108   .     S
C1557  N1558   1.157   .     T
C1559  N1560   1.157   .     T
C1561  O1603   1.277   .     A
C1561  C1572   1.450   .     S
C1561  O1601   1.293   .     A
C1562  O1604   1.278   .     A
C1562  C1571   1.422   .     S
C1562  O1602   1.277   .     A
C1563  C1592   1.401   .     A
C1563  H1595   1.083   .     S
C1563  C1565   1.394   .     A
C1564  H1596   1.073   .     S
C1564  C1566   1.403   .     A
C1564  C1591   1.415   .     A
C1565  C1611   1.518   .     S
C1566  C1618   1.514   .     S
C1566  C654    1.408   1_556 S
C1567  C1643   1.446   .     S
C1567  C1572   1.413   .     A
C1567  C945    1.383   1_565 S
C1568  C1645   1.455   .     S
C1568  C1571   1.407   .     A
C1569  C1571   1.406   .     A
C1569  C1647   1.532   .     S
C1570  C1654   1.517   .     S
C1570  C1572   1.416   .     A
C1570  C944    1.392   1_565 S
C1573  N1600   1.370   .     A
C1573  C1661   1.438   .     S
C1573  C1679   1.412   .     S
C1574  N1599   1.367   .     A
C1574  C1663   1.438   .     S
C1574  C1784   1.408   1_455 S
C1575  H1597   1.079   .     S
C1575  N1599   1.362   .     A
C1575  C1781   1.412   1_455 S
C1576  N1600   1.358   .     A
C1576  H1598   1.067   .     S
C1576  C1678   1.408   .     S
C1577  O1605   1.304   .     A
C1577  O1607   1.289   .     A
C1577  C1579   1.494   .     S
C1578  O1606   1.307   .     A
C1578  O1608   1.276   .     A
C1578  C1580   1.477   .     S
C1579  C1583   1.416   .     A
C1579  C1585   1.439   .     A
C1580  C1584   1.422   .     A
C1580  C1586   1.432   .     A
C1581  H1593   1.082   .     S
C1581  C1589   1.400   .     A
C1581  C1583   1.389   .     A
C1582  C1584   1.401   .     A
C1582  H1594   1.083   .     S
C1582  C1590   1.404   .     A
C1583  C1641   1.447   .     S
C1584  C1639   1.443   .     S
C1585  C1632   1.530   .     S
C1585  C1587   1.427   .     A
C1586  C1625   1.554   .     S
C1586  C1588   1.393   .     A
C1587  C1589   1.424   .     A
C1587  C1591   1.428   .     A
C1588  C1592   1.407   .     A
C1588  C1590   1.404   .     A
C1589  C629    1.418   1_556 S
C1591  C656    1.399   1_556 S
N1599  Zn1609  2.000   .     S
N1600  Zn1610  2.000   .     S
O1601  Zn1609  2.009   .     S
O1602  Zn1610  2.009   .     S
O1603  Zn1610  2.019   .     S
O1604  Zn1609  2.019   .     S
O1605  Zn1609  2.032   .     S
O1606  Zn1610  2.032   .     S
O1607  Zn1610  2.002   .     S
O1608  Zn1609  2.002   .     S
C1611  H1616   1.112   .     S
C1611  H1617   1.110   .     S
C1611  C1612   1.528   .     S
C1612  H1615   1.110   .     S
C1612  H1614   1.111   .     S
H1613  C676    1.109   1_556 S
C1618  H1624   1.112   .     S
C1618  H1623   1.110   .     S
C1618  C683    1.527   1_556 S
C1619  H1620   1.110   .     S
C1619  H1622   1.111   .     S
H1621  C683    1.110   1_556 S
C1625  H1630   1.107   .     S
C1625  H1631   1.091   .     S
C1625  C1626   1.540   .     S
C1626  H1628   1.111   .     S
C1626  H1629   1.107   .     S
C1626  H1627   1.108   .     S
C1632  H1638   1.099   .     S
C1632  H1637   1.098   .     S
C1632  C1633   1.535   .     S
C1633  H1634   1.104   .     S
C1633  H1635   1.110   .     S
C1633  H1636   1.110   .     S
C1639  N1640   1.157   .     T
C1641  N1642   1.158   .     T
C1643  N1644   1.156   .     T
C1645  N1646   1.157   .     T
C1647  C1648   1.533   .     S
C1647  H1652   1.111   .     S
C1647  H1653   1.112   .     S
C1648  H1651   1.109   .     S
C1648  H1650   1.111   .     S
C1648  H1649   1.108   .     S
C1654  H1660   1.099   .     S
C1654  H1659   1.110   .     S
C1654  C1655   1.531   .     S
C1655  H1656   1.107   .     S
C1655  H1658   1.110   .     S
C1655  H1657   1.108   .     S
C1661  N1662   1.157   .     T
C1663  N1664   1.157   .     T
C1665  O1707   1.277   .     A
C1665  C1676   1.450   .     S
C1665  O1705   1.293   .     A
C1666  O1708   1.278   .     A
C1666  C1675   1.422   .     S
C1666  O1706   1.277   .     A
C1667  C1696   1.401   .     A
C1667  H1699   1.083   .     S
C1667  C1669   1.394   .     A
C1668  H1700   1.073   .     S
C1668  C1670   1.403   .     A
C1668  C1695   1.415   .     A
C1669  C1715   1.518   .     S
C1670  C1722   1.514   .     S
C1670  C758    1.408   1_556 S
C1671  C1747   1.446   .     S
C1671  C1676   1.413   .     A
C1671  C1049   1.383   1_565 S
C1672  C1749   1.455   .     S
C1672  C1675   1.407   .     A
C1673  C1675   1.406   .     A
C1673  C1751   1.532   .     S
C1674  C1758   1.517   .     S
C1674  C1676   1.416   .     A
C1674  C1048   1.392   1_565 S
C1677  N1704   1.370   .     A
C1677  C1765   1.438   .     S
C1677  C1783   1.412   .     S
C1678  N1703   1.367   .     A
C1678  C1767   1.438   .     S
C1679  H1701   1.079   .     S
C1679  N1703   1.362   .     A
C1680  N1704   1.358   .     A
C1680  H1702   1.067   .     S
C1680  C1782   1.408   .     S
C1681  O1709   1.304   .     A
C1681  O1711   1.289   .     A
C1681  C1683   1.494   .     S
C1682  O1710   1.307   .     A
C1682  O1712   1.276   .     A
C1682  C1684   1.477   .     S
C1683  C1687   1.416   .     A
C1683  C1689   1.439   .     A
C1684  C1688   1.422   .     A
C1684  C1690   1.432   .     A
C1685  H1697   1.082   .     S
C1685  C1693   1.400   .     A
C1685  C1687   1.389   .     A
C1686  C1688   1.401   .     A
C1686  H1698   1.083   .     S
C1686  C1694   1.404   .     A
C1687  C1745   1.447   .     S
C1688  C1743   1.443   .     S
C1689  C1736   1.530   .     S
C1689  C1691   1.427   .     A
C1690  C1729   1.554   .     S
C1690  C1692   1.393   .     A
C1691  C1693   1.424   .     A
C1691  C1695   1.428   .     A
C1692  C1696   1.407   .     A
C1692  C1694   1.404   .     A
C1693  C733    1.418   1_556 S
C1695  C760    1.399   1_556 S
N1703  Zn1713  2.000   .     S
N1704  Zn1714  2.000   .     S
O1705  Zn1713  2.009   .     S
O1706  Zn1714  2.009   .     S
O1707  Zn1714  2.019   .     S
O1708  Zn1713  2.019   .     S
O1709  Zn1713  2.032   .     S
O1710  Zn1714  2.032   .     S
O1711  Zn1714  2.002   .     S
O1712  Zn1713  2.002   .     S
C1715  H1720   1.112   .     S
C1715  H1721   1.110   .     S
C1715  C1716   1.528   .     S
C1716  H1719   1.110   .     S
C1716  H1718   1.111   .     S
H1717  C780    1.109   1_556 S
C1722  H1728   1.112   .     S
C1722  H1727   1.110   .     S
C1722  C787    1.527   1_556 S
C1723  H1724   1.110   .     S
C1723  H1726   1.111   .     S
H1725  C787    1.110   1_556 S
C1729  H1734   1.107   .     S
C1729  H1735   1.091   .     S
C1729  C1730   1.540   .     S
C1730  H1732   1.111   .     S
C1730  H1733   1.107   .     S
C1730  H1731   1.108   .     S
C1736  H1742   1.099   .     S
C1736  H1741   1.098   .     S
C1736  C1737   1.535   .     S
C1737  H1738   1.104   .     S
C1737  H1739   1.110   .     S
C1737  H1740   1.110   .     S
C1743  N1744   1.157   .     T
C1745  N1746   1.158   .     T
C1747  N1748   1.156   .     T
C1749  N1750   1.157   .     T
C1751  C1752   1.533   .     S
C1751  H1756   1.111   .     S
C1751  H1757   1.112   .     S
C1752  H1755   1.109   .     S
C1752  H1754   1.111   .     S
C1752  H1753   1.108   .     S
C1758  H1764   1.099   .     S
C1758  H1763   1.110   .     S
C1758  C1759   1.531   .     S
C1759  H1760   1.107   .     S
C1759  H1762   1.110   .     S
C1759  H1761   1.108   .     S
C1765  N1766   1.157   .     T
C1767  N1768   1.157   .     T
C1769  O1811   1.277   .     A
C1769  C1780   1.450   .     S
C1769  O1809   1.293   .     A
C1770  O1812   1.278   .     A
C1770  C1779   1.422   .     S
C1770  O1810   1.277   .     A
C1771  C1800   1.401   .     A
C1771  H1803   1.083   .     S
C1771  C1773   1.394   .     A
C1772  H1804   1.073   .     S
C1772  C1774   1.403   .     A
C1772  C1799   1.415   .     A
C1773  C1819   1.518   .     S
C1774  C1826   1.514   .     S
C1774  C862    1.408   1_556 S
C1775  C1851   1.446   .     S
C1775  C1780   1.413   .     A
C1775  C1153   1.383   1_565 S
C1776  C1853   1.455   .     S
C1776  C1779   1.407   .     A
C1777  C1779   1.406   .     A
C1777  C1855   1.532   .     S
C1778  C1862   1.517   .     S
C1778  C1780   1.416   .     A
C1778  C1152   1.392   1_565 S
C1781  N1808   1.370   .     A
C1781  C1869   1.438   .     S
C1781  C1575   1.412   1_655 S
C1782  N1807   1.367   .     A
C1782  C1871   1.438   .     S
C1783  H1805   1.079   .     S
C1783  N1807   1.362   .     A
C1784  N1808   1.358   .     A
C1784  H1806   1.067   .     S
C1784  C1574   1.408   1_655 S
C1785  O1813   1.304   .     A
C1785  O1815   1.289   .     A
C1785  C1787   1.494   .     S
C1786  O1814   1.307   .     A
C1786  O1816   1.276   .     A
C1786  C1788   1.477   .     S
C1787  C1791   1.416   .     A
C1787  C1793   1.439   .     A
C1788  C1792   1.422   .     A
C1788  C1794   1.432   .     A
C1789  H1801   1.082   .     S
C1789  C1797   1.400   .     A
C1789  C1791   1.389   .     A
C1790  C1792   1.401   .     A
C1790  H1802   1.083   .     S
C1790  C1798   1.404   .     A
C1791  C1849   1.447   .     S
C1792  C1847   1.443   .     S
C1793  C1840   1.530   .     S
C1793  C1795   1.427   .     A
C1794  C1833   1.554   .     S
C1794  C1796   1.393   .     A
C1795  C1797   1.424   .     A
C1795  C1799   1.428   .     A
C1796  C1800   1.407   .     A
C1796  C1798   1.404   .     A
C1797  C837    1.418   1_556 S
C1799  C864    1.399   1_556 S
N1807  Zn1817  2.000   .     S
N1808  Zn1818  2.000   .     S
O1809  Zn1817  2.009   .     S
O1810  Zn1818  2.009   .     S
O1811  Zn1818  2.019   .     S
O1812  Zn1817  2.019   .     S
O1813  Zn1817  2.032   .     S
O1814  Zn1818  2.032   .     S
O1815  Zn1818  2.002   .     S
O1816  Zn1817  2.002   .     S
C1819  H1824   1.112   .     S
C1819  H1825   1.110   .     S
C1819  C1820   1.528   .     S
C1820  H1823   1.110   .     S
C1820  H1822   1.111   .     S
H1821  C884    1.109   1_556 S
C1826  H1832   1.112   .     S
C1826  H1831   1.110   .     S
C1826  C891    1.527   1_556 S
C1827  H1828   1.110   .     S
C1827  H1830   1.111   .     S
H1829  C891    1.110   1_556 S
C1833  H1838   1.107   .     S
C1833  H1839   1.091   .     S
C1833  C1834   1.540   .     S
C1834  H1836   1.111   .     S
C1834  H1837   1.107   .     S
C1834  H1835   1.108   .     S
C1840  H1846   1.099   .     S
C1840  H1845   1.098   .     S
C1840  C1841   1.535   .     S
C1841  H1842   1.104   .     S
C1841  H1843   1.110   .     S
C1841  H1844   1.110   .     S
C1847  N1848   1.157   .     T
C1849  N1850   1.158   .     T
C1851  N1852   1.156   .     T
C1853  N1854   1.157   .     T
C1855  C1856   1.533   .     S
C1855  H1860   1.111   .     S
C1855  H1861   1.112   .     S
C1856  H1859   1.109   .     S
C1856  H1858   1.111   .     S
C1856  H1857   1.108   .     S
C1862  H1868   1.099   .     S
C1862  H1867   1.110   .     S
C1862  C1863   1.531   .     S
C1863  H1864   1.107   .     S
C1863  H1866   1.110   .     S
C1863  H1865   1.108   .     S
C1869  N1870   1.157   .     T
C1871  N1872   1.157   .     T
