data_str_m2_o1_o17_pcu_sym.123
_audit_creation_date              2020-01-03
_audit_creation_method            'Materials Studio'
_symmetry_space_group_name_H-M    'P1'
_symmetry_Int_Tables_number       1
_symmetry_cell_setting            triclinic
loop_
_symmetry_equiv_pos_as_xyz
  x,y,z
_cell_length_a                    32.5053
_cell_length_b                    28.5211
_cell_length_c                    30.1711
_cell_angle_alpha                 89.9999
_cell_angle_beta                  90.1680
_cell_angle_gamma                 90.0000
loop_
_atom_site_label
_atom_site_type_symbol
_atom_site_fract_x
_atom_site_fract_y
_atom_site_fract_z
_atom_site_U_iso_or_equiv
_atom_site_adp_type
_atom_site_occupancy
C1     C     0.08734   0.16667   0.24996   0.00000  Uiso   1.00
C2     C     0.24599   0.16667   0.25003   0.00000  Uiso   1.00
C3     C     0.16663   0.25213   0.02310   0.00000  Uiso   1.00
C4     C     0.16671   0.08121   0.47689   0.00000  Uiso   1.00
C5     C     0.02128   0.12406   0.24997   0.00000  Uiso   1.00
C6     C     0.31205   0.20928   0.25003   0.00000  Uiso   1.00
C7     C     0.31205   0.12406   0.25003   0.00000  Uiso   1.00
C8     C     0.02128   0.20928   0.24997   0.00000  Uiso   1.00
C9     C     0.29060   0.16667   0.25004   0.00000  Uiso   1.00
C10    C     0.04273   0.16667   0.24996   0.00000  Uiso   1.00
C11    C     0.14124   0.02482   0.22224   0.00000  Uiso   1.00
C12    C     0.19209   0.30851   0.27776   0.00000  Uiso   1.00
C13    C     0.19209   0.02482   0.27776   0.00000  Uiso   1.00
C14    C     0.14124   0.30851   0.22224   0.00000  Uiso   1.00
C15    C     0.16661   0.16667   0.16425   0.00000  Uiso   1.00
C16    C     0.16672   0.16667   0.33575   0.00000  Uiso   1.00
C17    C     0.16678   0.12401   0.40738   0.00000  Uiso   1.00
C18    C     0.16655   0.20932   0.09262   0.00000  Uiso   1.00
C19    C     0.16677   0.16667   0.38419   0.00000  Uiso   1.00
C20    C     0.16656   0.16667   0.11581   0.00000  Uiso   1.00
C21    C     0.16678   0.20932   0.40738   0.00000  Uiso   1.00
C22    C     0.16655   0.12401   0.09262   0.00000  Uiso   1.00
C23    C     0.16673   0.20962   0.45356   0.00000  Uiso   1.00
C24    C     0.16660   0.12371   0.04644   0.00000  Uiso   1.00
C25    C     0.16670   0.16667   0.47677   0.00000  Uiso   1.00
C26    C     0.16663   0.16667   0.02323   0.00000  Uiso   1.00
C27    C     0.16674   0.12371   0.45356   0.00000  Uiso   1.00
C28    C     0.16660   0.20962   0.04644   0.00000  Uiso   1.00
C29    C     0.16670   0.25213   0.47690   0.00000  Uiso   1.00
C30    C     0.16664   0.08120   0.02310   0.00000  Uiso   1.00
Cu31   Cu    0.16667   0.21355   0.25000   0.00000  Uiso   1.00
Cu32   Cu    0.16667   0.11978   0.25000   0.00000  Uiso   1.00
H33    H     0.16681   0.09099   0.38956   0.00000  Uiso   1.00
H34    H     0.16653   0.24234   0.11044   0.00000  Uiso   1.00
H35    H     0.16672   0.28532   0.45942   0.00000  Uiso   1.00
H36    H     0.16661   0.04801   0.04058   0.00000  Uiso   1.00
H37    H     0.16660   0.28533   0.04058   0.00000  Uiso   1.00
H38    H     0.16674   0.04801   0.45942   0.00000  Uiso   1.00
H39    H     0.03729   0.09075   0.24995   0.00000  Uiso   1.00
H40    H     0.29604   0.24259   0.25005   0.00000  Uiso   1.00
H41    H     0.29604   0.09075   0.25005   0.00000  Uiso   1.00
H42    H     0.03729   0.24259   0.24995   0.00000  Uiso   1.00
H43    H     0.12089   0.04356   0.20002   0.00000  Uiso   1.00
H44    H     0.21244   0.28977   0.29998   0.00000  Uiso   1.00
H45    H     0.21244   0.04356   0.29998   0.00000  Uiso   1.00
H46    H     0.12089   0.28977   0.20002   0.00000  Uiso   1.00
N47    N     0.16667   0.28402   0.25000   0.00000  Uiso   1.00
N48    N     0.16667   0.04931   0.25000   0.00000  Uiso   1.00
O49    O     0.10655   0.20625   0.24999   0.00000  Uiso   1.00
O50    O     0.22679   0.12709   0.25000   0.00000  Uiso   1.00
O51    O     0.22679   0.20625   0.25000   0.00000  Uiso   1.00
O52    O     0.10655   0.12709   0.24999   0.00000  Uiso   1.00
O53    O     0.16666   0.20627   0.18513   0.00000  Uiso   1.00
O54    O     0.16668   0.12707   0.31487   0.00000  Uiso   1.00
O55    O     0.16668   0.20627   0.31487   0.00000  Uiso   1.00
O56    O     0.16666   0.12707   0.18513   0.00000  Uiso   1.00
H57    H     0.16680   0.24234   0.38956   0.00000  Uiso   1.00
H58    H     0.16653   0.09099   0.11044   0.00000  Uiso   1.00
C59    C     0.42067   0.16667   0.24996   0.00000  Uiso   1.00
C60    C     0.57933   0.16667   0.25003   0.00000  Uiso   1.00
C61    C     0.49996   0.25213   0.02310   0.00000  Uiso   1.00
C62    C     0.50004   0.08121   0.47689   0.00000  Uiso   1.00
C63    C     0.35461   0.12406   0.24997   0.00000  Uiso   1.00
C64    C     0.64539   0.20928   0.25003   0.00000  Uiso   1.00
C65    C     0.64539   0.12406   0.25003   0.00000  Uiso   1.00
C66    C     0.35461   0.20928   0.24997   0.00000  Uiso   1.00
C67    C     0.62393   0.16667   0.25004   0.00000  Uiso   1.00
C68    C     0.37607   0.16667   0.24996   0.00000  Uiso   1.00
C69    C     0.47458   0.02482   0.22224   0.00000  Uiso   1.00
C70    C     0.52542   0.30851   0.27776   0.00000  Uiso   1.00
C71    C     0.52542   0.02482   0.27776   0.00000  Uiso   1.00
C72    C     0.47458   0.30851   0.22224   0.00000  Uiso   1.00
C73    C     0.49994   0.16667   0.16425   0.00000  Uiso   1.00
C74    C     0.50006   0.16667   0.33575   0.00000  Uiso   1.00
C75    C     0.50012   0.12401   0.40738   0.00000  Uiso   1.00
C76    C     0.49989   0.20932   0.09262   0.00000  Uiso   1.00
C77    C     0.50010   0.16667   0.38419   0.00000  Uiso   1.00
C78    C     0.49990   0.16667   0.11581   0.00000  Uiso   1.00
C79    C     0.50011   0.20932   0.40738   0.00000  Uiso   1.00
C80    C     0.49989   0.12401   0.09262   0.00000  Uiso   1.00
C81    C     0.50006   0.20962   0.45356   0.00000  Uiso   1.00
C82    C     0.49993   0.12371   0.04644   0.00000  Uiso   1.00
C83    C     0.50003   0.16667   0.47677   0.00000  Uiso   1.00
C84    C     0.49997   0.16667   0.02323   0.00000  Uiso   1.00
C85    C     0.50007   0.12371   0.45356   0.00000  Uiso   1.00
C86    C     0.49993   0.20962   0.04644   0.00000  Uiso   1.00
C87    C     0.50003   0.25213   0.47690   0.00000  Uiso   1.00
C88    C     0.49997   0.08120   0.02310   0.00000  Uiso   1.00
Cu89   Cu    0.50000   0.21355   0.25000   0.00000  Uiso   1.00
Cu90   Cu    0.50000   0.11978   0.25000   0.00000  Uiso   1.00
H91    H     0.50014   0.09099   0.38956   0.00000  Uiso   1.00
H92    H     0.49987   0.24234   0.11044   0.00000  Uiso   1.00
H93    H     0.50005   0.28532   0.45942   0.00000  Uiso   1.00
H94    H     0.49995   0.04801   0.04058   0.00000  Uiso   1.00
H95    H     0.49994   0.28533   0.04058   0.00000  Uiso   1.00
H96    H     0.50007   0.04801   0.45942   0.00000  Uiso   1.00
H97    H     0.37062   0.09075   0.24995   0.00000  Uiso   1.00
H98    H     0.62938   0.24259   0.25005   0.00000  Uiso   1.00
H99    H     0.62938   0.09075   0.25005   0.00000  Uiso   1.00
H100   H     0.37062   0.24259   0.24995   0.00000  Uiso   1.00
H101   H     0.45422   0.04356   0.20002   0.00000  Uiso   1.00
H102   H     0.54578   0.28977   0.29998   0.00000  Uiso   1.00
H103   H     0.54578   0.04356   0.29998   0.00000  Uiso   1.00
H104   H     0.45422   0.28977   0.20002   0.00000  Uiso   1.00
N105   N     0.50000   0.28402   0.25000   0.00000  Uiso   1.00
N106   N     0.50000   0.04931   0.25000   0.00000  Uiso   1.00
O107   O     0.43988   0.20625   0.24999   0.00000  Uiso   1.00
O108   O     0.56012   0.12709   0.25000   0.00000  Uiso   1.00
O109   O     0.56012   0.20625   0.25000   0.00000  Uiso   1.00
O110   O     0.43988   0.12709   0.24999   0.00000  Uiso   1.00
O111   O     0.49999   0.20627   0.18513   0.00000  Uiso   1.00
O112   O     0.50001   0.12707   0.31487   0.00000  Uiso   1.00
O113   O     0.50001   0.20627   0.31487   0.00000  Uiso   1.00
O114   O     0.49999   0.12707   0.18513   0.00000  Uiso   1.00
H115   H     0.50013   0.24234   0.38956   0.00000  Uiso   1.00
H116   H     0.49986   0.09099   0.11044   0.00000  Uiso   1.00
C117   C     0.75401   0.16667   0.24996   0.00000  Uiso   1.00
C118   C     0.91266   0.16667   0.25003   0.00000  Uiso   1.00
C119   C     0.83329   0.25213   0.02310   0.00000  Uiso   1.00
C120   C     0.83337   0.08121   0.47689   0.00000  Uiso   1.00
C121   C     0.68795   0.12406   0.24997   0.00000  Uiso   1.00
C122   C     0.97872   0.20928   0.25003   0.00000  Uiso   1.00
C123   C     0.97872   0.12406   0.25003   0.00000  Uiso   1.00
C124   C     0.68795   0.20928   0.24997   0.00000  Uiso   1.00
C125   C     0.95727   0.16667   0.25004   0.00000  Uiso   1.00
C126   C     0.70940   0.16667   0.24996   0.00000  Uiso   1.00
C127   C     0.80791   0.02482   0.22224   0.00000  Uiso   1.00
C128   C     0.85876   0.30851   0.27776   0.00000  Uiso   1.00
C129   C     0.85876   0.02482   0.27776   0.00000  Uiso   1.00
C130   C     0.80791   0.30851   0.22224   0.00000  Uiso   1.00
C131   C     0.83328   0.16667   0.16425   0.00000  Uiso   1.00
C132   C     0.83339   0.16667   0.33575   0.00000  Uiso   1.00
C133   C     0.83345   0.12401   0.40738   0.00000  Uiso   1.00
C134   C     0.83322   0.20932   0.09262   0.00000  Uiso   1.00
C135   C     0.83344   0.16667   0.38419   0.00000  Uiso   1.00
C136   C     0.83323   0.16667   0.11581   0.00000  Uiso   1.00
C137   C     0.83344   0.20932   0.40738   0.00000  Uiso   1.00
C138   C     0.83322   0.12401   0.09262   0.00000  Uiso   1.00
C139   C     0.83340   0.20962   0.45356   0.00000  Uiso   1.00
C140   C     0.83327   0.12371   0.04644   0.00000  Uiso   1.00
C141   C     0.83337   0.16667   0.47677   0.00000  Uiso   1.00
C142   C     0.83330   0.16667   0.02323   0.00000  Uiso   1.00
C143   C     0.83340   0.12371   0.45356   0.00000  Uiso   1.00
C144   C     0.83327   0.20962   0.04644   0.00000  Uiso   1.00
C145   C     0.83336   0.25213   0.47690   0.00000  Uiso   1.00
C146   C     0.83330   0.08120   0.02310   0.00000  Uiso   1.00
Cu147  Cu    0.83333   0.21355   0.25000   0.00000  Uiso   1.00
Cu148  Cu    0.83333   0.11978   0.25000   0.00000  Uiso   1.00
H149   H     0.83348   0.09099   0.38956   0.00000  Uiso   1.00
H150   H     0.83320   0.24234   0.11044   0.00000  Uiso   1.00
H151   H     0.83339   0.28532   0.45942   0.00000  Uiso   1.00
H152   H     0.83328   0.04801   0.04058   0.00000  Uiso   1.00
H153   H     0.83327   0.28533   0.04058   0.00000  Uiso   1.00
H154   H     0.83340   0.04801   0.45942   0.00000  Uiso   1.00
H155   H     0.70396   0.09075   0.24995   0.00000  Uiso   1.00
H156   H     0.96271   0.24259   0.25005   0.00000  Uiso   1.00
H157   H     0.96271   0.09075   0.25005   0.00000  Uiso   1.00
H158   H     0.70396   0.24259   0.24995   0.00000  Uiso   1.00
H159   H     0.78756   0.04356   0.20002   0.00000  Uiso   1.00
H160   H     0.87911   0.28977   0.29998   0.00000  Uiso   1.00
H161   H     0.87911   0.04356   0.29998   0.00000  Uiso   1.00
H162   H     0.78756   0.28977   0.20002   0.00000  Uiso   1.00
N163   N     0.83333   0.28402   0.25000   0.00000  Uiso   1.00
N164   N     0.83333   0.04931   0.25000   0.00000  Uiso   1.00
O165   O     0.77321   0.20625   0.24999   0.00000  Uiso   1.00
O166   O     0.89345   0.12709   0.25000   0.00000  Uiso   1.00
O167   O     0.89345   0.20625   0.25000   0.00000  Uiso   1.00
O168   O     0.77321   0.12709   0.24999   0.00000  Uiso   1.00
O169   O     0.83332   0.20627   0.18513   0.00000  Uiso   1.00
O170   O     0.83334   0.12707   0.31487   0.00000  Uiso   1.00
O171   O     0.83334   0.20627   0.31487   0.00000  Uiso   1.00
O172   O     0.83332   0.12707   0.18513   0.00000  Uiso   1.00
H173   H     0.83346   0.24234   0.38956   0.00000  Uiso   1.00
H174   H     0.83320   0.09099   0.11044   0.00000  Uiso   1.00
C175   C     0.08734   0.50000   0.24996   0.00000  Uiso   1.00
C176   C     0.24599   0.50000   0.25003   0.00000  Uiso   1.00
C177   C     0.16663   0.58546   0.02310   0.00000  Uiso   1.00
C178   C     0.16671   0.41454   0.47689   0.00000  Uiso   1.00
C179   C     0.02128   0.45739   0.24997   0.00000  Uiso   1.00
C180   C     0.31205   0.54261   0.25003   0.00000  Uiso   1.00
C181   C     0.31205   0.45739   0.25003   0.00000  Uiso   1.00
C182   C     0.02128   0.54261   0.24997   0.00000  Uiso   1.00
C183   C     0.29060   0.50000   0.25004   0.00000  Uiso   1.00
C184   C     0.04273   0.50000   0.24996   0.00000  Uiso   1.00
C185   C     0.14124   0.35815   0.22224   0.00000  Uiso   1.00
C186   C     0.19209   0.64185   0.27776   0.00000  Uiso   1.00
C187   C     0.19209   0.35815   0.27776   0.00000  Uiso   1.00
C188   C     0.14124   0.64185   0.22224   0.00000  Uiso   1.00
C189   C     0.16661   0.50000   0.16425   0.00000  Uiso   1.00
C190   C     0.16672   0.50000   0.33575   0.00000  Uiso   1.00
C191   C     0.16678   0.45735   0.40738   0.00000  Uiso   1.00
C192   C     0.16655   0.54265   0.09262   0.00000  Uiso   1.00
C193   C     0.16677   0.50000   0.38419   0.00000  Uiso   1.00
C194   C     0.16656   0.50000   0.11581   0.00000  Uiso   1.00
C195   C     0.16678   0.54265   0.40738   0.00000  Uiso   1.00
C196   C     0.16655   0.45735   0.09262   0.00000  Uiso   1.00
C197   C     0.16673   0.54296   0.45356   0.00000  Uiso   1.00
C198   C     0.16660   0.45704   0.04644   0.00000  Uiso   1.00
C199   C     0.16670   0.50000   0.47677   0.00000  Uiso   1.00
C200   C     0.16663   0.50000   0.02323   0.00000  Uiso   1.00
C201   C     0.16674   0.45704   0.45356   0.00000  Uiso   1.00
C202   C     0.16660   0.54296   0.04644   0.00000  Uiso   1.00
C203   C     0.16670   0.58546   0.47690   0.00000  Uiso   1.00
C204   C     0.16664   0.41454   0.02310   0.00000  Uiso   1.00
Cu205  Cu    0.16667   0.54689   0.25000   0.00000  Uiso   1.00
Cu206  Cu    0.16667   0.45311   0.25000   0.00000  Uiso   1.00
H207   H     0.16681   0.42433   0.38956   0.00000  Uiso   1.00
H208   H     0.16653   0.57568   0.11044   0.00000  Uiso   1.00
H209   H     0.16672   0.61866   0.45942   0.00000  Uiso   1.00
H210   H     0.16661   0.38134   0.04058   0.00000  Uiso   1.00
H211   H     0.16660   0.61866   0.04058   0.00000  Uiso   1.00
H212   H     0.16674   0.38134   0.45942   0.00000  Uiso   1.00
H213   H     0.03729   0.42408   0.24995   0.00000  Uiso   1.00
H214   H     0.29604   0.57592   0.25005   0.00000  Uiso   1.00
H215   H     0.29604   0.42408   0.25005   0.00000  Uiso   1.00
H216   H     0.03729   0.57592   0.24995   0.00000  Uiso   1.00
H217   H     0.12089   0.37689   0.20002   0.00000  Uiso   1.00
H218   H     0.21244   0.62311   0.29998   0.00000  Uiso   1.00
H219   H     0.21244   0.37689   0.29998   0.00000  Uiso   1.00
H220   H     0.12089   0.62311   0.20002   0.00000  Uiso   1.00
N221   N     0.16667   0.61736   0.25000   0.00000  Uiso   1.00
N222   N     0.16667   0.38264   0.25000   0.00000  Uiso   1.00
O223   O     0.10655   0.53958   0.24999   0.00000  Uiso   1.00
O224   O     0.22679   0.46042   0.25000   0.00000  Uiso   1.00
O225   O     0.22679   0.53958   0.25000   0.00000  Uiso   1.00
O226   O     0.10655   0.46042   0.24999   0.00000  Uiso   1.00
O227   O     0.16666   0.53960   0.18513   0.00000  Uiso   1.00
O228   O     0.16668   0.46040   0.31487   0.00000  Uiso   1.00
O229   O     0.16668   0.53960   0.31487   0.00000  Uiso   1.00
O230   O     0.16666   0.46040   0.18513   0.00000  Uiso   1.00
H231   H     0.16680   0.57567   0.38956   0.00000  Uiso   1.00
H232   H     0.16653   0.42432   0.11044   0.00000  Uiso   1.00
C233   C     0.42067   0.50000   0.24996   0.00000  Uiso   1.00
C234   C     0.57933   0.50000   0.25003   0.00000  Uiso   1.00
C235   C     0.49996   0.58546   0.02310   0.00000  Uiso   1.00
C236   C     0.50004   0.41454   0.47689   0.00000  Uiso   1.00
C237   C     0.35461   0.45739   0.24997   0.00000  Uiso   1.00
C238   C     0.64539   0.54261   0.25003   0.00000  Uiso   1.00
C239   C     0.64539   0.45739   0.25003   0.00000  Uiso   1.00
C240   C     0.35461   0.54261   0.24997   0.00000  Uiso   1.00
C241   C     0.62393   0.50000   0.25004   0.00000  Uiso   1.00
C242   C     0.37607   0.50000   0.24996   0.00000  Uiso   1.00
C243   C     0.47458   0.35815   0.22224   0.00000  Uiso   1.00
C244   C     0.52542   0.64185   0.27776   0.00000  Uiso   1.00
C245   C     0.52542   0.35815   0.27776   0.00000  Uiso   1.00
C246   C     0.47458   0.64185   0.22224   0.00000  Uiso   1.00
C247   C     0.49994   0.50000   0.16425   0.00000  Uiso   1.00
C248   C     0.50006   0.50000   0.33575   0.00000  Uiso   1.00
C249   C     0.50012   0.45735   0.40738   0.00000  Uiso   1.00
C250   C     0.49989   0.54265   0.09262   0.00000  Uiso   1.00
C251   C     0.50010   0.50000   0.38419   0.00000  Uiso   1.00
C252   C     0.49990   0.50000   0.11581   0.00000  Uiso   1.00
C253   C     0.50011   0.54265   0.40738   0.00000  Uiso   1.00
C254   C     0.49989   0.45735   0.09262   0.00000  Uiso   1.00
C255   C     0.50006   0.54296   0.45356   0.00000  Uiso   1.00
C256   C     0.49993   0.45704   0.04644   0.00000  Uiso   1.00
C257   C     0.50003   0.50000   0.47677   0.00000  Uiso   1.00
C258   C     0.49997   0.50000   0.02323   0.00000  Uiso   1.00
C259   C     0.50007   0.45704   0.45356   0.00000  Uiso   1.00
C260   C     0.49993   0.54296   0.04644   0.00000  Uiso   1.00
C261   C     0.50003   0.58546   0.47690   0.00000  Uiso   1.00
C262   C     0.49997   0.41454   0.02310   0.00000  Uiso   1.00
Cu263  Cu    0.50000   0.54689   0.25000   0.00000  Uiso   1.00
Cu264  Cu    0.50000   0.45311   0.25000   0.00000  Uiso   1.00
H265   H     0.50014   0.42433   0.38956   0.00000  Uiso   1.00
H266   H     0.49987   0.57568   0.11044   0.00000  Uiso   1.00
H267   H     0.50005   0.61866   0.45942   0.00000  Uiso   1.00
H268   H     0.49995   0.38134   0.04058   0.00000  Uiso   1.00
H269   H     0.49994   0.61866   0.04058   0.00000  Uiso   1.00
H270   H     0.50007   0.38134   0.45942   0.00000  Uiso   1.00
H271   H     0.37062   0.42408   0.24995   0.00000  Uiso   1.00
H272   H     0.62938   0.57592   0.25005   0.00000  Uiso   1.00
H273   H     0.62938   0.42408   0.25005   0.00000  Uiso   1.00
H274   H     0.37062   0.57592   0.24995   0.00000  Uiso   1.00
H275   H     0.45422   0.37689   0.20002   0.00000  Uiso   1.00
H276   H     0.54578   0.62311   0.29998   0.00000  Uiso   1.00
H277   H     0.54578   0.37689   0.29998   0.00000  Uiso   1.00
H278   H     0.45422   0.62311   0.20002   0.00000  Uiso   1.00
N279   N     0.50000   0.61736   0.25000   0.00000  Uiso   1.00
N280   N     0.50000   0.38264   0.25000   0.00000  Uiso   1.00
O281   O     0.43988   0.53958   0.24999   0.00000  Uiso   1.00
O282   O     0.56012   0.46042   0.25000   0.00000  Uiso   1.00
O283   O     0.56012   0.53958   0.25000   0.00000  Uiso   1.00
O284   O     0.43988   0.46042   0.24999   0.00000  Uiso   1.00
O285   O     0.49999   0.53960   0.18513   0.00000  Uiso   1.00
O286   O     0.50001   0.46040   0.31487   0.00000  Uiso   1.00
O287   O     0.50001   0.53960   0.31487   0.00000  Uiso   1.00
O288   O     0.49999   0.46040   0.18513   0.00000  Uiso   1.00
H289   H     0.50013   0.57567   0.38956   0.00000  Uiso   1.00
H290   H     0.49986   0.42432   0.11044   0.00000  Uiso   1.00
C291   C     0.75401   0.50000   0.24996   0.00000  Uiso   1.00
C292   C     0.91266   0.50000   0.25003   0.00000  Uiso   1.00
C293   C     0.83329   0.58546   0.02310   0.00000  Uiso   1.00
C294   C     0.83337   0.41454   0.47689   0.00000  Uiso   1.00
C295   C     0.68795   0.45739   0.24997   0.00000  Uiso   1.00
C296   C     0.97872   0.54261   0.25003   0.00000  Uiso   1.00
C297   C     0.97872   0.45739   0.25003   0.00000  Uiso   1.00
C298   C     0.68795   0.54261   0.24997   0.00000  Uiso   1.00
C299   C     0.95727   0.50000   0.25004   0.00000  Uiso   1.00
C300   C     0.70940   0.50000   0.24996   0.00000  Uiso   1.00
C301   C     0.80791   0.35815   0.22224   0.00000  Uiso   1.00
C302   C     0.85876   0.64185   0.27776   0.00000  Uiso   1.00
C303   C     0.85876   0.35815   0.27776   0.00000  Uiso   1.00
C304   C     0.80791   0.64185   0.22224   0.00000  Uiso   1.00
C305   C     0.83328   0.50000   0.16425   0.00000  Uiso   1.00
C306   C     0.83339   0.50000   0.33575   0.00000  Uiso   1.00
C307   C     0.83345   0.45735   0.40738   0.00000  Uiso   1.00
C308   C     0.83322   0.54265   0.09262   0.00000  Uiso   1.00
C309   C     0.83344   0.50000   0.38419   0.00000  Uiso   1.00
C310   C     0.83323   0.50000   0.11581   0.00000  Uiso   1.00
C311   C     0.83344   0.54265   0.40738   0.00000  Uiso   1.00
C312   C     0.83322   0.45735   0.09262   0.00000  Uiso   1.00
C313   C     0.83340   0.54296   0.45356   0.00000  Uiso   1.00
C314   C     0.83327   0.45704   0.04644   0.00000  Uiso   1.00
C315   C     0.83337   0.50000   0.47677   0.00000  Uiso   1.00
C316   C     0.83330   0.50000   0.02323   0.00000  Uiso   1.00
C317   C     0.83340   0.45704   0.45356   0.00000  Uiso   1.00
C318   C     0.83327   0.54296   0.04644   0.00000  Uiso   1.00
C319   C     0.83336   0.58546   0.47690   0.00000  Uiso   1.00
C320   C     0.83330   0.41454   0.02310   0.00000  Uiso   1.00
Cu321  Cu    0.83333   0.54689   0.25000   0.00000  Uiso   1.00
Cu322  Cu    0.83333   0.45311   0.25000   0.00000  Uiso   1.00
H323   H     0.83348   0.42433   0.38956   0.00000  Uiso   1.00
H324   H     0.83320   0.57568   0.11044   0.00000  Uiso   1.00
H325   H     0.83339   0.61866   0.45942   0.00000  Uiso   1.00
H326   H     0.83328   0.38134   0.04058   0.00000  Uiso   1.00
H327   H     0.83327   0.61866   0.04058   0.00000  Uiso   1.00
H328   H     0.83340   0.38134   0.45942   0.00000  Uiso   1.00
H329   H     0.70396   0.42408   0.24995   0.00000  Uiso   1.00
H330   H     0.96271   0.57592   0.25005   0.00000  Uiso   1.00
H331   H     0.96271   0.42408   0.25005   0.00000  Uiso   1.00
H332   H     0.70396   0.57592   0.24995   0.00000  Uiso   1.00
H333   H     0.78756   0.37689   0.20002   0.00000  Uiso   1.00
H334   H     0.87911   0.62311   0.29998   0.00000  Uiso   1.00
H335   H     0.87911   0.37689   0.29998   0.00000  Uiso   1.00
H336   H     0.78756   0.62311   0.20002   0.00000  Uiso   1.00
N337   N     0.83333   0.61736   0.25000   0.00000  Uiso   1.00
N338   N     0.83333   0.38264   0.25000   0.00000  Uiso   1.00
O339   O     0.77321   0.53958   0.24999   0.00000  Uiso   1.00
O340   O     0.89345   0.46042   0.25000   0.00000  Uiso   1.00
O341   O     0.89345   0.53958   0.25000   0.00000  Uiso   1.00
O342   O     0.77321   0.46042   0.24999   0.00000  Uiso   1.00
O343   O     0.83332   0.53960   0.18513   0.00000  Uiso   1.00
O344   O     0.83334   0.46040   0.31487   0.00000  Uiso   1.00
O345   O     0.83334   0.53960   0.31487   0.00000  Uiso   1.00
O346   O     0.83332   0.46040   0.18513   0.00000  Uiso   1.00
H347   H     0.83346   0.57567   0.38956   0.00000  Uiso   1.00
H348   H     0.83320   0.42432   0.11044   0.00000  Uiso   1.00
C349   C     0.08734   0.83333   0.24996   0.00000  Uiso   1.00
C350   C     0.24599   0.83333   0.25003   0.00000  Uiso   1.00
C351   C     0.16663   0.91880   0.02310   0.00000  Uiso   1.00
C352   C     0.16671   0.74787   0.47689   0.00000  Uiso   1.00
C353   C     0.02128   0.79072   0.24997   0.00000  Uiso   1.00
C354   C     0.31205   0.87594   0.25003   0.00000  Uiso   1.00
C355   C     0.31205   0.79072   0.25003   0.00000  Uiso   1.00
C356   C     0.02128   0.87594   0.24997   0.00000  Uiso   1.00
C357   C     0.29060   0.83333   0.25004   0.00000  Uiso   1.00
C358   C     0.04273   0.83333   0.24996   0.00000  Uiso   1.00
C359   C     0.14124   0.69149   0.22224   0.00000  Uiso   1.00
C360   C     0.19209   0.97518   0.27776   0.00000  Uiso   1.00
C361   C     0.19209   0.69149   0.27776   0.00000  Uiso   1.00
C362   C     0.14124   0.97518   0.22224   0.00000  Uiso   1.00
C363   C     0.16661   0.83333   0.16425   0.00000  Uiso   1.00
C364   C     0.16672   0.83333   0.33575   0.00000  Uiso   1.00
C365   C     0.16678   0.79068   0.40738   0.00000  Uiso   1.00
C366   C     0.16655   0.87599   0.09262   0.00000  Uiso   1.00
C367   C     0.16677   0.83333   0.38419   0.00000  Uiso   1.00
C368   C     0.16656   0.83333   0.11581   0.00000  Uiso   1.00
C369   C     0.16678   0.87599   0.40738   0.00000  Uiso   1.00
C370   C     0.16655   0.79068   0.09262   0.00000  Uiso   1.00
C371   C     0.16673   0.87629   0.45356   0.00000  Uiso   1.00
C372   C     0.16660   0.79038   0.04644   0.00000  Uiso   1.00
C373   C     0.16670   0.83333   0.47677   0.00000  Uiso   1.00
C374   C     0.16663   0.83333   0.02323   0.00000  Uiso   1.00
C375   C     0.16674   0.79038   0.45356   0.00000  Uiso   1.00
C376   C     0.16660   0.87629   0.04644   0.00000  Uiso   1.00
C377   C     0.16670   0.91879   0.47690   0.00000  Uiso   1.00
C378   C     0.16664   0.74787   0.02310   0.00000  Uiso   1.00
Cu379  Cu    0.16667   0.88022   0.25000   0.00000  Uiso   1.00
Cu380  Cu    0.16667   0.78645   0.25000   0.00000  Uiso   1.00
H381   H     0.16681   0.75766   0.38956   0.00000  Uiso   1.00
H382   H     0.16653   0.90901   0.11044   0.00000  Uiso   1.00
H383   H     0.16672   0.95199   0.45942   0.00000  Uiso   1.00
H384   H     0.16661   0.71467   0.04058   0.00000  Uiso   1.00
H385   H     0.16660   0.95199   0.04058   0.00000  Uiso   1.00
H386   H     0.16674   0.71468   0.45942   0.00000  Uiso   1.00
H387   H     0.03729   0.75741   0.24995   0.00000  Uiso   1.00
H388   H     0.29604   0.90925   0.25005   0.00000  Uiso   1.00
H389   H     0.29604   0.75741   0.25005   0.00000  Uiso   1.00
H390   H     0.03729   0.90925   0.24995   0.00000  Uiso   1.00
H391   H     0.12089   0.71023   0.20002   0.00000  Uiso   1.00
H392   H     0.21244   0.95644   0.29998   0.00000  Uiso   1.00
H393   H     0.21244   0.71023   0.29998   0.00000  Uiso   1.00
H394   H     0.12089   0.95644   0.20002   0.00000  Uiso   1.00
N395   N     0.16667   0.95069   0.25000   0.00000  Uiso   1.00
N396   N     0.16667   0.71598   0.25000   0.00000  Uiso   1.00
O397   O     0.10655   0.87291   0.24999   0.00000  Uiso   1.00
O398   O     0.22679   0.79375   0.25000   0.00000  Uiso   1.00
O399   O     0.22679   0.87291   0.25000   0.00000  Uiso   1.00
O400   O     0.10655   0.79375   0.24999   0.00000  Uiso   1.00
O401   O     0.16666   0.87293   0.18513   0.00000  Uiso   1.00
O402   O     0.16668   0.79373   0.31487   0.00000  Uiso   1.00
O403   O     0.16668   0.87293   0.31487   0.00000  Uiso   1.00
O404   O     0.16666   0.79373   0.18513   0.00000  Uiso   1.00
H405   H     0.16680   0.90901   0.38956   0.00000  Uiso   1.00
H406   H     0.16653   0.75766   0.11044   0.00000  Uiso   1.00
C407   C     0.42067   0.83333   0.24996   0.00000  Uiso   1.00
C408   C     0.57933   0.83333   0.25003   0.00000  Uiso   1.00
C409   C     0.49996   0.91880   0.02310   0.00000  Uiso   1.00
C410   C     0.50004   0.74787   0.47689   0.00000  Uiso   1.00
C411   C     0.35461   0.79072   0.24997   0.00000  Uiso   1.00
C412   C     0.64539   0.87594   0.25003   0.00000  Uiso   1.00
C413   C     0.64539   0.79072   0.25003   0.00000  Uiso   1.00
C414   C     0.35461   0.87594   0.24997   0.00000  Uiso   1.00
C415   C     0.62393   0.83333   0.25004   0.00000  Uiso   1.00
C416   C     0.37607   0.83333   0.24996   0.00000  Uiso   1.00
C417   C     0.47458   0.69149   0.22224   0.00000  Uiso   1.00
C418   C     0.52542   0.97518   0.27776   0.00000  Uiso   1.00
C419   C     0.52542   0.69149   0.27776   0.00000  Uiso   1.00
C420   C     0.47458   0.97518   0.22224   0.00000  Uiso   1.00
C421   C     0.49994   0.83333   0.16425   0.00000  Uiso   1.00
C422   C     0.50006   0.83333   0.33575   0.00000  Uiso   1.00
C423   C     0.50012   0.79068   0.40738   0.00000  Uiso   1.00
C424   C     0.49989   0.87599   0.09262   0.00000  Uiso   1.00
C425   C     0.50010   0.83333   0.38419   0.00000  Uiso   1.00
C426   C     0.49990   0.83333   0.11581   0.00000  Uiso   1.00
C427   C     0.50011   0.87599   0.40738   0.00000  Uiso   1.00
C428   C     0.49989   0.79068   0.09262   0.00000  Uiso   1.00
C429   C     0.50006   0.87629   0.45356   0.00000  Uiso   1.00
C430   C     0.49993   0.79038   0.04644   0.00000  Uiso   1.00
C431   C     0.50003   0.83333   0.47677   0.00000  Uiso   1.00
C432   C     0.49997   0.83333   0.02323   0.00000  Uiso   1.00
C433   C     0.50007   0.79038   0.45356   0.00000  Uiso   1.00
C434   C     0.49993   0.87629   0.04644   0.00000  Uiso   1.00
C435   C     0.50003   0.91879   0.47690   0.00000  Uiso   1.00
C436   C     0.49997   0.74787   0.02310   0.00000  Uiso   1.00
Cu437  Cu    0.50000   0.88022   0.25000   0.00000  Uiso   1.00
Cu438  Cu    0.50000   0.78645   0.25000   0.00000  Uiso   1.00
H439   H     0.50014   0.75766   0.38956   0.00000  Uiso   1.00
H440   H     0.49987   0.90901   0.11044   0.00000  Uiso   1.00
H441   H     0.50005   0.95199   0.45942   0.00000  Uiso   1.00
H442   H     0.49995   0.71467   0.04058   0.00000  Uiso   1.00
H443   H     0.49994   0.95199   0.04058   0.00000  Uiso   1.00
H444   H     0.50007   0.71468   0.45942   0.00000  Uiso   1.00
H445   H     0.37062   0.75741   0.24995   0.00000  Uiso   1.00
H446   H     0.62938   0.90925   0.25005   0.00000  Uiso   1.00
H447   H     0.62938   0.75741   0.25005   0.00000  Uiso   1.00
H448   H     0.37062   0.90925   0.24995   0.00000  Uiso   1.00
H449   H     0.45422   0.71023   0.20002   0.00000  Uiso   1.00
H450   H     0.54578   0.95644   0.29998   0.00000  Uiso   1.00
H451   H     0.54578   0.71023   0.29998   0.00000  Uiso   1.00
H452   H     0.45422   0.95644   0.20002   0.00000  Uiso   1.00
N453   N     0.50000   0.95069   0.25000   0.00000  Uiso   1.00
N454   N     0.50000   0.71598   0.25000   0.00000  Uiso   1.00
O455   O     0.43988   0.87291   0.24999   0.00000  Uiso   1.00
O456   O     0.56012   0.79375   0.25000   0.00000  Uiso   1.00
O457   O     0.56012   0.87291   0.25000   0.00000  Uiso   1.00
O458   O     0.43988   0.79375   0.24999   0.00000  Uiso   1.00
O459   O     0.49999   0.87293   0.18513   0.00000  Uiso   1.00
O460   O     0.50001   0.79373   0.31487   0.00000  Uiso   1.00
O461   O     0.50001   0.87293   0.31487   0.00000  Uiso   1.00
O462   O     0.49999   0.79373   0.18513   0.00000  Uiso   1.00
H463   H     0.50013   0.90901   0.38956   0.00000  Uiso   1.00
H464   H     0.49986   0.75766   0.11044   0.00000  Uiso   1.00
C465   C     0.75401   0.83333   0.24996   0.00000  Uiso   1.00
C466   C     0.91266   0.83333   0.25003   0.00000  Uiso   1.00
C467   C     0.83329   0.91880   0.02310   0.00000  Uiso   1.00
C468   C     0.83337   0.74787   0.47689   0.00000  Uiso   1.00
C469   C     0.68795   0.79072   0.24997   0.00000  Uiso   1.00
C470   C     0.97872   0.87594   0.25003   0.00000  Uiso   1.00
C471   C     0.97872   0.79072   0.25003   0.00000  Uiso   1.00
C472   C     0.68795   0.87594   0.24997   0.00000  Uiso   1.00
C473   C     0.95727   0.83333   0.25004   0.00000  Uiso   1.00
C474   C     0.70940   0.83333   0.24996   0.00000  Uiso   1.00
C475   C     0.80791   0.69149   0.22224   0.00000  Uiso   1.00
C476   C     0.85876   0.97518   0.27776   0.00000  Uiso   1.00
C477   C     0.85876   0.69149   0.27776   0.00000  Uiso   1.00
C478   C     0.80791   0.97518   0.22224   0.00000  Uiso   1.00
C479   C     0.83328   0.83333   0.16425   0.00000  Uiso   1.00
C480   C     0.83339   0.83333   0.33575   0.00000  Uiso   1.00
C481   C     0.83345   0.79068   0.40738   0.00000  Uiso   1.00
C482   C     0.83322   0.87599   0.09262   0.00000  Uiso   1.00
C483   C     0.83344   0.83333   0.38419   0.00000  Uiso   1.00
C484   C     0.83323   0.83333   0.11581   0.00000  Uiso   1.00
C485   C     0.83344   0.87599   0.40738   0.00000  Uiso   1.00
C486   C     0.83322   0.79068   0.09262   0.00000  Uiso   1.00
C487   C     0.83340   0.87629   0.45356   0.00000  Uiso   1.00
C488   C     0.83327   0.79038   0.04644   0.00000  Uiso   1.00
C489   C     0.83337   0.83333   0.47677   0.00000  Uiso   1.00
C490   C     0.83330   0.83333   0.02323   0.00000  Uiso   1.00
C491   C     0.83340   0.79038   0.45356   0.00000  Uiso   1.00
C492   C     0.83327   0.87629   0.04644   0.00000  Uiso   1.00
C493   C     0.83336   0.91879   0.47690   0.00000  Uiso   1.00
C494   C     0.83330   0.74787   0.02310   0.00000  Uiso   1.00
Cu495  Cu    0.83333   0.88022   0.25000   0.00000  Uiso   1.00
Cu496  Cu    0.83333   0.78645   0.25000   0.00000  Uiso   1.00
H497   H     0.83348   0.75766   0.38956   0.00000  Uiso   1.00
H498   H     0.83320   0.90901   0.11044   0.00000  Uiso   1.00
H499   H     0.83339   0.95199   0.45942   0.00000  Uiso   1.00
H500   H     0.83328   0.71467   0.04058   0.00000  Uiso   1.00
H501   H     0.83327   0.95199   0.04058   0.00000  Uiso   1.00
H502   H     0.83340   0.71468   0.45942   0.00000  Uiso   1.00
H503   H     0.70396   0.75741   0.24995   0.00000  Uiso   1.00
H504   H     0.96271   0.90925   0.25005   0.00000  Uiso   1.00
H505   H     0.96271   0.75741   0.25005   0.00000  Uiso   1.00
H506   H     0.70396   0.90925   0.24995   0.00000  Uiso   1.00
H507   H     0.78756   0.71023   0.20002   0.00000  Uiso   1.00
H508   H     0.87911   0.95644   0.29998   0.00000  Uiso   1.00
H509   H     0.87911   0.71023   0.29998   0.00000  Uiso   1.00
H510   H     0.78756   0.95644   0.20002   0.00000  Uiso   1.00
N511   N     0.83333   0.95069   0.25000   0.00000  Uiso   1.00
N512   N     0.83333   0.71598   0.25000   0.00000  Uiso   1.00
O513   O     0.77321   0.87291   0.24999   0.00000  Uiso   1.00
O514   O     0.89345   0.79375   0.25000   0.00000  Uiso   1.00
O515   O     0.89345   0.87291   0.25000   0.00000  Uiso   1.00
O516   O     0.77321   0.79375   0.24999   0.00000  Uiso   1.00
O517   O     0.83332   0.87293   0.18513   0.00000  Uiso   1.00
O518   O     0.83334   0.79373   0.31487   0.00000  Uiso   1.00
O519   O     0.83334   0.87293   0.31487   0.00000  Uiso   1.00
O520   O     0.83332   0.79373   0.18513   0.00000  Uiso   1.00
H521   H     0.83346   0.90901   0.38956   0.00000  Uiso   1.00
H522   H     0.83320   0.75766   0.11044   0.00000  Uiso   1.00
C523   C     0.08734   0.16667   0.74996   0.00000  Uiso   1.00
C524   C     0.24599   0.16667   0.75003   0.00000  Uiso   1.00
C525   C     0.16663   0.25213   0.52310   0.00000  Uiso   1.00
C526   C     0.16671   0.08121   0.97689   0.00000  Uiso   1.00
C527   C     0.02128   0.12406   0.74997   0.00000  Uiso   1.00
C528   C     0.31205   0.20928   0.75003   0.00000  Uiso   1.00
C529   C     0.31205   0.12406   0.75003   0.00000  Uiso   1.00
C530   C     0.02128   0.20928   0.74997   0.00000  Uiso   1.00
C531   C     0.29060   0.16667   0.75004   0.00000  Uiso   1.00
C532   C     0.04273   0.16667   0.74996   0.00000  Uiso   1.00
C533   C     0.14124   0.02482   0.72224   0.00000  Uiso   1.00
C534   C     0.19209   0.30851   0.77776   0.00000  Uiso   1.00
C535   C     0.19209   0.02482   0.77776   0.00000  Uiso   1.00
C536   C     0.14124   0.30851   0.72224   0.00000  Uiso   1.00
C537   C     0.16661   0.16667   0.66425   0.00000  Uiso   1.00
C538   C     0.16672   0.16667   0.83575   0.00000  Uiso   1.00
C539   C     0.16678   0.12401   0.90738   0.00000  Uiso   1.00
C540   C     0.16655   0.20932   0.59262   0.00000  Uiso   1.00
C541   C     0.16677   0.16667   0.88419   0.00000  Uiso   1.00
C542   C     0.16656   0.16667   0.61581   0.00000  Uiso   1.00
C543   C     0.16678   0.20932   0.90738   0.00000  Uiso   1.00
C544   C     0.16655   0.12401   0.59262   0.00000  Uiso   1.00
C545   C     0.16673   0.20962   0.95356   0.00000  Uiso   1.00
C546   C     0.16660   0.12371   0.54644   0.00000  Uiso   1.00
C547   C     0.16670   0.16667   0.97677   0.00000  Uiso   1.00
C548   C     0.16663   0.16667   0.52323   0.00000  Uiso   1.00
C549   C     0.16674   0.12371   0.95356   0.00000  Uiso   1.00
C550   C     0.16660   0.20962   0.54644   0.00000  Uiso   1.00
C551   C     0.16670   0.25213   0.97690   0.00000  Uiso   1.00
C552   C     0.16664   0.08120   0.52310   0.00000  Uiso   1.00
Cu553  Cu    0.16667   0.21355   0.75000   0.00000  Uiso   1.00
Cu554  Cu    0.16667   0.11978   0.75000   0.00000  Uiso   1.00
H555   H     0.16681   0.09099   0.88956   0.00000  Uiso   1.00
H556   H     0.16653   0.24234   0.61044   0.00000  Uiso   1.00
H557   H     0.16672   0.28532   0.95942   0.00000  Uiso   1.00
H558   H     0.16661   0.04801   0.54058   0.00000  Uiso   1.00
H559   H     0.16660   0.28533   0.54058   0.00000  Uiso   1.00
H560   H     0.16674   0.04801   0.95942   0.00000  Uiso   1.00
H561   H     0.03729   0.09075   0.74995   0.00000  Uiso   1.00
H562   H     0.29604   0.24259   0.75005   0.00000  Uiso   1.00
H563   H     0.29604   0.09075   0.75005   0.00000  Uiso   1.00
H564   H     0.03729   0.24259   0.74995   0.00000  Uiso   1.00
H565   H     0.12089   0.04356   0.70002   0.00000  Uiso   1.00
H566   H     0.21244   0.28977   0.79998   0.00000  Uiso   1.00
H567   H     0.21244   0.04356   0.79998   0.00000  Uiso   1.00
H568   H     0.12089   0.28977   0.70002   0.00000  Uiso   1.00
N569   N     0.16667   0.28402   0.75000   0.00000  Uiso   1.00
N570   N     0.16667   0.04931   0.75000   0.00000  Uiso   1.00
O571   O     0.10655   0.20625   0.74999   0.00000  Uiso   1.00
O572   O     0.22679   0.12709   0.75000   0.00000  Uiso   1.00
O573   O     0.22679   0.20625   0.75000   0.00000  Uiso   1.00
O574   O     0.10655   0.12709   0.74999   0.00000  Uiso   1.00
O575   O     0.16666   0.20627   0.68513   0.00000  Uiso   1.00
O576   O     0.16668   0.12707   0.81487   0.00000  Uiso   1.00
O577   O     0.16668   0.20627   0.81487   0.00000  Uiso   1.00
O578   O     0.16666   0.12707   0.68513   0.00000  Uiso   1.00
H579   H     0.16680   0.24234   0.88956   0.00000  Uiso   1.00
H580   H     0.16653   0.09099   0.61044   0.00000  Uiso   1.00
C581   C     0.42067   0.16667   0.74996   0.00000  Uiso   1.00
C582   C     0.57933   0.16667   0.75003   0.00000  Uiso   1.00
C583   C     0.49996   0.25213   0.52310   0.00000  Uiso   1.00
C584   C     0.50004   0.08121   0.97689   0.00000  Uiso   1.00
C585   C     0.35461   0.12406   0.74997   0.00000  Uiso   1.00
C586   C     0.64539   0.20928   0.75003   0.00000  Uiso   1.00
C587   C     0.64539   0.12406   0.75003   0.00000  Uiso   1.00
C588   C     0.35461   0.20928   0.74997   0.00000  Uiso   1.00
C589   C     0.62393   0.16667   0.75004   0.00000  Uiso   1.00
C590   C     0.37607   0.16667   0.74996   0.00000  Uiso   1.00
C591   C     0.47458   0.02482   0.72224   0.00000  Uiso   1.00
C592   C     0.52542   0.30851   0.77776   0.00000  Uiso   1.00
C593   C     0.52542   0.02482   0.77776   0.00000  Uiso   1.00
C594   C     0.47458   0.30851   0.72224   0.00000  Uiso   1.00
C595   C     0.49994   0.16667   0.66425   0.00000  Uiso   1.00
C596   C     0.50006   0.16667   0.83575   0.00000  Uiso   1.00
C597   C     0.50012   0.12401   0.90738   0.00000  Uiso   1.00
C598   C     0.49989   0.20932   0.59262   0.00000  Uiso   1.00
C599   C     0.50010   0.16667   0.88419   0.00000  Uiso   1.00
C600   C     0.49990   0.16667   0.61581   0.00000  Uiso   1.00
C601   C     0.50011   0.20932   0.90738   0.00000  Uiso   1.00
C602   C     0.49989   0.12401   0.59262   0.00000  Uiso   1.00
C603   C     0.50006   0.20962   0.95356   0.00000  Uiso   1.00
C604   C     0.49993   0.12371   0.54644   0.00000  Uiso   1.00
C605   C     0.50003   0.16667   0.97677   0.00000  Uiso   1.00
C606   C     0.49997   0.16667   0.52323   0.00000  Uiso   1.00
C607   C     0.50007   0.12371   0.95356   0.00000  Uiso   1.00
C608   C     0.49993   0.20962   0.54644   0.00000  Uiso   1.00
C609   C     0.50003   0.25213   0.97690   0.00000  Uiso   1.00
C610   C     0.49997   0.08120   0.52310   0.00000  Uiso   1.00
Cu611  Cu    0.50000   0.21355   0.75000   0.00000  Uiso   1.00
Cu612  Cu    0.50000   0.11978   0.75000   0.00000  Uiso   1.00
H613   H     0.50014   0.09099   0.88956   0.00000  Uiso   1.00
H614   H     0.49987   0.24234   0.61044   0.00000  Uiso   1.00
H615   H     0.50005   0.28532   0.95942   0.00000  Uiso   1.00
H616   H     0.49995   0.04801   0.54058   0.00000  Uiso   1.00
H617   H     0.49994   0.28533   0.54058   0.00000  Uiso   1.00
H618   H     0.50007   0.04801   0.95942   0.00000  Uiso   1.00
H619   H     0.37062   0.09075   0.74995   0.00000  Uiso   1.00
H620   H     0.62938   0.24259   0.75005   0.00000  Uiso   1.00
H621   H     0.62938   0.09075   0.75005   0.00000  Uiso   1.00
H622   H     0.37062   0.24259   0.74995   0.00000  Uiso   1.00
H623   H     0.45422   0.04356   0.70002   0.00000  Uiso   1.00
H624   H     0.54578   0.28977   0.79998   0.00000  Uiso   1.00
H625   H     0.54578   0.04356   0.79998   0.00000  Uiso   1.00
H626   H     0.45422   0.28977   0.70002   0.00000  Uiso   1.00
N627   N     0.50000   0.28402   0.75000   0.00000  Uiso   1.00
N628   N     0.50000   0.04931   0.75000   0.00000  Uiso   1.00
O629   O     0.43988   0.20625   0.74999   0.00000  Uiso   1.00
O630   O     0.56012   0.12709   0.75000   0.00000  Uiso   1.00
O631   O     0.56012   0.20625   0.75000   0.00000  Uiso   1.00
O632   O     0.43988   0.12709   0.74999   0.00000  Uiso   1.00
O633   O     0.49999   0.20627   0.68513   0.00000  Uiso   1.00
O634   O     0.50001   0.12707   0.81487   0.00000  Uiso   1.00
O635   O     0.50001   0.20627   0.81487   0.00000  Uiso   1.00
O636   O     0.49999   0.12707   0.68513   0.00000  Uiso   1.00
H637   H     0.50013   0.24234   0.88956   0.00000  Uiso   1.00
H638   H     0.49986   0.09099   0.61044   0.00000  Uiso   1.00
C639   C     0.75401   0.16667   0.74996   0.00000  Uiso   1.00
C640   C     0.91266   0.16667   0.75003   0.00000  Uiso   1.00
C641   C     0.83329   0.25213   0.52310   0.00000  Uiso   1.00
C642   C     0.83337   0.08121   0.97689   0.00000  Uiso   1.00
C643   C     0.68795   0.12406   0.74997   0.00000  Uiso   1.00
C644   C     0.97872   0.20928   0.75003   0.00000  Uiso   1.00
C645   C     0.97872   0.12406   0.75003   0.00000  Uiso   1.00
C646   C     0.68795   0.20928   0.74997   0.00000  Uiso   1.00
C647   C     0.95727   0.16667   0.75004   0.00000  Uiso   1.00
C648   C     0.70940   0.16667   0.74996   0.00000  Uiso   1.00
C649   C     0.80791   0.02482   0.72224   0.00000  Uiso   1.00
C650   C     0.85876   0.30851   0.77776   0.00000  Uiso   1.00
C651   C     0.85876   0.02482   0.77776   0.00000  Uiso   1.00
C652   C     0.80791   0.30851   0.72224   0.00000  Uiso   1.00
C653   C     0.83328   0.16667   0.66425   0.00000  Uiso   1.00
C654   C     0.83339   0.16667   0.83575   0.00000  Uiso   1.00
C655   C     0.83345   0.12401   0.90738   0.00000  Uiso   1.00
C656   C     0.83322   0.20932   0.59262   0.00000  Uiso   1.00
C657   C     0.83344   0.16667   0.88419   0.00000  Uiso   1.00
C658   C     0.83323   0.16667   0.61581   0.00000  Uiso   1.00
C659   C     0.83344   0.20932   0.90738   0.00000  Uiso   1.00
C660   C     0.83322   0.12401   0.59262   0.00000  Uiso   1.00
C661   C     0.83340   0.20962   0.95356   0.00000  Uiso   1.00
C662   C     0.83327   0.12371   0.54644   0.00000  Uiso   1.00
C663   C     0.83337   0.16667   0.97677   0.00000  Uiso   1.00
C664   C     0.83330   0.16667   0.52323   0.00000  Uiso   1.00
C665   C     0.83340   0.12371   0.95356   0.00000  Uiso   1.00
C666   C     0.83327   0.20962   0.54644   0.00000  Uiso   1.00
C667   C     0.83336   0.25213   0.97690   0.00000  Uiso   1.00
C668   C     0.83330   0.08120   0.52310   0.00000  Uiso   1.00
Cu669  Cu    0.83333   0.21355   0.75000   0.00000  Uiso   1.00
Cu670  Cu    0.83333   0.11978   0.75000   0.00000  Uiso   1.00
H671   H     0.83348   0.09099   0.88956   0.00000  Uiso   1.00
H672   H     0.83320   0.24234   0.61044   0.00000  Uiso   1.00
H673   H     0.83339   0.28532   0.95942   0.00000  Uiso   1.00
H674   H     0.83328   0.04801   0.54058   0.00000  Uiso   1.00
H675   H     0.83327   0.28533   0.54058   0.00000  Uiso   1.00
H676   H     0.83340   0.04801   0.95942   0.00000  Uiso   1.00
H677   H     0.70396   0.09075   0.74995   0.00000  Uiso   1.00
H678   H     0.96271   0.24259   0.75005   0.00000  Uiso   1.00
H679   H     0.96271   0.09075   0.75005   0.00000  Uiso   1.00
H680   H     0.70396   0.24259   0.74995   0.00000  Uiso   1.00
H681   H     0.78756   0.04356   0.70002   0.00000  Uiso   1.00
H682   H     0.87911   0.28977   0.79998   0.00000  Uiso   1.00
H683   H     0.87911   0.04356   0.79998   0.00000  Uiso   1.00
H684   H     0.78756   0.28977   0.70002   0.00000  Uiso   1.00
N685   N     0.83333   0.28402   0.75000   0.00000  Uiso   1.00
N686   N     0.83333   0.04931   0.75000   0.00000  Uiso   1.00
O687   O     0.77321   0.20625   0.74999   0.00000  Uiso   1.00
O688   O     0.89345   0.12709   0.75000   0.00000  Uiso   1.00
O689   O     0.89345   0.20625   0.75000   0.00000  Uiso   1.00
O690   O     0.77321   0.12709   0.74999   0.00000  Uiso   1.00
O691   O     0.83332   0.20627   0.68513   0.00000  Uiso   1.00
O692   O     0.83334   0.12707   0.81487   0.00000  Uiso   1.00
O693   O     0.83334   0.20627   0.81487   0.00000  Uiso   1.00
O694   O     0.83332   0.12707   0.68513   0.00000  Uiso   1.00
H695   H     0.83346   0.24234   0.88956   0.00000  Uiso   1.00
H696   H     0.83320   0.09099   0.61044   0.00000  Uiso   1.00
C697   C     0.08734   0.50000   0.74996   0.00000  Uiso   1.00
C698   C     0.24599   0.50000   0.75003   0.00000  Uiso   1.00
C699   C     0.16663   0.58546   0.52310   0.00000  Uiso   1.00
C700   C     0.16671   0.41454   0.97689   0.00000  Uiso   1.00
C701   C     0.02128   0.45739   0.74997   0.00000  Uiso   1.00
C702   C     0.31205   0.54261   0.75003   0.00000  Uiso   1.00
C703   C     0.31205   0.45739   0.75003   0.00000  Uiso   1.00
C704   C     0.02128   0.54261   0.74997   0.00000  Uiso   1.00
C705   C     0.29060   0.50000   0.75004   0.00000  Uiso   1.00
C706   C     0.04273   0.50000   0.74996   0.00000  Uiso   1.00
C707   C     0.14124   0.35815   0.72224   0.00000  Uiso   1.00
C708   C     0.19209   0.64185   0.77776   0.00000  Uiso   1.00
C709   C     0.19209   0.35815   0.77776   0.00000  Uiso   1.00
C710   C     0.14124   0.64185   0.72224   0.00000  Uiso   1.00
C711   C     0.16661   0.50000   0.66425   0.00000  Uiso   1.00
C712   C     0.16672   0.50000   0.83575   0.00000  Uiso   1.00
C713   C     0.16678   0.45735   0.90738   0.00000  Uiso   1.00
C714   C     0.16655   0.54265   0.59262   0.00000  Uiso   1.00
C715   C     0.16677   0.50000   0.88419   0.00000  Uiso   1.00
C716   C     0.16656   0.50000   0.61581   0.00000  Uiso   1.00
C717   C     0.16678   0.54265   0.90738   0.00000  Uiso   1.00
C718   C     0.16655   0.45735   0.59262   0.00000  Uiso   1.00
C719   C     0.16673   0.54296   0.95356   0.00000  Uiso   1.00
C720   C     0.16660   0.45704   0.54644   0.00000  Uiso   1.00
C721   C     0.16670   0.50000   0.97677   0.00000  Uiso   1.00
C722   C     0.16663   0.50000   0.52323   0.00000  Uiso   1.00
C723   C     0.16674   0.45704   0.95356   0.00000  Uiso   1.00
C724   C     0.16660   0.54296   0.54644   0.00000  Uiso   1.00
C725   C     0.16670   0.58546   0.97690   0.00000  Uiso   1.00
C726   C     0.16664   0.41454   0.52310   0.00000  Uiso   1.00
Cu727  Cu    0.16667   0.54689   0.75000   0.00000  Uiso   1.00
Cu728  Cu    0.16667   0.45311   0.75000   0.00000  Uiso   1.00
H729   H     0.16681   0.42433   0.88956   0.00000  Uiso   1.00
H730   H     0.16653   0.57568   0.61044   0.00000  Uiso   1.00
H731   H     0.16672   0.61866   0.95942   0.00000  Uiso   1.00
H732   H     0.16661   0.38134   0.54058   0.00000  Uiso   1.00
H733   H     0.16660   0.61866   0.54058   0.00000  Uiso   1.00
H734   H     0.16674   0.38134   0.95942   0.00000  Uiso   1.00
H735   H     0.03729   0.42408   0.74995   0.00000  Uiso   1.00
H736   H     0.29604   0.57592   0.75005   0.00000  Uiso   1.00
H737   H     0.29604   0.42408   0.75005   0.00000  Uiso   1.00
H738   H     0.03729   0.57592   0.74995   0.00000  Uiso   1.00
H739   H     0.12089   0.37689   0.70002   0.00000  Uiso   1.00
H740   H     0.21244   0.62311   0.79998   0.00000  Uiso   1.00
H741   H     0.21244   0.37689   0.79998   0.00000  Uiso   1.00
H742   H     0.12089   0.62311   0.70002   0.00000  Uiso   1.00
N743   N     0.16667   0.61736   0.75000   0.00000  Uiso   1.00
N744   N     0.16667   0.38264   0.75000   0.00000  Uiso   1.00
O745   O     0.10655   0.53958   0.74999   0.00000  Uiso   1.00
O746   O     0.22679   0.46042   0.75000   0.00000  Uiso   1.00
O747   O     0.22679   0.53958   0.75000   0.00000  Uiso   1.00
O748   O     0.10655   0.46042   0.74999   0.00000  Uiso   1.00
O749   O     0.16666   0.53960   0.68513   0.00000  Uiso   1.00
O750   O     0.16668   0.46040   0.81487   0.00000  Uiso   1.00
O751   O     0.16668   0.53960   0.81487   0.00000  Uiso   1.00
O752   O     0.16666   0.46040   0.68513   0.00000  Uiso   1.00
H753   H     0.16680   0.57567   0.88956   0.00000  Uiso   1.00
H754   H     0.16653   0.42432   0.61044   0.00000  Uiso   1.00
C755   C     0.42067   0.50000   0.74996   0.00000  Uiso   1.00
C756   C     0.57933   0.50000   0.75003   0.00000  Uiso   1.00
C757   C     0.49996   0.58546   0.52310   0.00000  Uiso   1.00
C758   C     0.50004   0.41454   0.97689   0.00000  Uiso   1.00
C759   C     0.35461   0.45739   0.74997   0.00000  Uiso   1.00
C760   C     0.64539   0.54261   0.75003   0.00000  Uiso   1.00
C761   C     0.64539   0.45739   0.75003   0.00000  Uiso   1.00
C762   C     0.35461   0.54261   0.74997   0.00000  Uiso   1.00
C763   C     0.62393   0.50000   0.75004   0.00000  Uiso   1.00
C764   C     0.37607   0.50000   0.74996   0.00000  Uiso   1.00
C765   C     0.47458   0.35815   0.72224   0.00000  Uiso   1.00
C766   C     0.52542   0.64185   0.77776   0.00000  Uiso   1.00
C767   C     0.52542   0.35815   0.77776   0.00000  Uiso   1.00
C768   C     0.47458   0.64185   0.72224   0.00000  Uiso   1.00
C769   C     0.49994   0.50000   0.66425   0.00000  Uiso   1.00
C770   C     0.50006   0.50000   0.83575   0.00000  Uiso   1.00
C771   C     0.50012   0.45735   0.90738   0.00000  Uiso   1.00
C772   C     0.49989   0.54265   0.59262   0.00000  Uiso   1.00
C773   C     0.50010   0.50000   0.88419   0.00000  Uiso   1.00
C774   C     0.49990   0.50000   0.61581   0.00000  Uiso   1.00
C775   C     0.50011   0.54265   0.90738   0.00000  Uiso   1.00
C776   C     0.49989   0.45735   0.59262   0.00000  Uiso   1.00
C777   C     0.50006   0.54296   0.95356   0.00000  Uiso   1.00
C778   C     0.49993   0.45704   0.54644   0.00000  Uiso   1.00
C779   C     0.50003   0.50000   0.97677   0.00000  Uiso   1.00
C780   C     0.49997   0.50000   0.52323   0.00000  Uiso   1.00
C781   C     0.50007   0.45704   0.95356   0.00000  Uiso   1.00
C782   C     0.49993   0.54296   0.54644   0.00000  Uiso   1.00
C783   C     0.50003   0.58546   0.97690   0.00000  Uiso   1.00
C784   C     0.49997   0.41454   0.52310   0.00000  Uiso   1.00
Cu785  Cu    0.50000   0.54689   0.75000   0.00000  Uiso   1.00
Cu786  Cu    0.50000   0.45311   0.75000   0.00000  Uiso   1.00
H787   H     0.50014   0.42433   0.88956   0.00000  Uiso   1.00
H788   H     0.49987   0.57568   0.61044   0.00000  Uiso   1.00
H789   H     0.50005   0.61866   0.95942   0.00000  Uiso   1.00
H790   H     0.49995   0.38134   0.54058   0.00000  Uiso   1.00
H791   H     0.49994   0.61866   0.54058   0.00000  Uiso   1.00
H792   H     0.50007   0.38134   0.95942   0.00000  Uiso   1.00
H793   H     0.37062   0.42408   0.74995   0.00000  Uiso   1.00
H794   H     0.62938   0.57592   0.75005   0.00000  Uiso   1.00
H795   H     0.62938   0.42408   0.75005   0.00000  Uiso   1.00
H796   H     0.37062   0.57592   0.74995   0.00000  Uiso   1.00
H797   H     0.45422   0.37689   0.70002   0.00000  Uiso   1.00
H798   H     0.54578   0.62311   0.79998   0.00000  Uiso   1.00
H799   H     0.54578   0.37689   0.79998   0.00000  Uiso   1.00
H800   H     0.45422   0.62311   0.70002   0.00000  Uiso   1.00
N801   N     0.50000   0.61736   0.75000   0.00000  Uiso   1.00
N802   N     0.50000   0.38264   0.75000   0.00000  Uiso   1.00
O803   O     0.43988   0.53958   0.74999   0.00000  Uiso   1.00
O804   O     0.56012   0.46042   0.75000   0.00000  Uiso   1.00
O805   O     0.56012   0.53958   0.75000   0.00000  Uiso   1.00
O806   O     0.43988   0.46042   0.74999   0.00000  Uiso   1.00
O807   O     0.49999   0.53960   0.68513   0.00000  Uiso   1.00
O808   O     0.50001   0.46040   0.81487   0.00000  Uiso   1.00
O809   O     0.50001   0.53960   0.81487   0.00000  Uiso   1.00
O810   O     0.49999   0.46040   0.68513   0.00000  Uiso   1.00
H811   H     0.50013   0.57567   0.88956   0.00000  Uiso   1.00
H812   H     0.49986   0.42432   0.61044   0.00000  Uiso   1.00
C813   C     0.75401   0.50000   0.74996   0.00000  Uiso   1.00
C814   C     0.91266   0.50000   0.75003   0.00000  Uiso   1.00
C815   C     0.83329   0.58546   0.52310   0.00000  Uiso   1.00
C816   C     0.83337   0.41454   0.97689   0.00000  Uiso   1.00
C817   C     0.68795   0.45739   0.74997   0.00000  Uiso   1.00
C818   C     0.97872   0.54261   0.75003   0.00000  Uiso   1.00
C819   C     0.97872   0.45739   0.75003   0.00000  Uiso   1.00
C820   C     0.68795   0.54261   0.74997   0.00000  Uiso   1.00
C821   C     0.95727   0.50000   0.75004   0.00000  Uiso   1.00
C822   C     0.70940   0.50000   0.74996   0.00000  Uiso   1.00
C823   C     0.80791   0.35815   0.72224   0.00000  Uiso   1.00
C824   C     0.85876   0.64185   0.77776   0.00000  Uiso   1.00
C825   C     0.85876   0.35815   0.77776   0.00000  Uiso   1.00
C826   C     0.80791   0.64185   0.72224   0.00000  Uiso   1.00
C827   C     0.83328   0.50000   0.66425   0.00000  Uiso   1.00
C828   C     0.83339   0.50000   0.83575   0.00000  Uiso   1.00
C829   C     0.83345   0.45735   0.90738   0.00000  Uiso   1.00
C830   C     0.83322   0.54265   0.59262   0.00000  Uiso   1.00
C831   C     0.83344   0.50000   0.88419   0.00000  Uiso   1.00
C832   C     0.83323   0.50000   0.61581   0.00000  Uiso   1.00
C833   C     0.83344   0.54265   0.90738   0.00000  Uiso   1.00
C834   C     0.83322   0.45735   0.59262   0.00000  Uiso   1.00
C835   C     0.83340   0.54296   0.95356   0.00000  Uiso   1.00
C836   C     0.83327   0.45704   0.54644   0.00000  Uiso   1.00
C837   C     0.83337   0.50000   0.97677   0.00000  Uiso   1.00
C838   C     0.83330   0.50000   0.52323   0.00000  Uiso   1.00
C839   C     0.83340   0.45704   0.95356   0.00000  Uiso   1.00
C840   C     0.83327   0.54296   0.54644   0.00000  Uiso   1.00
C841   C     0.83336   0.58546   0.97690   0.00000  Uiso   1.00
C842   C     0.83330   0.41454   0.52310   0.00000  Uiso   1.00
Cu843  Cu    0.83333   0.54689   0.75000   0.00000  Uiso   1.00
Cu844  Cu    0.83333   0.45311   0.75000   0.00000  Uiso   1.00
H845   H     0.83348   0.42433   0.88956   0.00000  Uiso   1.00
H846   H     0.83320   0.57568   0.61044   0.00000  Uiso   1.00
H847   H     0.83339   0.61866   0.95942   0.00000  Uiso   1.00
H848   H     0.83328   0.38134   0.54058   0.00000  Uiso   1.00
H849   H     0.83327   0.61866   0.54058   0.00000  Uiso   1.00
H850   H     0.83340   0.38134   0.95942   0.00000  Uiso   1.00
H851   H     0.70396   0.42408   0.74995   0.00000  Uiso   1.00
H852   H     0.96271   0.57592   0.75005   0.00000  Uiso   1.00
H853   H     0.96271   0.42408   0.75005   0.00000  Uiso   1.00
H854   H     0.70396   0.57592   0.74995   0.00000  Uiso   1.00
H855   H     0.78756   0.37689   0.70002   0.00000  Uiso   1.00
H856   H     0.87911   0.62311   0.79998   0.00000  Uiso   1.00
H857   H     0.87911   0.37689   0.79998   0.00000  Uiso   1.00
H858   H     0.78756   0.62311   0.70002   0.00000  Uiso   1.00
N859   N     0.83333   0.61736   0.75000   0.00000  Uiso   1.00
N860   N     0.83333   0.38264   0.75000   0.00000  Uiso   1.00
O861   O     0.77321   0.53958   0.74999   0.00000  Uiso   1.00
O862   O     0.89345   0.46042   0.75000   0.00000  Uiso   1.00
O863   O     0.89345   0.53958   0.75000   0.00000  Uiso   1.00
O864   O     0.77321   0.46042   0.74999   0.00000  Uiso   1.00
O865   O     0.83332   0.53960   0.68513   0.00000  Uiso   1.00
O866   O     0.83334   0.46040   0.81487   0.00000  Uiso   1.00
O867   O     0.83334   0.53960   0.81487   0.00000  Uiso   1.00
O868   O     0.83332   0.46040   0.68513   0.00000  Uiso   1.00
H869   H     0.83346   0.57567   0.88956   0.00000  Uiso   1.00
H870   H     0.83320   0.42432   0.61044   0.00000  Uiso   1.00
C871   C     0.08734   0.83333   0.74996   0.00000  Uiso   1.00
C872   C     0.24599   0.83333   0.75003   0.00000  Uiso   1.00
C873   C     0.16663   0.91880   0.52310   0.00000  Uiso   1.00
C874   C     0.16671   0.74787   0.97689   0.00000  Uiso   1.00
C875   C     0.02128   0.79072   0.74997   0.00000  Uiso   1.00
C876   C     0.31205   0.87594   0.75003   0.00000  Uiso   1.00
C877   C     0.31205   0.79072   0.75003   0.00000  Uiso   1.00
C878   C     0.02128   0.87594   0.74997   0.00000  Uiso   1.00
C879   C     0.29060   0.83333   0.75004   0.00000  Uiso   1.00
C880   C     0.04273   0.83333   0.74996   0.00000  Uiso   1.00
C881   C     0.14124   0.69149   0.72224   0.00000  Uiso   1.00
C882   C     0.19209   0.97518   0.77776   0.00000  Uiso   1.00
C883   C     0.19209   0.69149   0.77776   0.00000  Uiso   1.00
C884   C     0.14124   0.97518   0.72224   0.00000  Uiso   1.00
C885   C     0.16661   0.83333   0.66425   0.00000  Uiso   1.00
C886   C     0.16672   0.83333   0.83575   0.00000  Uiso   1.00
C887   C     0.16678   0.79068   0.90738   0.00000  Uiso   1.00
C888   C     0.16655   0.87599   0.59262   0.00000  Uiso   1.00
C889   C     0.16677   0.83333   0.88419   0.00000  Uiso   1.00
C890   C     0.16656   0.83333   0.61581   0.00000  Uiso   1.00
C891   C     0.16678   0.87599   0.90738   0.00000  Uiso   1.00
C892   C     0.16655   0.79068   0.59262   0.00000  Uiso   1.00
C893   C     0.16673   0.87629   0.95356   0.00000  Uiso   1.00
C894   C     0.16660   0.79038   0.54644   0.00000  Uiso   1.00
C895   C     0.16670   0.83333   0.97677   0.00000  Uiso   1.00
C896   C     0.16663   0.83333   0.52323   0.00000  Uiso   1.00
C897   C     0.16674   0.79038   0.95356   0.00000  Uiso   1.00
C898   C     0.16660   0.87629   0.54644   0.00000  Uiso   1.00
C899   C     0.16670   0.91879   0.97690   0.00000  Uiso   1.00
C900   C     0.16664   0.74787   0.52310   0.00000  Uiso   1.00
Cu901  Cu    0.16667   0.88022   0.75000   0.00000  Uiso   1.00
Cu902  Cu    0.16667   0.78645   0.75000   0.00000  Uiso   1.00
H903   H     0.16681   0.75766   0.88956   0.00000  Uiso   1.00
H904   H     0.16653   0.90901   0.61044   0.00000  Uiso   1.00
H905   H     0.16672   0.95199   0.95942   0.00000  Uiso   1.00
H906   H     0.16661   0.71467   0.54058   0.00000  Uiso   1.00
H907   H     0.16660   0.95199   0.54058   0.00000  Uiso   1.00
H908   H     0.16674   0.71468   0.95942   0.00000  Uiso   1.00
H909   H     0.03729   0.75741   0.74995   0.00000  Uiso   1.00
H910   H     0.29604   0.90925   0.75005   0.00000  Uiso   1.00
H911   H     0.29604   0.75741   0.75005   0.00000  Uiso   1.00
H912   H     0.03729   0.90925   0.74995   0.00000  Uiso   1.00
H913   H     0.12089   0.71023   0.70002   0.00000  Uiso   1.00
H914   H     0.21244   0.95644   0.79998   0.00000  Uiso   1.00
H915   H     0.21244   0.71023   0.79998   0.00000  Uiso   1.00
H916   H     0.12089   0.95644   0.70002   0.00000  Uiso   1.00
N917   N     0.16667   0.95069   0.75000   0.00000  Uiso   1.00
N918   N     0.16667   0.71598   0.75000   0.00000  Uiso   1.00
O919   O     0.10655   0.87291   0.74999   0.00000  Uiso   1.00
O920   O     0.22679   0.79375   0.75000   0.00000  Uiso   1.00
O921   O     0.22679   0.87291   0.75000   0.00000  Uiso   1.00
O922   O     0.10655   0.79375   0.74999   0.00000  Uiso   1.00
O923   O     0.16666   0.87293   0.68513   0.00000  Uiso   1.00
O924   O     0.16668   0.79373   0.81487   0.00000  Uiso   1.00
O925   O     0.16668   0.87293   0.81487   0.00000  Uiso   1.00
O926   O     0.16666   0.79373   0.68513   0.00000  Uiso   1.00
H927   H     0.16680   0.90901   0.88956   0.00000  Uiso   1.00
H928   H     0.16653   0.75766   0.61044   0.00000  Uiso   1.00
C929   C     0.42067   0.83333   0.74996   0.00000  Uiso   1.00
C930   C     0.57933   0.83333   0.75003   0.00000  Uiso   1.00
C931   C     0.49996   0.91880   0.52310   0.00000  Uiso   1.00
C932   C     0.50004   0.74787   0.97689   0.00000  Uiso   1.00
C933   C     0.35461   0.79072   0.74997   0.00000  Uiso   1.00
C934   C     0.64539   0.87594   0.75003   0.00000  Uiso   1.00
C935   C     0.64539   0.79072   0.75003   0.00000  Uiso   1.00
C936   C     0.35461   0.87594   0.74997   0.00000  Uiso   1.00
C937   C     0.62393   0.83333   0.75004   0.00000  Uiso   1.00
C938   C     0.37607   0.83333   0.74996   0.00000  Uiso   1.00
C939   C     0.47458   0.69149   0.72224   0.00000  Uiso   1.00
C940   C     0.52542   0.97518   0.77776   0.00000  Uiso   1.00
C941   C     0.52542   0.69149   0.77776   0.00000  Uiso   1.00
C942   C     0.47458   0.97518   0.72224   0.00000  Uiso   1.00
C943   C     0.49994   0.83333   0.66425   0.00000  Uiso   1.00
C944   C     0.50006   0.83333   0.83575   0.00000  Uiso   1.00
C945   C     0.50012   0.79068   0.90738   0.00000  Uiso   1.00
C946   C     0.49989   0.87599   0.59262   0.00000  Uiso   1.00
C947   C     0.50010   0.83333   0.88419   0.00000  Uiso   1.00
C948   C     0.49990   0.83333   0.61581   0.00000  Uiso   1.00
C949   C     0.50011   0.87599   0.90738   0.00000  Uiso   1.00
C950   C     0.49989   0.79068   0.59262   0.00000  Uiso   1.00
C951   C     0.50006   0.87629   0.95356   0.00000  Uiso   1.00
C952   C     0.49993   0.79038   0.54644   0.00000  Uiso   1.00
C953   C     0.50003   0.83333   0.97677   0.00000  Uiso   1.00
C954   C     0.49997   0.83333   0.52323   0.00000  Uiso   1.00
C955   C     0.50007   0.79038   0.95356   0.00000  Uiso   1.00
C956   C     0.49993   0.87629   0.54644   0.00000  Uiso   1.00
C957   C     0.50003   0.91879   0.97690   0.00000  Uiso   1.00
C958   C     0.49997   0.74787   0.52310   0.00000  Uiso   1.00
Cu959  Cu    0.50000   0.88022   0.75000   0.00000  Uiso   1.00
Cu960  Cu    0.50000   0.78645   0.75000   0.00000  Uiso   1.00
H961   H     0.50014   0.75766   0.88956   0.00000  Uiso   1.00
H962   H     0.49987   0.90901   0.61044   0.00000  Uiso   1.00
H963   H     0.50005   0.95199   0.95942   0.00000  Uiso   1.00
H964   H     0.49995   0.71467   0.54058   0.00000  Uiso   1.00
H965   H     0.49994   0.95199   0.54058   0.00000  Uiso   1.00
H966   H     0.50007   0.71468   0.95942   0.00000  Uiso   1.00
H967   H     0.37062   0.75741   0.74995   0.00000  Uiso   1.00
H968   H     0.62938   0.90925   0.75005   0.00000  Uiso   1.00
H969   H     0.62938   0.75741   0.75005   0.00000  Uiso   1.00
H970   H     0.37062   0.90925   0.74995   0.00000  Uiso   1.00
H971   H     0.45422   0.71023   0.70002   0.00000  Uiso   1.00
H972   H     0.54578   0.95644   0.79998   0.00000  Uiso   1.00
H973   H     0.54578   0.71023   0.79998   0.00000  Uiso   1.00
H974   H     0.45422   0.95644   0.70002   0.00000  Uiso   1.00
N975   N     0.50000   0.95069   0.75000   0.00000  Uiso   1.00
N976   N     0.50000   0.71598   0.75000   0.00000  Uiso   1.00
O977   O     0.43988   0.87291   0.74999   0.00000  Uiso   1.00
O978   O     0.56012   0.79375   0.75000   0.00000  Uiso   1.00
O979   O     0.56012   0.87291   0.75000   0.00000  Uiso   1.00
O980   O     0.43988   0.79375   0.74999   0.00000  Uiso   1.00
O981   O     0.49999   0.87293   0.68513   0.00000  Uiso   1.00
O982   O     0.50001   0.79373   0.81487   0.00000  Uiso   1.00
O983   O     0.50001   0.87293   0.81487   0.00000  Uiso   1.00
O984   O     0.49999   0.79373   0.68513   0.00000  Uiso   1.00
H985   H     0.50013   0.90901   0.88956   0.00000  Uiso   1.00
H986   H     0.49986   0.75766   0.61044   0.00000  Uiso   1.00
C987   C     0.75401   0.83333   0.74996   0.00000  Uiso   1.00
C988   C     0.91266   0.83333   0.75003   0.00000  Uiso   1.00
C989   C     0.83329   0.91880   0.52310   0.00000  Uiso   1.00
C990   C     0.83337   0.74787   0.97689   0.00000  Uiso   1.00
C991   C     0.68795   0.79072   0.74997   0.00000  Uiso   1.00
C992   C     0.97872   0.87594   0.75003   0.00000  Uiso   1.00
C993   C     0.97872   0.79072   0.75003   0.00000  Uiso   1.00
C994   C     0.68795   0.87594   0.74997   0.00000  Uiso   1.00
C995   C     0.95727   0.83333   0.75004   0.00000  Uiso   1.00
C996   C     0.70940   0.83333   0.74996   0.00000  Uiso   1.00
C997   C     0.80791   0.69149   0.72224   0.00000  Uiso   1.00
C998   C     0.85876   0.97518   0.77776   0.00000  Uiso   1.00
C999   C     0.85876   0.69149   0.77776   0.00000  Uiso   1.00
C1000  C     0.80791   0.97518   0.72224   0.00000  Uiso   1.00
C1001  C     0.83328   0.83333   0.66425   0.00000  Uiso   1.00
C1002  C     0.83339   0.83333   0.83575   0.00000  Uiso   1.00
C1003  C     0.83345   0.79068   0.90738   0.00000  Uiso   1.00
C1004  C     0.83322   0.87599   0.59262   0.00000  Uiso   1.00
C1005  C     0.83344   0.83333   0.88419   0.00000  Uiso   1.00
C1006  C     0.83323   0.83333   0.61581   0.00000  Uiso   1.00
C1007  C     0.83344   0.87599   0.90738   0.00000  Uiso   1.00
C1008  C     0.83322   0.79068   0.59262   0.00000  Uiso   1.00
C1009  C     0.83340   0.87629   0.95356   0.00000  Uiso   1.00
C1010  C     0.83327   0.79038   0.54644   0.00000  Uiso   1.00
C1011  C     0.83337   0.83333   0.97677   0.00000  Uiso   1.00
C1012  C     0.83330   0.83333   0.52323   0.00000  Uiso   1.00
C1013  C     0.83340   0.79038   0.95356   0.00000  Uiso   1.00
C1014  C     0.83327   0.87629   0.54644   0.00000  Uiso   1.00
C1015  C     0.83336   0.91879   0.97690   0.00000  Uiso   1.00
C1016  C     0.83330   0.74787   0.52310   0.00000  Uiso   1.00
Cu1017 Cu    0.83333   0.88022   0.75000   0.00000  Uiso   1.00
Cu1018 Cu    0.83333   0.78645   0.75000   0.00000  Uiso   1.00
H1019  H     0.83348   0.75766   0.88956   0.00000  Uiso   1.00
H1020  H     0.83320   0.90901   0.61044   0.00000  Uiso   1.00
H1021  H     0.83339   0.95199   0.95942   0.00000  Uiso   1.00
H1022  H     0.83328   0.71467   0.54058   0.00000  Uiso   1.00
H1023  H     0.83327   0.95199   0.54058   0.00000  Uiso   1.00
H1024  H     0.83340   0.71468   0.95942   0.00000  Uiso   1.00
H1025  H     0.70396   0.75741   0.74995   0.00000  Uiso   1.00
H1026  H     0.96271   0.90925   0.75005   0.00000  Uiso   1.00
H1027  H     0.96271   0.75741   0.75005   0.00000  Uiso   1.00
H1028  H     0.70396   0.90925   0.74995   0.00000  Uiso   1.00
H1029  H     0.78756   0.71023   0.70002   0.00000  Uiso   1.00
H1030  H     0.87911   0.95644   0.79998   0.00000  Uiso   1.00
H1031  H     0.87911   0.71023   0.79998   0.00000  Uiso   1.00
H1032  H     0.78756   0.95644   0.70002   0.00000  Uiso   1.00
N1033  N     0.83333   0.95069   0.75000   0.00000  Uiso   1.00
N1034  N     0.83333   0.71598   0.75000   0.00000  Uiso   1.00
O1035  O     0.77321   0.87291   0.74999   0.00000  Uiso   1.00
O1036  O     0.89345   0.79375   0.75000   0.00000  Uiso   1.00
O1037  O     0.89345   0.87291   0.75000   0.00000  Uiso   1.00
O1038  O     0.77321   0.79375   0.74999   0.00000  Uiso   1.00
O1039  O     0.83332   0.87293   0.68513   0.00000  Uiso   1.00
O1040  O     0.83334   0.79373   0.81487   0.00000  Uiso   1.00
O1041  O     0.83334   0.87293   0.81487   0.00000  Uiso   1.00
O1042  O     0.83332   0.79373   0.68513   0.00000  Uiso   1.00
H1043  H     0.83346   0.90901   0.88956   0.00000  Uiso   1.00
H1044  H     0.83320   0.75766   0.61044   0.00000  Uiso   1.00
loop_
_geom_bond_atom_site_label_1
_geom_bond_atom_site_label_2
_geom_bond_distance
_geom_bond_site_symmetry_2
_ccdc_geom_bond_type
C1     O52     1.290   .     A
C1     O49     1.290   .     A
C1     C10     1.450   .     S
C2     O51     1.290   .     A
C2     O50     1.290   .     A
C2     C9      1.450   .     S
C3     C28     1.402   .     A
C3     H37     1.084   .     S
C3     C551    1.394   1_554 S
C4     C27     1.402   .     A
C4     H38     1.084   .     S
C4     C552    1.394   .     S
C5     H39     1.083   .     S
C5     C10     1.401   .     A
C5     C123    1.384   1_455 S
C6     C9      1.401   .     A
C6     H40     1.083   .     S
C6     C66     1.383   .     S
C7     C9      1.401   .     A
C7     H41     1.083   .     S
C7     C63     1.384   .     S
C8     H42     1.083   .     S
C8     C10     1.401   .     A
C8     C122    1.383   1_455 S
C11    H43     1.082   .     S
C11    N48     1.367   .     A
C11    C362    1.416   1_545 S
C12    H44     1.082   .     S
C12    N47     1.367   .     A
C12    C187    1.416   .     S
C13    N48     1.367   .     A
C13    H45     1.082   .     S
C13    C360    1.416   1_545 S
C14    N47     1.367   .     A
C14    H46     1.082   .     S
C14    C185    1.416   .     S
C15    O56     1.293   .     A
C15    C20     1.462   .     S
C15    O53     1.293   .     A
C16    O55     1.293   .     A
C16    C19     1.462   .     S
C16    O54     1.293   .     A
C17    H33     1.084   .     S
C17    C19     1.403   .     A
C17    C27     1.393   .     A
C18    H34     1.084   .     S
C18    C28     1.393   .     A
C18    C20     1.403   .     A
C19    C21     1.403   .     A
C20    C22     1.403   .     A
C21    H57     1.084   .     S
C21    C23     1.393   .     A
C22    H58     1.084   .     S
C22    C24     1.393   .     A
C23    C29     1.402   .     A
C23    C25     1.411   .     A
C24    C30     1.402   .     A
C24    C26     1.411   .     A
C25    C27     1.411   .     A
C25    C548    1.402   .     S
C26    C28     1.411   .     A
C26    C547    1.402   1_554 S
C29    H35     1.084   .     S
C29    C525    1.394   .     S
C30    H36     1.084   .     S
C30    C526    1.394   1_554 S
Cu31   Cu32    2.675   .     S
Cu31   N47     2.010   .     S
Cu31   O53     1.968   .     S
Cu31   O49     1.965   .     S
Cu31   O51     1.965   .     S
Cu31   O55     1.968   .     S
Cu32   N48     2.010   .     S
Cu32   O50     1.965   .     S
Cu32   O54     1.968   .     S
Cu32   O52     1.965   .     S
Cu32   O56     1.968   .     S
C59    O110    1.290   .     A
C59    O107    1.290   .     A
C59    C68     1.450   .     S
C60    O109    1.290   .     A
C60    O108    1.290   .     A
C60    C67     1.450   .     S
C61    C86     1.402   .     A
C61    H95     1.084   .     S
C61    C609    1.394   1_554 S
C62    C85     1.402   .     A
C62    H96     1.084   .     S
C62    C610    1.394   .     S
C63    H97     1.083   .     S
C63    C68     1.401   .     A
C64    C67     1.401   .     A
C64    H98     1.083   .     S
C64    C124    1.383   .     S
C65    C67     1.401   .     A
C65    H99     1.083   .     S
C65    C121    1.384   .     S
C66    H100    1.083   .     S
C66    C68     1.401   .     A
C69    H101    1.082   .     S
C69    N106    1.367   .     A
C69    C420    1.416   1_545 S
C70    H102    1.082   .     S
C70    N105    1.367   .     A
C70    C245    1.416   .     S
C71    N106    1.367   .     A
C71    H103    1.082   .     S
C71    C418    1.416   1_545 S
C72    N105    1.367   .     A
C72    H104    1.082   .     S
C72    C243    1.416   .     S
C73    O114    1.293   .     A
C73    C78     1.462   .     S
C73    O111    1.293   .     A
C74    O113    1.293   .     A
C74    C77     1.462   .     S
C74    O112    1.293   .     A
C75    H91     1.084   .     S
C75    C77     1.403   .     A
C75    C85     1.393   .     A
C76    H92     1.084   .     S
C76    C86     1.393   .     A
C76    C78     1.403   .     A
C77    C79     1.403   .     A
C78    C80     1.403   .     A
C79    H115    1.084   .     S
C79    C81     1.393   .     A
C80    H116    1.084   .     S
C80    C82     1.393   .     A
C81    C87     1.402   .     A
C81    C83     1.411   .     A
C82    C88     1.402   .     A
C82    C84     1.411   .     A
C83    C85     1.411   .     A
C83    C606    1.402   .     S
C84    C86     1.411   .     A
C84    C605    1.402   1_554 S
C87    H93     1.084   .     S
C87    C583    1.394   .     S
C88    H94     1.084   .     S
C88    C584    1.394   1_554 S
Cu89   Cu90    2.675   .     S
Cu89   N105    2.010   .     S
Cu89   O111    1.968   .     S
Cu89   O107    1.965   .     S
Cu89   O109    1.965   .     S
Cu89   O113    1.968   .     S
Cu90   N106    2.010   .     S
Cu90   O108    1.965   .     S
Cu90   O112    1.968   .     S
Cu90   O110    1.965   .     S
Cu90   O114    1.968   .     S
C117   O168    1.290   .     A
C117   O165    1.290   .     A
C117   C126    1.450   .     S
C118   O167    1.290   .     A
C118   O166    1.290   .     A
C118   C125    1.450   .     S
C119   C144    1.402   .     A
C119   H153    1.084   .     S
C119   C667    1.394   1_554 S
C120   C143    1.402   .     A
C120   H154    1.084   .     S
C120   C668    1.394   .     S
C121   H155    1.083   .     S
C121   C126    1.401   .     A
C122   C125    1.401   .     A
C122   H156    1.083   .     S
C122   C8      1.383   1_655 S
C123   C125    1.401   .     A
C123   H157    1.083   .     S
C123   C5      1.384   1_655 S
C124   H158    1.083   .     S
C124   C126    1.401   .     A
C127   H159    1.082   .     S
C127   N164    1.367   .     A
C127   C478    1.416   1_545 S
C128   H160    1.082   .     S
C128   N163    1.367   .     A
C128   C303    1.416   .     S
C129   N164    1.367   .     A
C129   H161    1.082   .     S
C129   C476    1.416   1_545 S
C130   N163    1.367   .     A
C130   H162    1.082   .     S
C130   C301    1.416   .     S
C131   O172    1.293   .     A
C131   C136    1.462   .     S
C131   O169    1.293   .     A
C132   O171    1.293   .     A
C132   C135    1.462   .     S
C132   O170    1.293   .     A
C133   H149    1.084   .     S
C133   C135    1.403   .     A
C133   C143    1.393   .     A
C134   H150    1.084   .     S
C134   C144    1.393   .     A
C134   C136    1.403   .     A
C135   C137    1.403   .     A
C136   C138    1.403   .     A
C137   H173    1.084   .     S
C137   C139    1.393   .     A
C138   H174    1.084   .     S
C138   C140    1.393   .     A
C139   C145    1.402   .     A
C139   C141    1.411   .     A
C140   C146    1.402   .     A
C140   C142    1.411   .     A
C141   C143    1.411   .     A
C141   C664    1.402   .     S
C142   C144    1.411   .     A
C142   C663    1.402   1_554 S
C145   H151    1.084   .     S
C145   C641    1.394   .     S
C146   H152    1.084   .     S
C146   C642    1.394   1_554 S
Cu147  Cu148   2.675   .     S
Cu147  N163    2.010   .     S
Cu147  O169    1.968   .     S
Cu147  O165    1.965   .     S
Cu147  O167    1.965   .     S
Cu147  O171    1.968   .     S
Cu148  N164    2.010   .     S
Cu148  O166    1.965   .     S
Cu148  O170    1.968   .     S
Cu148  O168    1.965   .     S
Cu148  O172    1.968   .     S
C175   O226    1.290   .     A
C175   O223    1.290   .     A
C175   C184    1.450   .     S
C176   O225    1.290   .     A
C176   O224    1.290   .     A
C176   C183    1.450   .     S
C177   C202    1.402   .     A
C177   H211    1.084   .     S
C177   C725    1.394   1_554 S
C178   C201    1.402   .     A
C178   H212    1.084   .     S
C178   C726    1.394   .     S
C179   H213    1.083   .     S
C179   C184    1.401   .     A
C179   C297    1.384   1_455 S
C180   C183    1.401   .     A
C180   H214    1.083   .     S
C180   C240    1.383   .     S
C181   C183    1.401   .     A
C181   H215    1.083   .     S
C181   C237    1.384   .     S
C182   H216    1.083   .     S
C182   C184    1.401   .     A
C182   C296    1.383   1_455 S
C185   H217    1.082   .     S
C185   N222    1.367   .     A
C186   H218    1.082   .     S
C186   N221    1.367   .     A
C186   C361    1.416   .     S
C187   N222    1.367   .     A
C187   H219    1.082   .     S
C188   N221    1.367   .     A
C188   H220    1.082   .     S
C188   C359    1.416   .     S
C189   O230    1.293   .     A
C189   C194    1.462   .     S
C189   O227    1.293   .     A
C190   O229    1.293   .     A
C190   C193    1.462   .     S
C190   O228    1.293   .     A
C191   H207    1.084   .     S
C191   C193    1.403   .     A
C191   C201    1.393   .     A
C192   H208    1.084   .     S
C192   C202    1.393   .     A
C192   C194    1.403   .     A
C193   C195    1.403   .     A
C194   C196    1.403   .     A
C195   H231    1.084   .     S
C195   C197    1.393   .     A
C196   H232    1.084   .     S
C196   C198    1.393   .     A
C197   C203    1.402   .     A
C197   C199    1.411   .     A
C198   C204    1.402   .     A
C198   C200    1.411   .     A
C199   C201    1.411   .     A
C199   C722    1.402   .     S
C200   C202    1.411   .     A
C200   C721    1.402   1_554 S
C203   H209    1.084   .     S
C203   C699    1.394   .     S
C204   H210    1.084   .     S
C204   C700    1.394   1_554 S
Cu205  Cu206   2.675   .     S
Cu205  N221    2.010   .     S
Cu205  O227    1.968   .     S
Cu205  O223    1.965   .     S
Cu205  O225    1.965   .     S
Cu205  O229    1.968   .     S
Cu206  N222    2.010   .     S
Cu206  O224    1.965   .     S
Cu206  O228    1.968   .     S
Cu206  O226    1.965   .     S
Cu206  O230    1.968   .     S
C233   O284    1.290   .     A
C233   O281    1.290   .     A
C233   C242    1.450   .     S
C234   O283    1.290   .     A
C234   O282    1.290   .     A
C234   C241    1.450   .     S
C235   C260    1.402   .     A
C235   H269    1.084   .     S
C235   C783    1.394   1_554 S
C236   C259    1.402   .     A
C236   H270    1.084   .     S
C236   C784    1.394   .     S
C237   H271    1.083   .     S
C237   C242    1.401   .     A
C238   C241    1.401   .     A
C238   H272    1.083   .     S
C238   C298    1.383   .     S
C239   C241    1.401   .     A
C239   H273    1.083   .     S
C239   C295    1.384   .     S
C240   H274    1.083   .     S
C240   C242    1.401   .     A
C243   H275    1.082   .     S
C243   N280    1.367   .     A
C244   H276    1.082   .     S
C244   N279    1.367   .     A
C244   C419    1.416   .     S
C245   N280    1.367   .     A
C245   H277    1.082   .     S
C246   N279    1.367   .     A
C246   H278    1.082   .     S
C246   C417    1.416   .     S
C247   O288    1.293   .     A
C247   C252    1.462   .     S
C247   O285    1.293   .     A
C248   O287    1.293   .     A
C248   C251    1.462   .     S
C248   O286    1.293   .     A
C249   H265    1.084   .     S
C249   C251    1.403   .     A
C249   C259    1.393   .     A
C250   H266    1.084   .     S
C250   C260    1.393   .     A
C250   C252    1.403   .     A
C251   C253    1.403   .     A
C252   C254    1.403   .     A
C253   H289    1.084   .     S
C253   C255    1.393   .     A
C254   H290    1.084   .     S
C254   C256    1.393   .     A
C255   C261    1.402   .     A
C255   C257    1.411   .     A
C256   C262    1.402   .     A
C256   C258    1.411   .     A
C257   C259    1.411   .     A
C257   C780    1.402   .     S
C258   C260    1.411   .     A
C258   C779    1.402   1_554 S
C261   H267    1.084   .     S
C261   C757    1.394   .     S
C262   H268    1.084   .     S
C262   C758    1.394   1_554 S
Cu263  Cu264   2.675   .     S
Cu263  N279    2.010   .     S
Cu263  O285    1.968   .     S
Cu263  O281    1.965   .     S
Cu263  O283    1.965   .     S
Cu263  O287    1.968   .     S
Cu264  N280    2.010   .     S
Cu264  O282    1.965   .     S
Cu264  O286    1.968   .     S
Cu264  O284    1.965   .     S
Cu264  O288    1.968   .     S
C291   O342    1.290   .     A
C291   O339    1.290   .     A
C291   C300    1.450   .     S
C292   O341    1.290   .     A
C292   O340    1.290   .     A
C292   C299    1.450   .     S
C293   C318    1.402   .     A
C293   H327    1.084   .     S
C293   C841    1.394   1_554 S
C294   C317    1.402   .     A
C294   H328    1.084   .     S
C294   C842    1.394   .     S
C295   H329    1.083   .     S
C295   C300    1.401   .     A
C296   C299    1.401   .     A
C296   H330    1.083   .     S
C296   C182    1.383   1_655 S
C297   C299    1.401   .     A
C297   H331    1.083   .     S
C297   C179    1.384   1_655 S
C298   H332    1.083   .     S
C298   C300    1.401   .     A
C301   H333    1.082   .     S
C301   N338    1.367   .     A
C302   H334    1.082   .     S
C302   N337    1.367   .     A
C302   C477    1.416   .     S
C303   N338    1.367   .     A
C303   H335    1.082   .     S
C304   N337    1.367   .     A
C304   H336    1.082   .     S
C304   C475    1.416   .     S
C305   O346    1.293   .     A
C305   C310    1.462   .     S
C305   O343    1.293   .     A
C306   O345    1.293   .     A
C306   C309    1.462   .     S
C306   O344    1.293   .     A
C307   H323    1.084   .     S
C307   C309    1.403   .     A
C307   C317    1.393   .     A
C308   H324    1.084   .     S
C308   C318    1.393   .     A
C308   C310    1.403   .     A
C309   C311    1.403   .     A
C310   C312    1.403   .     A
C311   H347    1.084   .     S
C311   C313    1.393   .     A
C312   H348    1.084   .     S
C312   C314    1.393   .     A
C313   C319    1.402   .     A
C313   C315    1.411   .     A
C314   C320    1.402   .     A
C314   C316    1.411   .     A
C315   C317    1.411   .     A
C315   C838    1.402   .     S
C316   C318    1.411   .     A
C316   C837    1.402   1_554 S
C319   H325    1.084   .     S
C319   C815    1.394   .     S
C320   H326    1.084   .     S
C320   C816    1.394   1_554 S
Cu321  Cu322   2.675   .     S
Cu321  N337    2.010   .     S
Cu321  O343    1.968   .     S
Cu321  O339    1.965   .     S
Cu321  O341    1.965   .     S
Cu321  O345    1.968   .     S
Cu322  N338    2.010   .     S
Cu322  O340    1.965   .     S
Cu322  O344    1.968   .     S
Cu322  O342    1.965   .     S
Cu322  O346    1.968   .     S
C349   O400    1.290   .     A
C349   O397    1.290   .     A
C349   C358    1.450   .     S
C350   O399    1.290   .     A
C350   O398    1.290   .     A
C350   C357    1.450   .     S
C351   C376    1.402   .     A
C351   H385    1.084   .     S
C351   C899    1.394   1_554 S
C352   C375    1.402   .     A
C352   H386    1.084   .     S
C352   C900    1.394   .     S
C353   H387    1.083   .     S
C353   C358    1.401   .     A
C353   C471    1.384   1_455 S
C354   C357    1.401   .     A
C354   H388    1.083   .     S
C354   C414    1.383   .     S
C355   C357    1.401   .     A
C355   H389    1.083   .     S
C355   C411    1.384   .     S
C356   H390    1.083   .     S
C356   C358    1.401   .     A
C356   C470    1.383   1_455 S
C359   H391    1.082   .     S
C359   N396    1.367   .     A
C360   H392    1.082   .     S
C360   N395    1.367   .     A
C360   C13     1.416   1_565 S
C361   N396    1.367   .     A
C361   H393    1.082   .     S
C362   N395    1.367   .     A
C362   H394    1.082   .     S
C362   C11     1.416   1_565 S
C363   O404    1.293   .     A
C363   C368    1.462   .     S
C363   O401    1.293   .     A
C364   O403    1.293   .     A
C364   C367    1.462   .     S
C364   O402    1.293   .     A
C365   H381    1.084   .     S
C365   C367    1.403   .     A
C365   C375    1.393   .     A
C366   H382    1.084   .     S
C366   C376    1.393   .     A
C366   C368    1.403   .     A
C367   C369    1.403   .     A
C368   C370    1.403   .     A
C369   H405    1.084   .     S
C369   C371    1.393   .     A
C370   H406    1.084   .     S
C370   C372    1.393   .     A
C371   C377    1.402   .     A
C371   C373    1.411   .     A
C372   C378    1.402   .     A
C372   C374    1.411   .     A
C373   C375    1.411   .     A
C373   C896    1.402   .     S
C374   C376    1.411   .     A
C374   C895    1.402   1_554 S
C377   H383    1.084   .     S
C377   C873    1.394   .     S
C378   H384    1.084   .     S
C378   C874    1.394   1_554 S
Cu379  Cu380   2.675   .     S
Cu379  N395    2.010   .     S
Cu379  O401    1.968   .     S
Cu379  O397    1.965   .     S
Cu379  O399    1.965   .     S
Cu379  O403    1.968   .     S
Cu380  N396    2.010   .     S
Cu380  O398    1.965   .     S
Cu380  O402    1.968   .     S
Cu380  O400    1.965   .     S
Cu380  O404    1.968   .     S
C407   O458    1.290   .     A
C407   O455    1.290   .     A
C407   C416    1.450   .     S
C408   O457    1.290   .     A
C408   O456    1.290   .     A
C408   C415    1.450   .     S
C409   C434    1.402   .     A
C409   H443    1.084   .     S
C409   C957    1.394   1_554 S
C410   C433    1.402   .     A
C410   H444    1.084   .     S
C410   C958    1.394   .     S
C411   H445    1.083   .     S
C411   C416    1.401   .     A
C412   C415    1.401   .     A
C412   H446    1.083   .     S
C412   C472    1.383   .     S
C413   C415    1.401   .     A
C413   H447    1.083   .     S
C413   C469    1.384   .     S
C414   H448    1.083   .     S
C414   C416    1.401   .     A
C417   H449    1.082   .     S
C417   N454    1.367   .     A
C418   H450    1.082   .     S
C418   N453    1.367   .     A
C418   C71     1.416   1_565 S
C419   N454    1.367   .     A
C419   H451    1.082   .     S
C420   N453    1.367   .     A
C420   H452    1.082   .     S
C420   C69     1.416   1_565 S
C421   O462    1.293   .     A
C421   C426    1.462   .     S
C421   O459    1.293   .     A
C422   O461    1.293   .     A
C422   C425    1.462   .     S
C422   O460    1.293   .     A
C423   H439    1.084   .     S
C423   C425    1.403   .     A
C423   C433    1.393   .     A
C424   H440    1.084   .     S
C424   C434    1.393   .     A
C424   C426    1.403   .     A
C425   C427    1.403   .     A
C426   C428    1.403   .     A
C427   H463    1.084   .     S
C427   C429    1.393   .     A
C428   H464    1.084   .     S
C428   C430    1.393   .     A
C429   C435    1.402   .     A
C429   C431    1.411   .     A
C430   C436    1.402   .     A
C430   C432    1.411   .     A
C431   C433    1.411   .     A
C431   C954    1.402   .     S
C432   C434    1.411   .     A
C432   C953    1.402   1_554 S
C435   H441    1.084   .     S
C435   C931    1.394   .     S
C436   H442    1.084   .     S
C436   C932    1.394   1_554 S
Cu437  Cu438   2.675   .     S
Cu437  N453    2.010   .     S
Cu437  O459    1.968   .     S
Cu437  O455    1.965   .     S
Cu437  O457    1.965   .     S
Cu437  O461    1.968   .     S
Cu438  N454    2.010   .     S
Cu438  O456    1.965   .     S
Cu438  O460    1.968   .     S
Cu438  O458    1.965   .     S
Cu438  O462    1.968   .     S
C465   O516    1.290   .     A
C465   O513    1.290   .     A
C465   C474    1.450   .     S
C466   O515    1.290   .     A
C466   O514    1.290   .     A
C466   C473    1.450   .     S
C467   C492    1.402   .     A
C467   H501    1.084   .     S
C467   C1015   1.394   1_554 S
C468   C491    1.402   .     A
C468   H502    1.084   .     S
C468   C1016   1.394   .     S
C469   H503    1.083   .     S
C469   C474    1.401   .     A
C470   C473    1.401   .     A
C470   H504    1.083   .     S
C470   C356    1.383   1_655 S
C471   C473    1.401   .     A
C471   H505    1.083   .     S
C471   C353    1.384   1_655 S
C472   H506    1.083   .     S
C472   C474    1.401   .     A
C475   H507    1.082   .     S
C475   N512    1.367   .     A
C476   H508    1.082   .     S
C476   N511    1.367   .     A
C476   C129    1.416   1_565 S
C477   N512    1.367   .     A
C477   H509    1.082   .     S
C478   N511    1.367   .     A
C478   H510    1.082   .     S
C478   C127    1.416   1_565 S
C479   O520    1.293   .     A
C479   C484    1.462   .     S
C479   O517    1.293   .     A
C480   O519    1.293   .     A
C480   C483    1.462   .     S
C480   O518    1.293   .     A
C481   H497    1.084   .     S
C481   C483    1.403   .     A
C481   C491    1.393   .     A
C482   H498    1.084   .     S
C482   C492    1.393   .     A
C482   C484    1.403   .     A
C483   C485    1.403   .     A
C484   C486    1.403   .     A
C485   H521    1.084   .     S
C485   C487    1.393   .     A
C486   H522    1.084   .     S
C486   C488    1.393   .     A
C487   C493    1.402   .     A
C487   C489    1.411   .     A
C488   C494    1.402   .     A
C488   C490    1.411   .     A
C489   C491    1.411   .     A
C489   C1012   1.402   .     S
C490   C492    1.411   .     A
C490   C1011   1.402   1_554 S
C493   H499    1.084   .     S
C493   C989    1.394   .     S
C494   H500    1.084   .     S
C494   C990    1.394   1_554 S
Cu495  Cu496   2.675   .     S
Cu495  N511    2.010   .     S
Cu495  O517    1.968   .     S
Cu495  O513    1.965   .     S
Cu495  O515    1.965   .     S
Cu495  O519    1.968   .     S
Cu496  N512    2.010   .     S
Cu496  O514    1.965   .     S
Cu496  O518    1.968   .     S
Cu496  O516    1.965   .     S
Cu496  O520    1.968   .     S
C523   O574    1.290   .     A
C523   O571    1.290   .     A
C523   C532    1.450   .     S
C524   O573    1.290   .     A
C524   O572    1.290   .     A
C524   C531    1.450   .     S
C525   C550    1.402   .     A
C525   H559    1.084   .     S
C526   C549    1.402   .     A
C526   H560    1.084   .     S
C526   C30     1.394   1_556 S
C527   H561    1.083   .     S
C527   C532    1.401   .     A
C527   C645    1.384   1_455 S
C528   C531    1.401   .     A
C528   H562    1.083   .     S
C528   C588    1.383   .     S
C529   C531    1.401   .     A
C529   H563    1.083   .     S
C529   C585    1.384   .     S
C530   H564    1.083   .     S
C530   C532    1.401   .     A
C530   C644    1.383   1_455 S
C533   H565    1.082   .     S
C533   N570    1.367   .     A
C533   C884    1.416   1_545 S
C534   H566    1.082   .     S
C534   N569    1.367   .     A
C534   C709    1.416   .     S
C535   N570    1.367   .     A
C535   H567    1.082   .     S
C535   C882    1.416   1_545 S
C536   N569    1.367   .     A
C536   H568    1.082   .     S
C536   C707    1.416   .     S
C537   O578    1.293   .     A
C537   C542    1.462   .     S
C537   O575    1.293   .     A
C538   O577    1.293   .     A
C538   C541    1.462   .     S
C538   O576    1.293   .     A
C539   H555    1.084   .     S
C539   C541    1.403   .     A
C539   C549    1.393   .     A
C540   H556    1.084   .     S
C540   C550    1.393   .     A
C540   C542    1.403   .     A
C541   C543    1.403   .     A
C542   C544    1.403   .     A
C543   H579    1.084   .     S
C543   C545    1.393   .     A
C544   H580    1.084   .     S
C544   C546    1.393   .     A
C545   C551    1.402   .     A
C545   C547    1.411   .     A
C546   C552    1.402   .     A
C546   C548    1.411   .     A
C547   C549    1.411   .     A
C547   C26     1.402   1_556 S
C548   C550    1.411   .     A
C551   H557    1.084   .     S
C551   C3      1.394   1_556 S
C552   H558    1.084   .     S
Cu553  Cu554   2.675   .     S
Cu553  N569    2.010   .     S
Cu553  O575    1.968   .     S
Cu553  O571    1.965   .     S
Cu553  O573    1.965   .     S
Cu553  O577    1.968   .     S
Cu554  N570    2.010   .     S
Cu554  O572    1.965   .     S
Cu554  O576    1.968   .     S
Cu554  O574    1.965   .     S
Cu554  O578    1.968   .     S
C581   O632    1.290   .     A
C581   O629    1.290   .     A
C581   C590    1.450   .     S
C582   O631    1.290   .     A
C582   O630    1.290   .     A
C582   C589    1.450   .     S
C583   C608    1.402   .     A
C583   H617    1.084   .     S
C584   C607    1.402   .     A
C584   H618    1.084   .     S
C584   C88     1.394   1_556 S
C585   H619    1.083   .     S
C585   C590    1.401   .     A
C586   C589    1.401   .     A
C586   H620    1.083   .     S
C586   C646    1.383   .     S
C587   C589    1.401   .     A
C587   H621    1.083   .     S
C587   C643    1.384   .     S
C588   H622    1.083   .     S
C588   C590    1.401   .     A
C591   H623    1.082   .     S
C591   N628    1.367   .     A
C591   C942    1.416   1_545 S
C592   H624    1.082   .     S
C592   N627    1.367   .     A
C592   C767    1.416   .     S
C593   N628    1.367   .     A
C593   H625    1.082   .     S
C593   C940    1.416   1_545 S
C594   N627    1.367   .     A
C594   H626    1.082   .     S
C594   C765    1.416   .     S
C595   O636    1.293   .     A
C595   C600    1.462   .     S
C595   O633    1.293   .     A
C596   O635    1.293   .     A
C596   C599    1.462   .     S
C596   O634    1.293   .     A
C597   H613    1.084   .     S
C597   C599    1.403   .     A
C597   C607    1.393   .     A
C598   H614    1.084   .     S
C598   C608    1.393   .     A
C598   C600    1.403   .     A
C599   C601    1.403   .     A
C600   C602    1.403   .     A
C601   H637    1.084   .     S
C601   C603    1.393   .     A
C602   H638    1.084   .     S
C602   C604    1.393   .     A
C603   C609    1.402   .     A
C603   C605    1.411   .     A
C604   C610    1.402   .     A
C604   C606    1.411   .     A
C605   C607    1.411   .     A
C605   C84     1.402   1_556 S
C606   C608    1.411   .     A
C609   H615    1.084   .     S
C609   C61     1.394   1_556 S
C610   H616    1.084   .     S
Cu611  Cu612   2.675   .     S
Cu611  N627    2.010   .     S
Cu611  O633    1.968   .     S
Cu611  O629    1.965   .     S
Cu611  O631    1.965   .     S
Cu611  O635    1.968   .     S
Cu612  N628    2.010   .     S
Cu612  O630    1.965   .     S
Cu612  O634    1.968   .     S
Cu612  O632    1.965   .     S
Cu612  O636    1.968   .     S
C639   O690    1.290   .     A
C639   O687    1.290   .     A
C639   C648    1.450   .     S
C640   O689    1.290   .     A
C640   O688    1.290   .     A
C640   C647    1.450   .     S
C641   C666    1.402   .     A
C641   H675    1.084   .     S
C642   C665    1.402   .     A
C642   H676    1.084   .     S
C642   C146    1.394   1_556 S
C643   H677    1.083   .     S
C643   C648    1.401   .     A
C644   C647    1.401   .     A
C644   H678    1.083   .     S
C644   C530    1.383   1_655 S
C645   C647    1.401   .     A
C645   H679    1.083   .     S
C645   C527    1.384   1_655 S
C646   H680    1.083   .     S
C646   C648    1.401   .     A
C649   H681    1.082   .     S
C649   N686    1.367   .     A
C649   C1000   1.416   1_545 S
C650   H682    1.082   .     S
C650   N685    1.367   .     A
C650   C825    1.416   .     S
C651   N686    1.367   .     A
C651   H683    1.082   .     S
C651   C998    1.416   1_545 S
C652   N685    1.367   .     A
C652   H684    1.082   .     S
C652   C823    1.416   .     S
C653   O694    1.293   .     A
C653   C658    1.462   .     S
C653   O691    1.293   .     A
C654   O693    1.293   .     A
C654   C657    1.462   .     S
C654   O692    1.293   .     A
C655   H671    1.084   .     S
C655   C657    1.403   .     A
C655   C665    1.393   .     A
C656   H672    1.084   .     S
C656   C666    1.393   .     A
C656   C658    1.403   .     A
C657   C659    1.403   .     A
C658   C660    1.403   .     A
C659   H695    1.084   .     S
C659   C661    1.393   .     A
C660   H696    1.084   .     S
C660   C662    1.393   .     A
C661   C667    1.402   .     A
C661   C663    1.411   .     A
C662   C668    1.402   .     A
C662   C664    1.411   .     A
C663   C665    1.411   .     A
C663   C142    1.402   1_556 S
C664   C666    1.411   .     A
C667   H673    1.084   .     S
C667   C119    1.394   1_556 S
C668   H674    1.084   .     S
Cu669  Cu670   2.675   .     S
Cu669  N685    2.010   .     S
Cu669  O691    1.968   .     S
Cu669  O687    1.965   .     S
Cu669  O689    1.965   .     S
Cu669  O693    1.968   .     S
Cu670  N686    2.010   .     S
Cu670  O688    1.965   .     S
Cu670  O692    1.968   .     S
Cu670  O690    1.965   .     S
Cu670  O694    1.968   .     S
C697   O748    1.290   .     A
C697   O745    1.290   .     A
C697   C706    1.450   .     S
C698   O747    1.290   .     A
C698   O746    1.290   .     A
C698   C705    1.450   .     S
C699   C724    1.402   .     A
C699   H733    1.084   .     S
C700   C723    1.402   .     A
C700   H734    1.084   .     S
C700   C204    1.394   1_556 S
C701   H735    1.083   .     S
C701   C706    1.401   .     A
C701   C819    1.384   1_455 S
C702   C705    1.401   .     A
C702   H736    1.083   .     S
C702   C762    1.383   .     S
C703   C705    1.401   .     A
C703   H737    1.083   .     S
C703   C759    1.384   .     S
C704   H738    1.083   .     S
C704   C706    1.401   .     A
C704   C818    1.383   1_455 S
C707   H739    1.082   .     S
C707   N744    1.367   .     A
C708   H740    1.082   .     S
C708   N743    1.367   .     A
C708   C883    1.416   .     S
C709   N744    1.367   .     A
C709   H741    1.082   .     S
C710   N743    1.367   .     A
C710   H742    1.082   .     S
C710   C881    1.416   .     S
C711   O752    1.293   .     A
C711   C716    1.462   .     S
C711   O749    1.293   .     A
C712   O751    1.293   .     A
C712   C715    1.462   .     S
C712   O750    1.293   .     A
C713   H729    1.084   .     S
C713   C715    1.403   .     A
C713   C723    1.393   .     A
C714   H730    1.084   .     S
C714   C724    1.393   .     A
C714   C716    1.403   .     A
C715   C717    1.403   .     A
C716   C718    1.403   .     A
C717   H753    1.084   .     S
C717   C719    1.393   .     A
C718   H754    1.084   .     S
C718   C720    1.393   .     A
C719   C725    1.402   .     A
C719   C721    1.411   .     A
C720   C726    1.402   .     A
C720   C722    1.411   .     A
C721   C723    1.411   .     A
C721   C200    1.402   1_556 S
C722   C724    1.411   .     A
C725   H731    1.084   .     S
C725   C177    1.394   1_556 S
C726   H732    1.084   .     S
Cu727  Cu728   2.675   .     S
Cu727  N743    2.010   .     S
Cu727  O749    1.968   .     S
Cu727  O745    1.965   .     S
Cu727  O747    1.965   .     S
Cu727  O751    1.968   .     S
Cu728  N744    2.010   .     S
Cu728  O746    1.965   .     S
Cu728  O750    1.968   .     S
Cu728  O748    1.965   .     S
Cu728  O752    1.968   .     S
C755   O806    1.290   .     A
C755   O803    1.290   .     A
C755   C764    1.450   .     S
C756   O805    1.290   .     A
C756   O804    1.290   .     A
C756   C763    1.450   .     S
C757   C782    1.402   .     A
C757   H791    1.084   .     S
C758   C781    1.402   .     A
C758   H792    1.084   .     S
C758   C262    1.394   1_556 S
C759   H793    1.083   .     S
C759   C764    1.401   .     A
C760   C763    1.401   .     A
C760   H794    1.083   .     S
C760   C820    1.383   .     S
C761   C763    1.401   .     A
C761   H795    1.083   .     S
C761   C817    1.384   .     S
C762   H796    1.083   .     S
C762   C764    1.401   .     A
C765   H797    1.082   .     S
C765   N802    1.367   .     A
C766   H798    1.082   .     S
C766   N801    1.367   .     A
C766   C941    1.416   .     S
C767   N802    1.367   .     A
C767   H799    1.082   .     S
C768   N801    1.367   .     A
C768   H800    1.082   .     S
C768   C939    1.416   .     S
C769   O810    1.293   .     A
C769   C774    1.462   .     S
C769   O807    1.293   .     A
C770   O809    1.293   .     A
C770   C773    1.462   .     S
C770   O808    1.293   .     A
C771   H787    1.084   .     S
C771   C773    1.403   .     A
C771   C781    1.393   .     A
C772   H788    1.084   .     S
C772   C782    1.393   .     A
C772   C774    1.403   .     A
C773   C775    1.403   .     A
C774   C776    1.403   .     A
C775   H811    1.084   .     S
C775   C777    1.393   .     A
C776   H812    1.084   .     S
C776   C778    1.393   .     A
C777   C783    1.402   .     A
C777   C779    1.411   .     A
C778   C784    1.402   .     A
C778   C780    1.411   .     A
C779   C781    1.411   .     A
C779   C258    1.402   1_556 S
C780   C782    1.411   .     A
C783   H789    1.084   .     S
C783   C235    1.394   1_556 S
C784   H790    1.084   .     S
Cu785  Cu786   2.675   .     S
Cu785  N801    2.010   .     S
Cu785  O807    1.968   .     S
Cu785  O803    1.965   .     S
Cu785  O805    1.965   .     S
Cu785  O809    1.968   .     S
Cu786  N802    2.010   .     S
Cu786  O804    1.965   .     S
Cu786  O808    1.968   .     S
Cu786  O806    1.965   .     S
Cu786  O810    1.968   .     S
C813   O864    1.290   .     A
C813   O861    1.290   .     A
C813   C822    1.450   .     S
C814   O863    1.290   .     A
C814   O862    1.290   .     A
C814   C821    1.450   .     S
C815   C840    1.402   .     A
C815   H849    1.084   .     S
C816   C839    1.402   .     A
C816   H850    1.084   .     S
C816   C320    1.394   1_556 S
C817   H851    1.083   .     S
C817   C822    1.401   .     A
C818   C821    1.401   .     A
C818   H852    1.083   .     S
C818   C704    1.383   1_655 S
C819   C821    1.401   .     A
C819   H853    1.083   .     S
C819   C701    1.384   1_655 S
C820   H854    1.083   .     S
C820   C822    1.401   .     A
C823   H855    1.082   .     S
C823   N860    1.367   .     A
C824   H856    1.082   .     S
C824   N859    1.367   .     A
C824   C999    1.416   .     S
C825   N860    1.367   .     A
C825   H857    1.082   .     S
C826   N859    1.367   .     A
C826   H858    1.082   .     S
C826   C997    1.416   .     S
C827   O868    1.293   .     A
C827   C832    1.462   .     S
C827   O865    1.293   .     A
C828   O867    1.293   .     A
C828   C831    1.462   .     S
C828   O866    1.293   .     A
C829   H845    1.084   .     S
C829   C831    1.403   .     A
C829   C839    1.393   .     A
C830   H846    1.084   .     S
C830   C840    1.393   .     A
C830   C832    1.403   .     A
C831   C833    1.403   .     A
C832   C834    1.403   .     A
C833   H869    1.084   .     S
C833   C835    1.393   .     A
C834   H870    1.084   .     S
C834   C836    1.393   .     A
C835   C841    1.402   .     A
C835   C837    1.411   .     A
C836   C842    1.402   .     A
C836   C838    1.411   .     A
C837   C839    1.411   .     A
C837   C316    1.402   1_556 S
C838   C840    1.411   .     A
C841   H847    1.084   .     S
C841   C293    1.394   1_556 S
C842   H848    1.084   .     S
Cu843  Cu844   2.675   .     S
Cu843  N859    2.010   .     S
Cu843  O865    1.968   .     S
Cu843  O861    1.965   .     S
Cu843  O863    1.965   .     S
Cu843  O867    1.968   .     S
Cu844  N860    2.010   .     S
Cu844  O862    1.965   .     S
Cu844  O866    1.968   .     S
Cu844  O864    1.965   .     S
Cu844  O868    1.968   .     S
C871   O922    1.290   .     A
C871   O919    1.290   .     A
C871   C880    1.450   .     S
C872   O921    1.290   .     A
C872   O920    1.290   .     A
C872   C879    1.450   .     S
C873   C898    1.402   .     A
C873   H907    1.084   .     S
C874   C897    1.402   .     A
C874   H908    1.084   .     S
C874   C378    1.394   1_556 S
C875   H909    1.083   .     S
C875   C880    1.401   .     A
C875   C993    1.384   1_455 S
C876   C879    1.401   .     A
C876   H910    1.083   .     S
C876   C936    1.383   .     S
C877   C879    1.401   .     A
C877   H911    1.083   .     S
C877   C933    1.384   .     S
C878   H912    1.083   .     S
C878   C880    1.401   .     A
C878   C992    1.383   1_455 S
C881   H913    1.082   .     S
C881   N918    1.367   .     A
C882   H914    1.082   .     S
C882   N917    1.367   .     A
C882   C535    1.416   1_565 S
C883   N918    1.367   .     A
C883   H915    1.082   .     S
C884   N917    1.367   .     A
C884   H916    1.082   .     S
C884   C533    1.416   1_565 S
C885   O926    1.293   .     A
C885   C890    1.462   .     S
C885   O923    1.293   .     A
C886   O925    1.293   .     A
C886   C889    1.462   .     S
C886   O924    1.293   .     A
C887   H903    1.084   .     S
C887   C889    1.403   .     A
C887   C897    1.393   .     A
C888   H904    1.084   .     S
C888   C898    1.393   .     A
C888   C890    1.403   .     A
C889   C891    1.403   .     A
C890   C892    1.403   .     A
C891   H927    1.084   .     S
C891   C893    1.393   .     A
C892   H928    1.084   .     S
C892   C894    1.393   .     A
C893   C899    1.402   .     A
C893   C895    1.411   .     A
C894   C900    1.402   .     A
C894   C896    1.411   .     A
C895   C897    1.411   .     A
C895   C374    1.402   1_556 S
C896   C898    1.411   .     A
C899   H905    1.084   .     S
C899   C351    1.394   1_556 S
C900   H906    1.084   .     S
Cu901  Cu902   2.675   .     S
Cu901  N917    2.010   .     S
Cu901  O923    1.968   .     S
Cu901  O919    1.965   .     S
Cu901  O921    1.965   .     S
Cu901  O925    1.968   .     S
Cu902  N918    2.010   .     S
Cu902  O920    1.965   .     S
Cu902  O924    1.968   .     S
Cu902  O922    1.965   .     S
Cu902  O926    1.968   .     S
C929   O980    1.290   .     A
C929   O977    1.290   .     A
C929   C938    1.450   .     S
C930   O979    1.290   .     A
C930   O978    1.290   .     A
C930   C937    1.450   .     S
C931   C956    1.402   .     A
C931   H965    1.084   .     S
C932   C955    1.402   .     A
C932   H966    1.084   .     S
C932   C436    1.394   1_556 S
C933   H967    1.083   .     S
C933   C938    1.401   .     A
C934   C937    1.401   .     A
C934   H968    1.083   .     S
C934   C994    1.383   .     S
C935   C937    1.401   .     A
C935   H969    1.083   .     S
C935   C991    1.384   .     S
C936   H970    1.083   .     S
C936   C938    1.401   .     A
C939   H971    1.082   .     S
C939   N976    1.367   .     A
C940   H972    1.082   .     S
C940   N975    1.367   .     A
C940   C593    1.416   1_565 S
C941   N976    1.367   .     A
C941   H973    1.082   .     S
C942   N975    1.367   .     A
C942   H974    1.082   .     S
C942   C591    1.416   1_565 S
C943   O984    1.293   .     A
C943   C948    1.462   .     S
C943   O981    1.293   .     A
C944   O983    1.293   .     A
C944   C947    1.462   .     S
C944   O982    1.293   .     A
C945   H961    1.084   .     S
C945   C947    1.403   .     A
C945   C955    1.393   .     A
C946   H962    1.084   .     S
C946   C956    1.393   .     A
C946   C948    1.403   .     A
C947   C949    1.403   .     A
C948   C950    1.403   .     A
C949   H985    1.084   .     S
C949   C951    1.393   .     A
C950   H986    1.084   .     S
C950   C952    1.393   .     A
C951   C957    1.402   .     A
C951   C953    1.411   .     A
C952   C958    1.402   .     A
C952   C954    1.411   .     A
C953   C955    1.411   .     A
C953   C432    1.402   1_556 S
C954   C956    1.411   .     A
C957   H963    1.084   .     S
C957   C409    1.394   1_556 S
C958   H964    1.084   .     S
Cu959  Cu960   2.675   .     S
Cu959  N975    2.010   .     S
Cu959  O981    1.968   .     S
Cu959  O977    1.965   .     S
Cu959  O979    1.965   .     S
Cu959  O983    1.968   .     S
Cu960  N976    2.010   .     S
Cu960  O978    1.965   .     S
Cu960  O982    1.968   .     S
Cu960  O980    1.965   .     S
Cu960  O984    1.968   .     S
C987   O1038   1.290   .     A
C987   O1035   1.290   .     A
C987   C996    1.450   .     S
C988   O1037   1.290   .     A
C988   O1036   1.290   .     A
C988   C995    1.450   .     S
C989   C1014   1.402   .     A
C989   H1023   1.084   .     S
C990   C1013   1.402   .     A
C990   H1024   1.084   .     S
C990   C494    1.394   1_556 S
C991   H1025   1.083   .     S
C991   C996    1.401   .     A
C992   C995    1.401   .     A
C992   H1026   1.083   .     S
C992   C878    1.383   1_655 S
C993   C995    1.401   .     A
C993   H1027   1.083   .     S
C993   C875    1.384   1_655 S
C994   H1028   1.083   .     S
C994   C996    1.401   .     A
C997   H1029   1.082   .     S
C997   N1034   1.367   .     A
C998   H1030   1.082   .     S
C998   N1033   1.367   .     A
C998   C651    1.416   1_565 S
C999   N1034   1.367   .     A
C999   H1031   1.082   .     S
C1000  N1033   1.367   .     A
C1000  H1032   1.082   .     S
C1000  C649    1.416   1_565 S
C1001  O1042   1.293   .     A
C1001  C1006   1.462   .     S
C1001  O1039   1.293   .     A
C1002  O1041   1.293   .     A
C1002  C1005   1.462   .     S
C1002  O1040   1.293   .     A
C1003  H1019   1.084   .     S
C1003  C1005   1.403   .     A
C1003  C1013   1.393   .     A
C1004  H1020   1.084   .     S
C1004  C1014   1.393   .     A
C1004  C1006   1.403   .     A
C1005  C1007   1.403   .     A
C1006  C1008   1.403   .     A
C1007  H1043   1.084   .     S
C1007  C1009   1.393   .     A
C1008  H1044   1.084   .     S
C1008  C1010   1.393   .     A
C1009  C1015   1.402   .     A
C1009  C1011   1.411   .     A
C1010  C1016   1.402   .     A
C1010  C1012   1.411   .     A
C1011  C1013   1.411   .     A
C1011  C490    1.402   1_556 S
C1012  C1014   1.411   .     A
C1015  H1021   1.084   .     S
C1015  C467    1.394   1_556 S
C1016  H1022   1.084   .     S
Cu1017 Cu1018  2.675   .     S
Cu1017 N1033   2.010   .     S
Cu1017 O1039   1.968   .     S
Cu1017 O1035   1.965   .     S
Cu1017 O1037   1.965   .     S
Cu1017 O1041   1.968   .     S
Cu1018 N1034   2.010   .     S
Cu1018 O1036   1.965   .     S
Cu1018 O1040   1.968   .     S
Cu1018 O1038   1.965   .     S
Cu1018 O1042   1.968   .     S
