data_str_m3_o1_o5_pcu_sym.25
_audit_creation_date              2020-01-03
_audit_creation_method            'Materials Studio'
_symmetry_space_group_name_H-M    'P1'
_symmetry_Int_Tables_number       1
_symmetry_cell_setting            triclinic
loop_
_symmetry_equiv_pos_as_xyz
  x,y,z
_cell_length_a                    31.9447
_cell_length_b                    29.9780
_cell_length_c                    26.7629
_cell_angle_alpha                 89.8827
_cell_angle_beta                  92.3892
_cell_angle_gamma                 90.5653
loop_
_atom_site_label
_atom_site_type_symbol
_atom_site_fract_x
_atom_site_fract_y
_atom_site_fract_z
_atom_site_U_iso_or_equiv
_atom_site_adp_type
_atom_site_occupancy
O1     O     0.10559   0.20487   0.16666   0.00000  Uiso   1.00
O2     O     0.22774   0.12846   0.16667   0.00000  Uiso   1.00
O3     O     0.22774   0.20487   0.16667   0.00000  Uiso   1.00
O4     O     0.10559   0.12846   0.16666   0.00000  Uiso   1.00
C5     C     0.08694   0.16638   0.16664   0.00000  Uiso   1.00
C6     C     0.24640   0.16696   0.16668   0.00000  Uiso   1.00
O7     O     0.16667   0.20488   0.09511   0.00000  Uiso   1.00
O8     O     0.16666   0.12845   0.23822   0.00000  Uiso   1.00
O9     O     0.16666   0.20488   0.23822   0.00000  Uiso   1.00
O10    O     0.16667   0.12845   0.09511   0.00000  Uiso   1.00
C11    C     0.16689   0.16670   0.07304   0.00000  Uiso   1.00
C12    C     0.16645   0.16664   0.26029   0.00000  Uiso   1.00
Zn13   Zn    0.16667   0.21771   0.16667   0.00000  Uiso   1.00
Zn14   Zn    0.16667   0.11563   0.16667   0.00000  Uiso   1.00
C15    C     0.16676   0.16671   0.02182   0.00000  Uiso   1.00
C16    C     0.16657   0.16663   0.31151   0.00000  Uiso   1.00
C17    C     0.02298   0.14782   0.20751   0.00000  Uiso   1.00
C18    C     0.31036   0.18551   0.12581   0.00000  Uiso   1.00
C19    C     0.31300   0.14926   0.20854   0.00000  Uiso   1.00
C20    C     0.02034   0.18408   0.12479   0.00000  Uiso   1.00
C21    C     0.29064   0.16793   0.16748   0.00000  Uiso   1.00
C22    C     0.04269   0.16540   0.16585   0.00000  Uiso   1.00
C23    C     0.19005   0.02377   0.20180   0.00000  Uiso   1.00
C24    C     0.14328   0.30956   0.13153   0.00000  Uiso   1.00
C25    C     0.14322   0.02349   0.13160   0.00000  Uiso   1.00
C26    C     0.19011   0.30984   0.20174   0.00000  Uiso   1.00
N27    N     0.16667   0.28573   0.16667   0.00000  Uiso   1.00
N28    N     0.16667   0.04760   0.16667   0.00000  Uiso   1.00
N29    N     0.04708   0.13189   0.25025   0.00000  Uiso   1.00
O30    O     0.04531   0.15241   0.29287   0.00000  Uiso   1.00
O31    O     0.06652   0.09405   0.24820   0.00000  Uiso   1.00
N32    N     0.28626   0.20143   0.08307   0.00000  Uiso   1.00
O33    O     0.28808   0.18095   0.04044   0.00000  Uiso   1.00
O34    O     0.26678   0.23925   0.08512   0.00000  Uiso   1.00
N35    N     0.29187   0.13224   0.25116   0.00000  Uiso   1.00
O36    O     0.30236   0.09403   0.27089   0.00000  Uiso   1.00
O37    O     0.26323   0.15575   0.27167   0.00000  Uiso   1.00
N38    N     0.04146   0.20110   0.08217   0.00000  Uiso   1.00
O39    O     0.03098   0.23932   0.06246   0.00000  Uiso   1.00
O40    O     0.07010   0.17760   0.06166   0.00000  Uiso   1.00
O41    O     0.21482   0.04448   0.23824   0.00000  Uiso   1.00
H42    H     0.21845   0.07580   0.22879   0.00000  Uiso   1.00
O43    O     0.11851   0.28885   0.09509   0.00000  Uiso   1.00
H44    H     0.11489   0.25753   0.10454   0.00000  Uiso   1.00
O45    O     0.11826   0.04394   0.09541   0.00000  Uiso   1.00
H46    H     0.11415   0.07497   0.10538   0.00000  Uiso   1.00
O47    O     0.21508   0.28940   0.23792   0.00000  Uiso   1.00
H48    H     0.21918   0.25836   0.22795   0.00000  Uiso   1.00
O49    O     0.43892   0.20487   0.16666   0.00000  Uiso   1.00
O50    O     0.56108   0.12846   0.16667   0.00000  Uiso   1.00
O51    O     0.56108   0.20487   0.16667   0.00000  Uiso   1.00
O52    O     0.43892   0.12846   0.16666   0.00000  Uiso   1.00
C53    C     0.42027   0.16638   0.16664   0.00000  Uiso   1.00
C54    C     0.57973   0.16696   0.16668   0.00000  Uiso   1.00
O55    O     0.50000   0.20488   0.09511   0.00000  Uiso   1.00
O56    O     0.50000   0.12845   0.23822   0.00000  Uiso   1.00
O57    O     0.50000   0.20488   0.23822   0.00000  Uiso   1.00
O58    O     0.50000   0.12845   0.09511   0.00000  Uiso   1.00
C59    C     0.50022   0.16670   0.07304   0.00000  Uiso   1.00
C60    C     0.49978   0.16664   0.26029   0.00000  Uiso   1.00
Zn61   Zn    0.50000   0.21771   0.16667   0.00000  Uiso   1.00
Zn62   Zn    0.50000   0.11563   0.16667   0.00000  Uiso   1.00
C63    C     0.50010   0.16671   0.02182   0.00000  Uiso   1.00
C64    C     0.49990   0.16663   0.31151   0.00000  Uiso   1.00
C65    C     0.35631   0.14782   0.20751   0.00000  Uiso   1.00
C66    C     0.64369   0.18551   0.12581   0.00000  Uiso   1.00
C67    C     0.64633   0.14926   0.20854   0.00000  Uiso   1.00
C68    C     0.35367   0.18408   0.12479   0.00000  Uiso   1.00
C69    C     0.62398   0.16793   0.16748   0.00000  Uiso   1.00
C70    C     0.37602   0.16540   0.16585   0.00000  Uiso   1.00
C71    C     0.52339   0.02377   0.20180   0.00000  Uiso   1.00
C72    C     0.47661   0.30956   0.13153   0.00000  Uiso   1.00
C73    C     0.47656   0.02349   0.13160   0.00000  Uiso   1.00
C74    C     0.52345   0.30984   0.20174   0.00000  Uiso   1.00
N75    N     0.50000   0.28573   0.16667   0.00000  Uiso   1.00
N76    N     0.50000   0.04760   0.16667   0.00000  Uiso   1.00
N77    N     0.38041   0.13189   0.25025   0.00000  Uiso   1.00
O78    O     0.37864   0.15241   0.29287   0.00000  Uiso   1.00
O79    O     0.39985   0.09405   0.24820   0.00000  Uiso   1.00
N80    N     0.61959   0.20143   0.08307   0.00000  Uiso   1.00
O81    O     0.62141   0.18095   0.04044   0.00000  Uiso   1.00
O82    O     0.60011   0.23925   0.08512   0.00000  Uiso   1.00
N83    N     0.62520   0.13224   0.25116   0.00000  Uiso   1.00
O84    O     0.63569   0.09403   0.27089   0.00000  Uiso   1.00
O85    O     0.59657   0.15575   0.27167   0.00000  Uiso   1.00
N86    N     0.37480   0.20110   0.08217   0.00000  Uiso   1.00
O87    O     0.36431   0.23932   0.06246   0.00000  Uiso   1.00
O88    O     0.40344   0.17760   0.06166   0.00000  Uiso   1.00
O89    O     0.54815   0.04448   0.23824   0.00000  Uiso   1.00
H90    H     0.55178   0.07580   0.22879   0.00000  Uiso   1.00
O91    O     0.45185   0.28885   0.09509   0.00000  Uiso   1.00
H92    H     0.44822   0.25753   0.10454   0.00000  Uiso   1.00
O93    O     0.45159   0.04394   0.09541   0.00000  Uiso   1.00
H94    H     0.44749   0.07497   0.10538   0.00000  Uiso   1.00
O95    O     0.54841   0.28940   0.23792   0.00000  Uiso   1.00
H96    H     0.55252   0.25836   0.22795   0.00000  Uiso   1.00
O97    O     0.77226   0.20487   0.16666   0.00000  Uiso   1.00
O98    O     0.89441   0.12846   0.16667   0.00000  Uiso   1.00
O99    O     0.89441   0.20487   0.16667   0.00000  Uiso   1.00
O100   O     0.77226   0.12846   0.16666   0.00000  Uiso   1.00
C101   C     0.75360   0.16638   0.16664   0.00000  Uiso   1.00
C102   C     0.91306   0.16696   0.16668   0.00000  Uiso   1.00
O103   O     0.83334   0.20488   0.09511   0.00000  Uiso   1.00
O104   O     0.83333   0.12845   0.23822   0.00000  Uiso   1.00
O105   O     0.83333   0.20488   0.23822   0.00000  Uiso   1.00
O106   O     0.83334   0.12845   0.09511   0.00000  Uiso   1.00
C107   C     0.83355   0.16670   0.07304   0.00000  Uiso   1.00
C108   C     0.83311   0.16664   0.26029   0.00000  Uiso   1.00
Zn109  Zn    0.83333   0.21771   0.16667   0.00000  Uiso   1.00
Zn110  Zn    0.83333   0.11563   0.16667   0.00000  Uiso   1.00
C111   C     0.83343   0.16671   0.02182   0.00000  Uiso   1.00
C112   C     0.83324   0.16663   0.31151   0.00000  Uiso   1.00
C113   C     0.68964   0.14782   0.20751   0.00000  Uiso   1.00
C114   C     0.97702   0.18551   0.12581   0.00000  Uiso   1.00
C115   C     0.97967   0.14926   0.20854   0.00000  Uiso   1.00
C116   C     0.68700   0.18408   0.12479   0.00000  Uiso   1.00
C117   C     0.95731   0.16793   0.16748   0.00000  Uiso   1.00
C118   C     0.70936   0.16540   0.16585   0.00000  Uiso   1.00
C119   C     0.85672   0.02377   0.20180   0.00000  Uiso   1.00
C120   C     0.80995   0.30956   0.13153   0.00000  Uiso   1.00
C121   C     0.80989   0.02349   0.13160   0.00000  Uiso   1.00
C122   C     0.85678   0.30984   0.20174   0.00000  Uiso   1.00
N123   N     0.83333   0.28573   0.16667   0.00000  Uiso   1.00
N124   N     0.83333   0.04760   0.16667   0.00000  Uiso   1.00
N125   N     0.71374   0.13189   0.25025   0.00000  Uiso   1.00
O126   O     0.71197   0.15241   0.29287   0.00000  Uiso   1.00
O127   O     0.73318   0.09405   0.24820   0.00000  Uiso   1.00
N128   N     0.95293   0.20143   0.08307   0.00000  Uiso   1.00
O129   O     0.95475   0.18095   0.04044   0.00000  Uiso   1.00
O130   O     0.93345   0.23925   0.08512   0.00000  Uiso   1.00
N131   N     0.95854   0.13224   0.25116   0.00000  Uiso   1.00
O132   O     0.96903   0.09403   0.27089   0.00000  Uiso   1.00
O133   O     0.92990   0.15575   0.27167   0.00000  Uiso   1.00
N134   N     0.70813   0.20110   0.08217   0.00000  Uiso   1.00
O135   O     0.69765   0.23932   0.06246   0.00000  Uiso   1.00
O136   O     0.73677   0.17760   0.06166   0.00000  Uiso   1.00
O137   O     0.88149   0.04448   0.23824   0.00000  Uiso   1.00
H138   H     0.88511   0.07580   0.22879   0.00000  Uiso   1.00
O139   O     0.78518   0.28885   0.09509   0.00000  Uiso   1.00
H140   H     0.78155   0.25753   0.10454   0.00000  Uiso   1.00
O141   O     0.78492   0.04394   0.09541   0.00000  Uiso   1.00
H142   H     0.78082   0.07497   0.10538   0.00000  Uiso   1.00
O143   O     0.88174   0.28940   0.23792   0.00000  Uiso   1.00
H144   H     0.88585   0.25836   0.22795   0.00000  Uiso   1.00
O145   O     0.10559   0.53821   0.16666   0.00000  Uiso   1.00
O146   O     0.22774   0.46179   0.16667   0.00000  Uiso   1.00
O147   O     0.22774   0.53821   0.16667   0.00000  Uiso   1.00
O148   O     0.10559   0.46179   0.16666   0.00000  Uiso   1.00
C149   C     0.08694   0.49971   0.16664   0.00000  Uiso   1.00
C150   C     0.24640   0.50029   0.16668   0.00000  Uiso   1.00
O151   O     0.16667   0.53821   0.09511   0.00000  Uiso   1.00
O152   O     0.16666   0.46179   0.23822   0.00000  Uiso   1.00
O153   O     0.16666   0.53821   0.23822   0.00000  Uiso   1.00
O154   O     0.16667   0.46179   0.09511   0.00000  Uiso   1.00
C155   C     0.16689   0.50003   0.07304   0.00000  Uiso   1.00
C156   C     0.16645   0.49997   0.26029   0.00000  Uiso   1.00
Zn157  Zn    0.16667   0.55104   0.16667   0.00000  Uiso   1.00
Zn158  Zn    0.16667   0.44896   0.16667   0.00000  Uiso   1.00
C159   C     0.16676   0.50004   0.02182   0.00000  Uiso   1.00
C160   C     0.16657   0.49996   0.31151   0.00000  Uiso   1.00
C161   C     0.02298   0.48115   0.20751   0.00000  Uiso   1.00
C162   C     0.31036   0.51884   0.12581   0.00000  Uiso   1.00
C163   C     0.31300   0.48259   0.20854   0.00000  Uiso   1.00
C164   C     0.02034   0.51741   0.12479   0.00000  Uiso   1.00
C165   C     0.29064   0.50127   0.16748   0.00000  Uiso   1.00
C166   C     0.04269   0.49874   0.16585   0.00000  Uiso   1.00
C167   C     0.19005   0.35710   0.20180   0.00000  Uiso   1.00
C168   C     0.14328   0.64290   0.13153   0.00000  Uiso   1.00
C169   C     0.14322   0.35682   0.13160   0.00000  Uiso   1.00
C170   C     0.19011   0.64318   0.20174   0.00000  Uiso   1.00
N171   N     0.16667   0.61907   0.16667   0.00000  Uiso   1.00
N172   N     0.16667   0.38093   0.16667   0.00000  Uiso   1.00
N173   N     0.04708   0.46522   0.25025   0.00000  Uiso   1.00
O174   O     0.04531   0.48574   0.29287   0.00000  Uiso   1.00
O175   O     0.06652   0.42739   0.24820   0.00000  Uiso   1.00
N176   N     0.28626   0.53477   0.08307   0.00000  Uiso   1.00
O177   O     0.28808   0.51429   0.04044   0.00000  Uiso   1.00
O178   O     0.26678   0.57258   0.08512   0.00000  Uiso   1.00
N179   N     0.29187   0.46557   0.25116   0.00000  Uiso   1.00
O180   O     0.30236   0.42736   0.27089   0.00000  Uiso   1.00
O181   O     0.26323   0.48908   0.27167   0.00000  Uiso   1.00
N182   N     0.04146   0.53444   0.08217   0.00000  Uiso   1.00
O183   O     0.03098   0.57265   0.06246   0.00000  Uiso   1.00
O184   O     0.07010   0.51093   0.06166   0.00000  Uiso   1.00
O185   O     0.21482   0.37781   0.23824   0.00000  Uiso   1.00
H186   H     0.21845   0.40914   0.22879   0.00000  Uiso   1.00
O187   O     0.11851   0.62219   0.09509   0.00000  Uiso   1.00
H188   H     0.11489   0.59087   0.10454   0.00000  Uiso   1.00
O189   O     0.11826   0.37727   0.09541   0.00000  Uiso   1.00
H190   H     0.11415   0.40831   0.10538   0.00000  Uiso   1.00
O191   O     0.21508   0.62273   0.23792   0.00000  Uiso   1.00
H192   H     0.21918   0.59169   0.22795   0.00000  Uiso   1.00
O193   O     0.43892   0.53821   0.16666   0.00000  Uiso   1.00
O194   O     0.56108   0.46179   0.16667   0.00000  Uiso   1.00
O195   O     0.56108   0.53821   0.16667   0.00000  Uiso   1.00
O196   O     0.43892   0.46179   0.16666   0.00000  Uiso   1.00
C197   C     0.42027   0.49971   0.16664   0.00000  Uiso   1.00
C198   C     0.57973   0.50029   0.16668   0.00000  Uiso   1.00
O199   O     0.50000   0.53821   0.09511   0.00000  Uiso   1.00
O200   O     0.50000   0.46179   0.23822   0.00000  Uiso   1.00
O201   O     0.50000   0.53821   0.23822   0.00000  Uiso   1.00
O202   O     0.50000   0.46179   0.09511   0.00000  Uiso   1.00
C203   C     0.50022   0.50003   0.07304   0.00000  Uiso   1.00
C204   C     0.49978   0.49997   0.26029   0.00000  Uiso   1.00
Zn205  Zn    0.50000   0.55104   0.16667   0.00000  Uiso   1.00
Zn206  Zn    0.50000   0.44896   0.16667   0.00000  Uiso   1.00
C207   C     0.50010   0.50004   0.02182   0.00000  Uiso   1.00
C208   C     0.49990   0.49996   0.31151   0.00000  Uiso   1.00
C209   C     0.35631   0.48115   0.20751   0.00000  Uiso   1.00
C210   C     0.64369   0.51884   0.12581   0.00000  Uiso   1.00
C211   C     0.64633   0.48259   0.20854   0.00000  Uiso   1.00
C212   C     0.35367   0.51741   0.12479   0.00000  Uiso   1.00
C213   C     0.62398   0.50127   0.16748   0.00000  Uiso   1.00
C214   C     0.37602   0.49874   0.16585   0.00000  Uiso   1.00
C215   C     0.52339   0.35710   0.20180   0.00000  Uiso   1.00
C216   C     0.47661   0.64290   0.13153   0.00000  Uiso   1.00
C217   C     0.47656   0.35682   0.13160   0.00000  Uiso   1.00
C218   C     0.52345   0.64318   0.20174   0.00000  Uiso   1.00
N219   N     0.50000   0.61907   0.16667   0.00000  Uiso   1.00
N220   N     0.50000   0.38093   0.16667   0.00000  Uiso   1.00
N221   N     0.38041   0.46522   0.25025   0.00000  Uiso   1.00
O222   O     0.37864   0.48574   0.29287   0.00000  Uiso   1.00
O223   O     0.39985   0.42739   0.24820   0.00000  Uiso   1.00
N224   N     0.61959   0.53477   0.08307   0.00000  Uiso   1.00
O225   O     0.62141   0.51429   0.04044   0.00000  Uiso   1.00
O226   O     0.60011   0.57258   0.08512   0.00000  Uiso   1.00
N227   N     0.62520   0.46557   0.25116   0.00000  Uiso   1.00
O228   O     0.63569   0.42736   0.27089   0.00000  Uiso   1.00
O229   O     0.59657   0.48908   0.27167   0.00000  Uiso   1.00
N230   N     0.37480   0.53444   0.08217   0.00000  Uiso   1.00
O231   O     0.36431   0.57265   0.06246   0.00000  Uiso   1.00
O232   O     0.40344   0.51093   0.06166   0.00000  Uiso   1.00
O233   O     0.54815   0.37781   0.23824   0.00000  Uiso   1.00
H234   H     0.55178   0.40914   0.22879   0.00000  Uiso   1.00
O235   O     0.45185   0.62219   0.09509   0.00000  Uiso   1.00
H236   H     0.44822   0.59087   0.10454   0.00000  Uiso   1.00
O237   O     0.45159   0.37727   0.09541   0.00000  Uiso   1.00
H238   H     0.44749   0.40831   0.10538   0.00000  Uiso   1.00
O239   O     0.54841   0.62273   0.23792   0.00000  Uiso   1.00
H240   H     0.55252   0.59169   0.22795   0.00000  Uiso   1.00
O241   O     0.77226   0.53821   0.16666   0.00000  Uiso   1.00
O242   O     0.89441   0.46179   0.16667   0.00000  Uiso   1.00
O243   O     0.89441   0.53821   0.16667   0.00000  Uiso   1.00
O244   O     0.77226   0.46179   0.16666   0.00000  Uiso   1.00
C245   C     0.75360   0.49971   0.16664   0.00000  Uiso   1.00
C246   C     0.91306   0.50029   0.16668   0.00000  Uiso   1.00
O247   O     0.83334   0.53821   0.09511   0.00000  Uiso   1.00
O248   O     0.83333   0.46179   0.23822   0.00000  Uiso   1.00
O249   O     0.83333   0.53821   0.23822   0.00000  Uiso   1.00
O250   O     0.83334   0.46179   0.09511   0.00000  Uiso   1.00
C251   C     0.83355   0.50003   0.07304   0.00000  Uiso   1.00
C252   C     0.83311   0.49997   0.26029   0.00000  Uiso   1.00
Zn253  Zn    0.83333   0.55104   0.16667   0.00000  Uiso   1.00
Zn254  Zn    0.83333   0.44896   0.16667   0.00000  Uiso   1.00
C255   C     0.83343   0.50004   0.02182   0.00000  Uiso   1.00
C256   C     0.83324   0.49996   0.31151   0.00000  Uiso   1.00
C257   C     0.68964   0.48115   0.20751   0.00000  Uiso   1.00
C258   C     0.97702   0.51884   0.12581   0.00000  Uiso   1.00
C259   C     0.97967   0.48259   0.20854   0.00000  Uiso   1.00
C260   C     0.68700   0.51741   0.12479   0.00000  Uiso   1.00
C261   C     0.95731   0.50127   0.16748   0.00000  Uiso   1.00
C262   C     0.70936   0.49874   0.16585   0.00000  Uiso   1.00
C263   C     0.85672   0.35710   0.20180   0.00000  Uiso   1.00
C264   C     0.80995   0.64290   0.13153   0.00000  Uiso   1.00
C265   C     0.80989   0.35682   0.13160   0.00000  Uiso   1.00
C266   C     0.85678   0.64318   0.20174   0.00000  Uiso   1.00
N267   N     0.83333   0.61907   0.16667   0.00000  Uiso   1.00
N268   N     0.83333   0.38093   0.16667   0.00000  Uiso   1.00
N269   N     0.71374   0.46522   0.25025   0.00000  Uiso   1.00
O270   O     0.71197   0.48574   0.29287   0.00000  Uiso   1.00
O271   O     0.73318   0.42739   0.24820   0.00000  Uiso   1.00
N272   N     0.95293   0.53477   0.08307   0.00000  Uiso   1.00
O273   O     0.95475   0.51429   0.04044   0.00000  Uiso   1.00
O274   O     0.93345   0.57258   0.08512   0.00000  Uiso   1.00
N275   N     0.95854   0.46557   0.25116   0.00000  Uiso   1.00
O276   O     0.96903   0.42736   0.27089   0.00000  Uiso   1.00
O277   O     0.92990   0.48908   0.27167   0.00000  Uiso   1.00
N278   N     0.70813   0.53444   0.08217   0.00000  Uiso   1.00
O279   O     0.69765   0.57265   0.06246   0.00000  Uiso   1.00
O280   O     0.73677   0.51093   0.06166   0.00000  Uiso   1.00
O281   O     0.88149   0.37781   0.23824   0.00000  Uiso   1.00
H282   H     0.88511   0.40914   0.22879   0.00000  Uiso   1.00
O283   O     0.78518   0.62219   0.09509   0.00000  Uiso   1.00
H284   H     0.78155   0.59087   0.10454   0.00000  Uiso   1.00
O285   O     0.78492   0.37727   0.09541   0.00000  Uiso   1.00
H286   H     0.78082   0.40831   0.10538   0.00000  Uiso   1.00
O287   O     0.88174   0.62273   0.23792   0.00000  Uiso   1.00
H288   H     0.88585   0.59169   0.22795   0.00000  Uiso   1.00
O289   O     0.10559   0.87154   0.16666   0.00000  Uiso   1.00
O290   O     0.22774   0.79513   0.16667   0.00000  Uiso   1.00
O291   O     0.22774   0.87154   0.16667   0.00000  Uiso   1.00
O292   O     0.10559   0.79513   0.16666   0.00000  Uiso   1.00
C293   C     0.08694   0.83304   0.16664   0.00000  Uiso   1.00
C294   C     0.24640   0.83362   0.16668   0.00000  Uiso   1.00
O295   O     0.16667   0.87155   0.09511   0.00000  Uiso   1.00
O296   O     0.16666   0.79512   0.23822   0.00000  Uiso   1.00
O297   O     0.16666   0.87155   0.23822   0.00000  Uiso   1.00
O298   O     0.16667   0.79512   0.09511   0.00000  Uiso   1.00
C299   C     0.16689   0.83336   0.07304   0.00000  Uiso   1.00
C300   C     0.16645   0.83330   0.26029   0.00000  Uiso   1.00
Zn301  Zn    0.16667   0.88437   0.16667   0.00000  Uiso   1.00
Zn302  Zn    0.16667   0.78229   0.16667   0.00000  Uiso   1.00
C303   C     0.16676   0.83337   0.02182   0.00000  Uiso   1.00
C304   C     0.16657   0.83329   0.31151   0.00000  Uiso   1.00
C305   C     0.02298   0.81449   0.20751   0.00000  Uiso   1.00
C306   C     0.31036   0.85218   0.12581   0.00000  Uiso   1.00
C307   C     0.31300   0.81592   0.20854   0.00000  Uiso   1.00
C308   C     0.02034   0.85075   0.12479   0.00000  Uiso   1.00
C309   C     0.29064   0.83460   0.16748   0.00000  Uiso   1.00
C310   C     0.04269   0.83207   0.16585   0.00000  Uiso   1.00
C311   C     0.19005   0.69044   0.20180   0.00000  Uiso   1.00
C312   C     0.14328   0.97623   0.13153   0.00000  Uiso   1.00
C313   C     0.14322   0.69016   0.13160   0.00000  Uiso   1.00
C314   C     0.19011   0.97651   0.20174   0.00000  Uiso   1.00
N315   N     0.16667   0.95240   0.16667   0.00000  Uiso   1.00
N316   N     0.16667   0.71427   0.16667   0.00000  Uiso   1.00
N317   N     0.04708   0.79856   0.25025   0.00000  Uiso   1.00
O318   O     0.04531   0.81907   0.29287   0.00000  Uiso   1.00
O319   O     0.06652   0.76072   0.24820   0.00000  Uiso   1.00
N320   N     0.28626   0.86810   0.08307   0.00000  Uiso   1.00
O321   O     0.28808   0.84762   0.04044   0.00000  Uiso   1.00
O322   O     0.26678   0.90591   0.08512   0.00000  Uiso   1.00
N323   N     0.29187   0.79891   0.25116   0.00000  Uiso   1.00
O324   O     0.30236   0.76070   0.27089   0.00000  Uiso   1.00
O325   O     0.26323   0.82242   0.27167   0.00000  Uiso   1.00
N326   N     0.04146   0.86777   0.08217   0.00000  Uiso   1.00
O327   O     0.03098   0.90599   0.06246   0.00000  Uiso   1.00
O328   O     0.07010   0.84426   0.06166   0.00000  Uiso   1.00
O329   O     0.21482   0.71115   0.23824   0.00000  Uiso   1.00
H330   H     0.21845   0.74247   0.22879   0.00000  Uiso   1.00
O331   O     0.11851   0.95552   0.09509   0.00000  Uiso   1.00
H332   H     0.11489   0.92420   0.10454   0.00000  Uiso   1.00
O333   O     0.11826   0.71060   0.09541   0.00000  Uiso   1.00
H334   H     0.11415   0.74164   0.10538   0.00000  Uiso   1.00
O335   O     0.21508   0.95606   0.23792   0.00000  Uiso   1.00
H336   H     0.21918   0.92503   0.22795   0.00000  Uiso   1.00
O337   O     0.43892   0.87154   0.16666   0.00000  Uiso   1.00
O338   O     0.56108   0.79513   0.16667   0.00000  Uiso   1.00
O339   O     0.56108   0.87154   0.16667   0.00000  Uiso   1.00
O340   O     0.43892   0.79513   0.16666   0.00000  Uiso   1.00
C341   C     0.42027   0.83304   0.16664   0.00000  Uiso   1.00
C342   C     0.57973   0.83362   0.16668   0.00000  Uiso   1.00
O343   O     0.50000   0.87155   0.09511   0.00000  Uiso   1.00
O344   O     0.50000   0.79512   0.23822   0.00000  Uiso   1.00
O345   O     0.50000   0.87155   0.23822   0.00000  Uiso   1.00
O346   O     0.50000   0.79512   0.09511   0.00000  Uiso   1.00
C347   C     0.50022   0.83336   0.07304   0.00000  Uiso   1.00
C348   C     0.49978   0.83330   0.26029   0.00000  Uiso   1.00
Zn349  Zn    0.50000   0.88437   0.16667   0.00000  Uiso   1.00
Zn350  Zn    0.50000   0.78229   0.16667   0.00000  Uiso   1.00
C351   C     0.50010   0.83337   0.02182   0.00000  Uiso   1.00
C352   C     0.49990   0.83329   0.31151   0.00000  Uiso   1.00
C353   C     0.35631   0.81449   0.20751   0.00000  Uiso   1.00
C354   C     0.64369   0.85218   0.12581   0.00000  Uiso   1.00
C355   C     0.64633   0.81592   0.20854   0.00000  Uiso   1.00
C356   C     0.35367   0.85075   0.12479   0.00000  Uiso   1.00
C357   C     0.62398   0.83460   0.16748   0.00000  Uiso   1.00
C358   C     0.37602   0.83207   0.16585   0.00000  Uiso   1.00
C359   C     0.52339   0.69044   0.20180   0.00000  Uiso   1.00
C360   C     0.47661   0.97623   0.13153   0.00000  Uiso   1.00
C361   C     0.47656   0.69016   0.13160   0.00000  Uiso   1.00
C362   C     0.52345   0.97651   0.20174   0.00000  Uiso   1.00
N363   N     0.50000   0.95240   0.16667   0.00000  Uiso   1.00
N364   N     0.50000   0.71427   0.16667   0.00000  Uiso   1.00
N365   N     0.38041   0.79856   0.25025   0.00000  Uiso   1.00
O366   O     0.37864   0.81907   0.29287   0.00000  Uiso   1.00
O367   O     0.39985   0.76072   0.24820   0.00000  Uiso   1.00
N368   N     0.61959   0.86810   0.08307   0.00000  Uiso   1.00
O369   O     0.62141   0.84762   0.04044   0.00000  Uiso   1.00
O370   O     0.60011   0.90591   0.08512   0.00000  Uiso   1.00
N371   N     0.62520   0.79891   0.25116   0.00000  Uiso   1.00
O372   O     0.63569   0.76070   0.27089   0.00000  Uiso   1.00
O373   O     0.59657   0.82242   0.27167   0.00000  Uiso   1.00
N374   N     0.37480   0.86777   0.08217   0.00000  Uiso   1.00
O375   O     0.36431   0.90599   0.06246   0.00000  Uiso   1.00
O376   O     0.40344   0.84426   0.06166   0.00000  Uiso   1.00
O377   O     0.54815   0.71115   0.23824   0.00000  Uiso   1.00
H378   H     0.55178   0.74247   0.22879   0.00000  Uiso   1.00
O379   O     0.45185   0.95552   0.09509   0.00000  Uiso   1.00
H380   H     0.44822   0.92420   0.10454   0.00000  Uiso   1.00
O381   O     0.45159   0.71060   0.09541   0.00000  Uiso   1.00
H382   H     0.44749   0.74164   0.10538   0.00000  Uiso   1.00
O383   O     0.54841   0.95606   0.23792   0.00000  Uiso   1.00
H384   H     0.55252   0.92503   0.22795   0.00000  Uiso   1.00
O385   O     0.77226   0.87154   0.16666   0.00000  Uiso   1.00
O386   O     0.89441   0.79513   0.16667   0.00000  Uiso   1.00
O387   O     0.89441   0.87154   0.16667   0.00000  Uiso   1.00
O388   O     0.77226   0.79513   0.16666   0.00000  Uiso   1.00
C389   C     0.75360   0.83304   0.16664   0.00000  Uiso   1.00
C390   C     0.91306   0.83362   0.16668   0.00000  Uiso   1.00
O391   O     0.83334   0.87155   0.09511   0.00000  Uiso   1.00
O392   O     0.83333   0.79512   0.23822   0.00000  Uiso   1.00
O393   O     0.83333   0.87155   0.23822   0.00000  Uiso   1.00
O394   O     0.83334   0.79512   0.09511   0.00000  Uiso   1.00
C395   C     0.83355   0.83336   0.07304   0.00000  Uiso   1.00
C396   C     0.83311   0.83330   0.26029   0.00000  Uiso   1.00
Zn397  Zn    0.83333   0.88437   0.16667   0.00000  Uiso   1.00
Zn398  Zn    0.83333   0.78229   0.16667   0.00000  Uiso   1.00
C399   C     0.83343   0.83337   0.02182   0.00000  Uiso   1.00
C400   C     0.83324   0.83329   0.31151   0.00000  Uiso   1.00
C401   C     0.68964   0.81449   0.20751   0.00000  Uiso   1.00
C402   C     0.97702   0.85218   0.12581   0.00000  Uiso   1.00
C403   C     0.97967   0.81592   0.20854   0.00000  Uiso   1.00
C404   C     0.68700   0.85075   0.12479   0.00000  Uiso   1.00
C405   C     0.95731   0.83460   0.16748   0.00000  Uiso   1.00
C406   C     0.70936   0.83207   0.16585   0.00000  Uiso   1.00
C407   C     0.85672   0.69044   0.20180   0.00000  Uiso   1.00
C408   C     0.80995   0.97623   0.13153   0.00000  Uiso   1.00
C409   C     0.80989   0.69016   0.13160   0.00000  Uiso   1.00
C410   C     0.85678   0.97651   0.20174   0.00000  Uiso   1.00
N411   N     0.83333   0.95240   0.16667   0.00000  Uiso   1.00
N412   N     0.83333   0.71427   0.16667   0.00000  Uiso   1.00
N413   N     0.71374   0.79856   0.25025   0.00000  Uiso   1.00
O414   O     0.71197   0.81907   0.29287   0.00000  Uiso   1.00
O415   O     0.73318   0.76072   0.24820   0.00000  Uiso   1.00
N416   N     0.95293   0.86810   0.08307   0.00000  Uiso   1.00
O417   O     0.95475   0.84762   0.04044   0.00000  Uiso   1.00
O418   O     0.93345   0.90591   0.08512   0.00000  Uiso   1.00
N419   N     0.95854   0.79891   0.25116   0.00000  Uiso   1.00
O420   O     0.96903   0.76070   0.27089   0.00000  Uiso   1.00
O421   O     0.92990   0.82242   0.27167   0.00000  Uiso   1.00
N422   N     0.70813   0.86777   0.08217   0.00000  Uiso   1.00
O423   O     0.69765   0.90599   0.06246   0.00000  Uiso   1.00
O424   O     0.73677   0.84426   0.06166   0.00000  Uiso   1.00
O425   O     0.88149   0.71115   0.23824   0.00000  Uiso   1.00
H426   H     0.88511   0.74247   0.22879   0.00000  Uiso   1.00
O427   O     0.78518   0.95552   0.09509   0.00000  Uiso   1.00
H428   H     0.78155   0.92420   0.10454   0.00000  Uiso   1.00
O429   O     0.78492   0.71060   0.09541   0.00000  Uiso   1.00
H430   H     0.78082   0.74164   0.10538   0.00000  Uiso   1.00
O431   O     0.88174   0.95606   0.23792   0.00000  Uiso   1.00
H432   H     0.88585   0.92503   0.22795   0.00000  Uiso   1.00
O433   O     0.10559   0.20487   0.50000   0.00000  Uiso   1.00
O434   O     0.22774   0.12846   0.50000   0.00000  Uiso   1.00
O435   O     0.22774   0.20487   0.50000   0.00000  Uiso   1.00
O436   O     0.10559   0.12846   0.50000   0.00000  Uiso   1.00
C437   C     0.08694   0.16638   0.49998   0.00000  Uiso   1.00
C438   C     0.24640   0.16696   0.50002   0.00000  Uiso   1.00
O439   O     0.16667   0.20488   0.42845   0.00000  Uiso   1.00
O440   O     0.16666   0.12845   0.57155   0.00000  Uiso   1.00
O441   O     0.16666   0.20488   0.57155   0.00000  Uiso   1.00
O442   O     0.16667   0.12845   0.42845   0.00000  Uiso   1.00
C443   C     0.16689   0.16670   0.40637   0.00000  Uiso   1.00
C444   C     0.16645   0.16664   0.59363   0.00000  Uiso   1.00
Zn445  Zn    0.16667   0.21771   0.50000   0.00000  Uiso   1.00
Zn446  Zn    0.16667   0.11563   0.50000   0.00000  Uiso   1.00
C447   C     0.16676   0.16671   0.35516   0.00000  Uiso   1.00
C448   C     0.16657   0.16663   0.64484   0.00000  Uiso   1.00
C449   C     0.02298   0.14782   0.54084   0.00000  Uiso   1.00
C450   C     0.31036   0.18551   0.45915   0.00000  Uiso   1.00
C451   C     0.31300   0.14926   0.54187   0.00000  Uiso   1.00
C452   C     0.02034   0.18408   0.45812   0.00000  Uiso   1.00
C453   C     0.29064   0.16793   0.50081   0.00000  Uiso   1.00
C454   C     0.04269   0.16540   0.49918   0.00000  Uiso   1.00
C455   C     0.19005   0.02377   0.53513   0.00000  Uiso   1.00
C456   C     0.14328   0.30956   0.46487   0.00000  Uiso   1.00
C457   C     0.14322   0.02349   0.46493   0.00000  Uiso   1.00
C458   C     0.19011   0.30984   0.53507   0.00000  Uiso   1.00
N459   N     0.16667   0.28573   0.50000   0.00000  Uiso   1.00
N460   N     0.16667   0.04760   0.50000   0.00000  Uiso   1.00
N461   N     0.04708   0.13189   0.58358   0.00000  Uiso   1.00
O462   O     0.04531   0.15241   0.62620   0.00000  Uiso   1.00
O463   O     0.06652   0.09405   0.58154   0.00000  Uiso   1.00
N464   N     0.28626   0.20143   0.41640   0.00000  Uiso   1.00
O465   O     0.28808   0.18095   0.37378   0.00000  Uiso   1.00
O466   O     0.26678   0.23925   0.41845   0.00000  Uiso   1.00
N467   N     0.29187   0.13224   0.58450   0.00000  Uiso   1.00
O468   O     0.30236   0.09403   0.60422   0.00000  Uiso   1.00
O469   O     0.26323   0.15575   0.60500   0.00000  Uiso   1.00
N470   N     0.04146   0.20110   0.41550   0.00000  Uiso   1.00
O471   O     0.03098   0.23932   0.39579   0.00000  Uiso   1.00
O472   O     0.07010   0.17760   0.39499   0.00000  Uiso   1.00
O473   O     0.21482   0.04448   0.57157   0.00000  Uiso   1.00
H474   H     0.21845   0.07580   0.56212   0.00000  Uiso   1.00
O475   O     0.11851   0.28885   0.42843   0.00000  Uiso   1.00
H476   H     0.11489   0.25753   0.43788   0.00000  Uiso   1.00
O477   O     0.11826   0.04394   0.42874   0.00000  Uiso   1.00
H478   H     0.11415   0.07497   0.43872   0.00000  Uiso   1.00
O479   O     0.21508   0.28940   0.57126   0.00000  Uiso   1.00
H480   H     0.21918   0.25836   0.56128   0.00000  Uiso   1.00
O481   O     0.43892   0.20487   0.50000   0.00000  Uiso   1.00
O482   O     0.56108   0.12846   0.50000   0.00000  Uiso   1.00
O483   O     0.56108   0.20487   0.50000   0.00000  Uiso   1.00
O484   O     0.43892   0.12846   0.50000   0.00000  Uiso   1.00
C485   C     0.42027   0.16638   0.49998   0.00000  Uiso   1.00
C486   C     0.57973   0.16696   0.50002   0.00000  Uiso   1.00
O487   O     0.50000   0.20488   0.42845   0.00000  Uiso   1.00
O488   O     0.50000   0.12845   0.57155   0.00000  Uiso   1.00
O489   O     0.50000   0.20488   0.57155   0.00000  Uiso   1.00
O490   O     0.50000   0.12845   0.42845   0.00000  Uiso   1.00
C491   C     0.50022   0.16670   0.40637   0.00000  Uiso   1.00
C492   C     0.49978   0.16664   0.59363   0.00000  Uiso   1.00
Zn493  Zn    0.50000   0.21771   0.50000   0.00000  Uiso   1.00
Zn494  Zn    0.50000   0.11563   0.50000   0.00000  Uiso   1.00
C495   C     0.50010   0.16671   0.35516   0.00000  Uiso   1.00
C496   C     0.49990   0.16663   0.64484   0.00000  Uiso   1.00
C497   C     0.35631   0.14782   0.54084   0.00000  Uiso   1.00
C498   C     0.64369   0.18551   0.45915   0.00000  Uiso   1.00
C499   C     0.64633   0.14926   0.54187   0.00000  Uiso   1.00
C500   C     0.35367   0.18408   0.45812   0.00000  Uiso   1.00
C501   C     0.62398   0.16793   0.50081   0.00000  Uiso   1.00
C502   C     0.37602   0.16540   0.49918   0.00000  Uiso   1.00
C503   C     0.52339   0.02377   0.53513   0.00000  Uiso   1.00
C504   C     0.47661   0.30956   0.46487   0.00000  Uiso   1.00
C505   C     0.47656   0.02349   0.46493   0.00000  Uiso   1.00
C506   C     0.52345   0.30984   0.53507   0.00000  Uiso   1.00
N507   N     0.50000   0.28573   0.50000   0.00000  Uiso   1.00
N508   N     0.50000   0.04760   0.50000   0.00000  Uiso   1.00
N509   N     0.38041   0.13189   0.58358   0.00000  Uiso   1.00
O510   O     0.37864   0.15241   0.62620   0.00000  Uiso   1.00
O511   O     0.39985   0.09405   0.58154   0.00000  Uiso   1.00
N512   N     0.61959   0.20143   0.41640   0.00000  Uiso   1.00
O513   O     0.62141   0.18095   0.37378   0.00000  Uiso   1.00
O514   O     0.60011   0.23925   0.41845   0.00000  Uiso   1.00
N515   N     0.62520   0.13224   0.58450   0.00000  Uiso   1.00
O516   O     0.63569   0.09403   0.60422   0.00000  Uiso   1.00
O517   O     0.59657   0.15575   0.60500   0.00000  Uiso   1.00
N518   N     0.37480   0.20110   0.41550   0.00000  Uiso   1.00
O519   O     0.36431   0.23932   0.39579   0.00000  Uiso   1.00
O520   O     0.40344   0.17760   0.39499   0.00000  Uiso   1.00
O521   O     0.54815   0.04448   0.57157   0.00000  Uiso   1.00
H522   H     0.55178   0.07580   0.56212   0.00000  Uiso   1.00
O523   O     0.45185   0.28885   0.42843   0.00000  Uiso   1.00
H524   H     0.44822   0.25753   0.43788   0.00000  Uiso   1.00
O525   O     0.45159   0.04394   0.42874   0.00000  Uiso   1.00
H526   H     0.44749   0.07497   0.43872   0.00000  Uiso   1.00
O527   O     0.54841   0.28940   0.57126   0.00000  Uiso   1.00
H528   H     0.55252   0.25836   0.56128   0.00000  Uiso   1.00
O529   O     0.77226   0.20487   0.50000   0.00000  Uiso   1.00
O530   O     0.89441   0.12846   0.50000   0.00000  Uiso   1.00
O531   O     0.89441   0.20487   0.50000   0.00000  Uiso   1.00
O532   O     0.77226   0.12846   0.50000   0.00000  Uiso   1.00
C533   C     0.75360   0.16638   0.49998   0.00000  Uiso   1.00
C534   C     0.91306   0.16696   0.50002   0.00000  Uiso   1.00
O535   O     0.83334   0.20488   0.42845   0.00000  Uiso   1.00
O536   O     0.83333   0.12845   0.57155   0.00000  Uiso   1.00
O537   O     0.83333   0.20488   0.57155   0.00000  Uiso   1.00
O538   O     0.83334   0.12845   0.42845   0.00000  Uiso   1.00
C539   C     0.83355   0.16670   0.40637   0.00000  Uiso   1.00
C540   C     0.83311   0.16664   0.59363   0.00000  Uiso   1.00
Zn541  Zn    0.83333   0.21771   0.50000   0.00000  Uiso   1.00
Zn542  Zn    0.83333   0.11563   0.50000   0.00000  Uiso   1.00
C543   C     0.83343   0.16671   0.35516   0.00000  Uiso   1.00
C544   C     0.83324   0.16663   0.64484   0.00000  Uiso   1.00
C545   C     0.68964   0.14782   0.54084   0.00000  Uiso   1.00
C546   C     0.97702   0.18551   0.45915   0.00000  Uiso   1.00
C547   C     0.97967   0.14926   0.54187   0.00000  Uiso   1.00
C548   C     0.68700   0.18408   0.45812   0.00000  Uiso   1.00
C549   C     0.95731   0.16793   0.50081   0.00000  Uiso   1.00
C550   C     0.70936   0.16540   0.49918   0.00000  Uiso   1.00
C551   C     0.85672   0.02377   0.53513   0.00000  Uiso   1.00
C552   C     0.80995   0.30956   0.46487   0.00000  Uiso   1.00
C553   C     0.80989   0.02349   0.46493   0.00000  Uiso   1.00
C554   C     0.85678   0.30984   0.53507   0.00000  Uiso   1.00
N555   N     0.83333   0.28573   0.50000   0.00000  Uiso   1.00
N556   N     0.83333   0.04760   0.50000   0.00000  Uiso   1.00
N557   N     0.71374   0.13189   0.58358   0.00000  Uiso   1.00
O558   O     0.71197   0.15241   0.62620   0.00000  Uiso   1.00
O559   O     0.73318   0.09405   0.58154   0.00000  Uiso   1.00
N560   N     0.95293   0.20143   0.41640   0.00000  Uiso   1.00
O561   O     0.95475   0.18095   0.37378   0.00000  Uiso   1.00
O562   O     0.93345   0.23925   0.41845   0.00000  Uiso   1.00
N563   N     0.95854   0.13224   0.58450   0.00000  Uiso   1.00
O564   O     0.96903   0.09403   0.60422   0.00000  Uiso   1.00
O565   O     0.92990   0.15575   0.60500   0.00000  Uiso   1.00
N566   N     0.70813   0.20110   0.41550   0.00000  Uiso   1.00
O567   O     0.69765   0.23932   0.39579   0.00000  Uiso   1.00
O568   O     0.73677   0.17760   0.39499   0.00000  Uiso   1.00
O569   O     0.88149   0.04448   0.57157   0.00000  Uiso   1.00
H570   H     0.88511   0.07580   0.56212   0.00000  Uiso   1.00
O571   O     0.78518   0.28885   0.42843   0.00000  Uiso   1.00
H572   H     0.78155   0.25753   0.43788   0.00000  Uiso   1.00
O573   O     0.78492   0.04394   0.42874   0.00000  Uiso   1.00
H574   H     0.78082   0.07497   0.43872   0.00000  Uiso   1.00
O575   O     0.88174   0.28940   0.57126   0.00000  Uiso   1.00
H576   H     0.88585   0.25836   0.56128   0.00000  Uiso   1.00
O577   O     0.10559   0.53821   0.50000   0.00000  Uiso   1.00
O578   O     0.22774   0.46179   0.50000   0.00000  Uiso   1.00
O579   O     0.22774   0.53821   0.50000   0.00000  Uiso   1.00
O580   O     0.10559   0.46179   0.50000   0.00000  Uiso   1.00
C581   C     0.08694   0.49971   0.49998   0.00000  Uiso   1.00
C582   C     0.24640   0.50029   0.50002   0.00000  Uiso   1.00
O583   O     0.16667   0.53821   0.42845   0.00000  Uiso   1.00
O584   O     0.16666   0.46179   0.57155   0.00000  Uiso   1.00
O585   O     0.16666   0.53821   0.57155   0.00000  Uiso   1.00
O586   O     0.16667   0.46179   0.42845   0.00000  Uiso   1.00
C587   C     0.16689   0.50003   0.40637   0.00000  Uiso   1.00
C588   C     0.16645   0.49997   0.59363   0.00000  Uiso   1.00
Zn589  Zn    0.16667   0.55104   0.50000   0.00000  Uiso   1.00
Zn590  Zn    0.16667   0.44896   0.50000   0.00000  Uiso   1.00
C591   C     0.16676   0.50004   0.35516   0.00000  Uiso   1.00
C592   C     0.16657   0.49996   0.64484   0.00000  Uiso   1.00
C593   C     0.02298   0.48115   0.54084   0.00000  Uiso   1.00
C594   C     0.31036   0.51884   0.45915   0.00000  Uiso   1.00
C595   C     0.31300   0.48259   0.54187   0.00000  Uiso   1.00
C596   C     0.02034   0.51741   0.45812   0.00000  Uiso   1.00
C597   C     0.29064   0.50127   0.50081   0.00000  Uiso   1.00
C598   C     0.04269   0.49874   0.49918   0.00000  Uiso   1.00
C599   C     0.19005   0.35710   0.53513   0.00000  Uiso   1.00
C600   C     0.14328   0.64290   0.46487   0.00000  Uiso   1.00
C601   C     0.14322   0.35682   0.46493   0.00000  Uiso   1.00
C602   C     0.19011   0.64318   0.53507   0.00000  Uiso   1.00
N603   N     0.16667   0.61907   0.50000   0.00000  Uiso   1.00
N604   N     0.16667   0.38093   0.50000   0.00000  Uiso   1.00
N605   N     0.04708   0.46522   0.58358   0.00000  Uiso   1.00
O606   O     0.04531   0.48574   0.62620   0.00000  Uiso   1.00
O607   O     0.06652   0.42739   0.58154   0.00000  Uiso   1.00
N608   N     0.28626   0.53477   0.41640   0.00000  Uiso   1.00
O609   O     0.28808   0.51429   0.37378   0.00000  Uiso   1.00
O610   O     0.26678   0.57258   0.41845   0.00000  Uiso   1.00
N611   N     0.29187   0.46557   0.58450   0.00000  Uiso   1.00
O612   O     0.30236   0.42736   0.60422   0.00000  Uiso   1.00
O613   O     0.26323   0.48908   0.60500   0.00000  Uiso   1.00
N614   N     0.04146   0.53444   0.41550   0.00000  Uiso   1.00
O615   O     0.03098   0.57265   0.39579   0.00000  Uiso   1.00
O616   O     0.07010   0.51093   0.39499   0.00000  Uiso   1.00
O617   O     0.21482   0.37781   0.57157   0.00000  Uiso   1.00
H618   H     0.21845   0.40914   0.56212   0.00000  Uiso   1.00
O619   O     0.11851   0.62219   0.42843   0.00000  Uiso   1.00
H620   H     0.11489   0.59087   0.43788   0.00000  Uiso   1.00
O621   O     0.11826   0.37727   0.42874   0.00000  Uiso   1.00
H622   H     0.11415   0.40831   0.43872   0.00000  Uiso   1.00
O623   O     0.21508   0.62273   0.57126   0.00000  Uiso   1.00
H624   H     0.21918   0.59169   0.56128   0.00000  Uiso   1.00
O625   O     0.43892   0.53821   0.50000   0.00000  Uiso   1.00
O626   O     0.56108   0.46179   0.50000   0.00000  Uiso   1.00
O627   O     0.56108   0.53821   0.50000   0.00000  Uiso   1.00
O628   O     0.43892   0.46179   0.50000   0.00000  Uiso   1.00
C629   C     0.42027   0.49971   0.49998   0.00000  Uiso   1.00
C630   C     0.57973   0.50029   0.50002   0.00000  Uiso   1.00
O631   O     0.50000   0.53821   0.42845   0.00000  Uiso   1.00
O632   O     0.50000   0.46179   0.57155   0.00000  Uiso   1.00
O633   O     0.50000   0.53821   0.57155   0.00000  Uiso   1.00
O634   O     0.50000   0.46179   0.42845   0.00000  Uiso   1.00
C635   C     0.50022   0.50003   0.40637   0.00000  Uiso   1.00
C636   C     0.49978   0.49997   0.59363   0.00000  Uiso   1.00
Zn637  Zn    0.50000   0.55104   0.50000   0.00000  Uiso   1.00
Zn638  Zn    0.50000   0.44896   0.50000   0.00000  Uiso   1.00
C639   C     0.50010   0.50004   0.35516   0.00000  Uiso   1.00
C640   C     0.49990   0.49996   0.64484   0.00000  Uiso   1.00
C641   C     0.35631   0.48115   0.54084   0.00000  Uiso   1.00
C642   C     0.64369   0.51884   0.45915   0.00000  Uiso   1.00
C643   C     0.64633   0.48259   0.54187   0.00000  Uiso   1.00
C644   C     0.35367   0.51741   0.45812   0.00000  Uiso   1.00
C645   C     0.62398   0.50127   0.50081   0.00000  Uiso   1.00
C646   C     0.37602   0.49874   0.49918   0.00000  Uiso   1.00
C647   C     0.52339   0.35710   0.53513   0.00000  Uiso   1.00
C648   C     0.47661   0.64290   0.46487   0.00000  Uiso   1.00
C649   C     0.47656   0.35682   0.46493   0.00000  Uiso   1.00
C650   C     0.52345   0.64318   0.53507   0.00000  Uiso   1.00
N651   N     0.50000   0.61907   0.50000   0.00000  Uiso   1.00
N652   N     0.50000   0.38093   0.50000   0.00000  Uiso   1.00
N653   N     0.38041   0.46522   0.58358   0.00000  Uiso   1.00
O654   O     0.37864   0.48574   0.62620   0.00000  Uiso   1.00
O655   O     0.39985   0.42739   0.58154   0.00000  Uiso   1.00
N656   N     0.61959   0.53477   0.41640   0.00000  Uiso   1.00
O657   O     0.62141   0.51429   0.37378   0.00000  Uiso   1.00
O658   O     0.60011   0.57258   0.41845   0.00000  Uiso   1.00
N659   N     0.62520   0.46557   0.58450   0.00000  Uiso   1.00
O660   O     0.63569   0.42736   0.60422   0.00000  Uiso   1.00
O661   O     0.59657   0.48908   0.60500   0.00000  Uiso   1.00
N662   N     0.37480   0.53444   0.41550   0.00000  Uiso   1.00
O663   O     0.36431   0.57265   0.39579   0.00000  Uiso   1.00
O664   O     0.40344   0.51093   0.39499   0.00000  Uiso   1.00
O665   O     0.54815   0.37781   0.57157   0.00000  Uiso   1.00
H666   H     0.55178   0.40914   0.56212   0.00000  Uiso   1.00
O667   O     0.45185   0.62219   0.42843   0.00000  Uiso   1.00
H668   H     0.44822   0.59087   0.43788   0.00000  Uiso   1.00
O669   O     0.45159   0.37727   0.42874   0.00000  Uiso   1.00
H670   H     0.44749   0.40831   0.43872   0.00000  Uiso   1.00
O671   O     0.54841   0.62273   0.57126   0.00000  Uiso   1.00
H672   H     0.55252   0.59169   0.56128   0.00000  Uiso   1.00
O673   O     0.77226   0.53821   0.50000   0.00000  Uiso   1.00
O674   O     0.89441   0.46179   0.50000   0.00000  Uiso   1.00
O675   O     0.89441   0.53821   0.50000   0.00000  Uiso   1.00
O676   O     0.77226   0.46179   0.50000   0.00000  Uiso   1.00
C677   C     0.75360   0.49971   0.49998   0.00000  Uiso   1.00
C678   C     0.91306   0.50029   0.50002   0.00000  Uiso   1.00
O679   O     0.83334   0.53821   0.42845   0.00000  Uiso   1.00
O680   O     0.83333   0.46179   0.57155   0.00000  Uiso   1.00
O681   O     0.83333   0.53821   0.57155   0.00000  Uiso   1.00
O682   O     0.83334   0.46179   0.42845   0.00000  Uiso   1.00
C683   C     0.83355   0.50003   0.40637   0.00000  Uiso   1.00
C684   C     0.83311   0.49997   0.59363   0.00000  Uiso   1.00
Zn685  Zn    0.83333   0.55104   0.50000   0.00000  Uiso   1.00
Zn686  Zn    0.83333   0.44896   0.50000   0.00000  Uiso   1.00
C687   C     0.83343   0.50004   0.35516   0.00000  Uiso   1.00
C688   C     0.83324   0.49996   0.64484   0.00000  Uiso   1.00
C689   C     0.68964   0.48115   0.54084   0.00000  Uiso   1.00
C690   C     0.97702   0.51884   0.45915   0.00000  Uiso   1.00
C691   C     0.97967   0.48259   0.54187   0.00000  Uiso   1.00
C692   C     0.68700   0.51741   0.45812   0.00000  Uiso   1.00
C693   C     0.95731   0.50127   0.50081   0.00000  Uiso   1.00
C694   C     0.70936   0.49874   0.49918   0.00000  Uiso   1.00
C695   C     0.85672   0.35710   0.53513   0.00000  Uiso   1.00
C696   C     0.80995   0.64290   0.46487   0.00000  Uiso   1.00
C697   C     0.80989   0.35682   0.46493   0.00000  Uiso   1.00
C698   C     0.85678   0.64318   0.53507   0.00000  Uiso   1.00
N699   N     0.83333   0.61907   0.50000   0.00000  Uiso   1.00
N700   N     0.83333   0.38093   0.50000   0.00000  Uiso   1.00
N701   N     0.71374   0.46522   0.58358   0.00000  Uiso   1.00
O702   O     0.71197   0.48574   0.62620   0.00000  Uiso   1.00
O703   O     0.73318   0.42739   0.58154   0.00000  Uiso   1.00
N704   N     0.95293   0.53477   0.41640   0.00000  Uiso   1.00
O705   O     0.95475   0.51429   0.37378   0.00000  Uiso   1.00
O706   O     0.93345   0.57258   0.41845   0.00000  Uiso   1.00
N707   N     0.95854   0.46557   0.58450   0.00000  Uiso   1.00
O708   O     0.96903   0.42736   0.60422   0.00000  Uiso   1.00
O709   O     0.92990   0.48908   0.60500   0.00000  Uiso   1.00
N710   N     0.70813   0.53444   0.41550   0.00000  Uiso   1.00
O711   O     0.69765   0.57265   0.39579   0.00000  Uiso   1.00
O712   O     0.73677   0.51093   0.39499   0.00000  Uiso   1.00
O713   O     0.88149   0.37781   0.57157   0.00000  Uiso   1.00
H714   H     0.88511   0.40914   0.56212   0.00000  Uiso   1.00
O715   O     0.78518   0.62219   0.42843   0.00000  Uiso   1.00
H716   H     0.78155   0.59087   0.43788   0.00000  Uiso   1.00
O717   O     0.78492   0.37727   0.42874   0.00000  Uiso   1.00
H718   H     0.78082   0.40831   0.43872   0.00000  Uiso   1.00
O719   O     0.88174   0.62273   0.57126   0.00000  Uiso   1.00
H720   H     0.88585   0.59169   0.56128   0.00000  Uiso   1.00
O721   O     0.10559   0.87154   0.50000   0.00000  Uiso   1.00
O722   O     0.22774   0.79513   0.50000   0.00000  Uiso   1.00
O723   O     0.22774   0.87154   0.50000   0.00000  Uiso   1.00
O724   O     0.10559   0.79513   0.50000   0.00000  Uiso   1.00
C725   C     0.08694   0.83304   0.49998   0.00000  Uiso   1.00
C726   C     0.24640   0.83362   0.50002   0.00000  Uiso   1.00
O727   O     0.16667   0.87155   0.42845   0.00000  Uiso   1.00
O728   O     0.16666   0.79512   0.57155   0.00000  Uiso   1.00
O729   O     0.16666   0.87155   0.57155   0.00000  Uiso   1.00
O730   O     0.16667   0.79512   0.42845   0.00000  Uiso   1.00
C731   C     0.16689   0.83336   0.40637   0.00000  Uiso   1.00
C732   C     0.16645   0.83330   0.59363   0.00000  Uiso   1.00
Zn733  Zn    0.16667   0.88437   0.50000   0.00000  Uiso   1.00
Zn734  Zn    0.16667   0.78229   0.50000   0.00000  Uiso   1.00
C735   C     0.16676   0.83337   0.35516   0.00000  Uiso   1.00
C736   C     0.16657   0.83329   0.64484   0.00000  Uiso   1.00
C737   C     0.02298   0.81449   0.54084   0.00000  Uiso   1.00
C738   C     0.31036   0.85218   0.45915   0.00000  Uiso   1.00
C739   C     0.31300   0.81592   0.54187   0.00000  Uiso   1.00
C740   C     0.02034   0.85075   0.45812   0.00000  Uiso   1.00
C741   C     0.29064   0.83460   0.50081   0.00000  Uiso   1.00
C742   C     0.04269   0.83207   0.49918   0.00000  Uiso   1.00
C743   C     0.19005   0.69044   0.53513   0.00000  Uiso   1.00
C744   C     0.14328   0.97623   0.46487   0.00000  Uiso   1.00
C745   C     0.14322   0.69016   0.46493   0.00000  Uiso   1.00
C746   C     0.19011   0.97651   0.53507   0.00000  Uiso   1.00
N747   N     0.16667   0.95240   0.50000   0.00000  Uiso   1.00
N748   N     0.16667   0.71427   0.50000   0.00000  Uiso   1.00
N749   N     0.04708   0.79856   0.58358   0.00000  Uiso   1.00
O750   O     0.04531   0.81907   0.62620   0.00000  Uiso   1.00
O751   O     0.06652   0.76072   0.58154   0.00000  Uiso   1.00
N752   N     0.28626   0.86810   0.41640   0.00000  Uiso   1.00
O753   O     0.28808   0.84762   0.37378   0.00000  Uiso   1.00
O754   O     0.26678   0.90591   0.41845   0.00000  Uiso   1.00
N755   N     0.29187   0.79891   0.58450   0.00000  Uiso   1.00
O756   O     0.30236   0.76070   0.60422   0.00000  Uiso   1.00
O757   O     0.26323   0.82242   0.60500   0.00000  Uiso   1.00
N758   N     0.04146   0.86777   0.41550   0.00000  Uiso   1.00
O759   O     0.03098   0.90599   0.39579   0.00000  Uiso   1.00
O760   O     0.07010   0.84426   0.39499   0.00000  Uiso   1.00
O761   O     0.21482   0.71115   0.57157   0.00000  Uiso   1.00
H762   H     0.21845   0.74247   0.56212   0.00000  Uiso   1.00
O763   O     0.11851   0.95552   0.42843   0.00000  Uiso   1.00
H764   H     0.11489   0.92420   0.43788   0.00000  Uiso   1.00
O765   O     0.11826   0.71060   0.42874   0.00000  Uiso   1.00
H766   H     0.11415   0.74164   0.43872   0.00000  Uiso   1.00
O767   O     0.21508   0.95606   0.57126   0.00000  Uiso   1.00
H768   H     0.21918   0.92503   0.56128   0.00000  Uiso   1.00
O769   O     0.43892   0.87154   0.50000   0.00000  Uiso   1.00
O770   O     0.56108   0.79513   0.50000   0.00000  Uiso   1.00
O771   O     0.56108   0.87154   0.50000   0.00000  Uiso   1.00
O772   O     0.43892   0.79513   0.50000   0.00000  Uiso   1.00
C773   C     0.42027   0.83304   0.49998   0.00000  Uiso   1.00
C774   C     0.57973   0.83362   0.50002   0.00000  Uiso   1.00
O775   O     0.50000   0.87155   0.42845   0.00000  Uiso   1.00
O776   O     0.50000   0.79512   0.57155   0.00000  Uiso   1.00
O777   O     0.50000   0.87155   0.57155   0.00000  Uiso   1.00
O778   O     0.50000   0.79512   0.42845   0.00000  Uiso   1.00
C779   C     0.50022   0.83336   0.40637   0.00000  Uiso   1.00
C780   C     0.49978   0.83330   0.59363   0.00000  Uiso   1.00
Zn781  Zn    0.50000   0.88437   0.50000   0.00000  Uiso   1.00
Zn782  Zn    0.50000   0.78229   0.50000   0.00000  Uiso   1.00
C783   C     0.50010   0.83337   0.35516   0.00000  Uiso   1.00
C784   C     0.49990   0.83329   0.64484   0.00000  Uiso   1.00
C785   C     0.35631   0.81449   0.54084   0.00000  Uiso   1.00
C786   C     0.64369   0.85218   0.45915   0.00000  Uiso   1.00
C787   C     0.64633   0.81592   0.54187   0.00000  Uiso   1.00
C788   C     0.35367   0.85075   0.45812   0.00000  Uiso   1.00
C789   C     0.62398   0.83460   0.50081   0.00000  Uiso   1.00
C790   C     0.37602   0.83207   0.49918   0.00000  Uiso   1.00
C791   C     0.52339   0.69044   0.53513   0.00000  Uiso   1.00
C792   C     0.47661   0.97623   0.46487   0.00000  Uiso   1.00
C793   C     0.47656   0.69016   0.46493   0.00000  Uiso   1.00
C794   C     0.52345   0.97651   0.53507   0.00000  Uiso   1.00
N795   N     0.50000   0.95240   0.50000   0.00000  Uiso   1.00
N796   N     0.50000   0.71427   0.50000   0.00000  Uiso   1.00
N797   N     0.38041   0.79856   0.58358   0.00000  Uiso   1.00
O798   O     0.37864   0.81907   0.62620   0.00000  Uiso   1.00
O799   O     0.39985   0.76072   0.58154   0.00000  Uiso   1.00
N800   N     0.61959   0.86810   0.41640   0.00000  Uiso   1.00
O801   O     0.62141   0.84762   0.37378   0.00000  Uiso   1.00
O802   O     0.60011   0.90591   0.41845   0.00000  Uiso   1.00
N803   N     0.62520   0.79891   0.58450   0.00000  Uiso   1.00
O804   O     0.63569   0.76070   0.60422   0.00000  Uiso   1.00
O805   O     0.59657   0.82242   0.60500   0.00000  Uiso   1.00
N806   N     0.37480   0.86777   0.41550   0.00000  Uiso   1.00
O807   O     0.36431   0.90599   0.39579   0.00000  Uiso   1.00
O808   O     0.40344   0.84426   0.39499   0.00000  Uiso   1.00
O809   O     0.54815   0.71115   0.57157   0.00000  Uiso   1.00
H810   H     0.55178   0.74247   0.56212   0.00000  Uiso   1.00
O811   O     0.45185   0.95552   0.42843   0.00000  Uiso   1.00
H812   H     0.44822   0.92420   0.43788   0.00000  Uiso   1.00
O813   O     0.45159   0.71060   0.42874   0.00000  Uiso   1.00
H814   H     0.44749   0.74164   0.43872   0.00000  Uiso   1.00
O815   O     0.54841   0.95606   0.57126   0.00000  Uiso   1.00
H816   H     0.55252   0.92503   0.56128   0.00000  Uiso   1.00
O817   O     0.77226   0.87154   0.50000   0.00000  Uiso   1.00
O818   O     0.89441   0.79513   0.50000   0.00000  Uiso   1.00
O819   O     0.89441   0.87154   0.50000   0.00000  Uiso   1.00
O820   O     0.77226   0.79513   0.50000   0.00000  Uiso   1.00
C821   C     0.75360   0.83304   0.49998   0.00000  Uiso   1.00
C822   C     0.91306   0.83362   0.50002   0.00000  Uiso   1.00
O823   O     0.83334   0.87155   0.42845   0.00000  Uiso   1.00
O824   O     0.83333   0.79512   0.57155   0.00000  Uiso   1.00
O825   O     0.83333   0.87155   0.57155   0.00000  Uiso   1.00
O826   O     0.83334   0.79512   0.42845   0.00000  Uiso   1.00
C827   C     0.83355   0.83336   0.40637   0.00000  Uiso   1.00
C828   C     0.83311   0.83330   0.59363   0.00000  Uiso   1.00
Zn829  Zn    0.83333   0.88437   0.50000   0.00000  Uiso   1.00
Zn830  Zn    0.83333   0.78229   0.50000   0.00000  Uiso   1.00
C831   C     0.83343   0.83337   0.35516   0.00000  Uiso   1.00
C832   C     0.83324   0.83329   0.64484   0.00000  Uiso   1.00
C833   C     0.68964   0.81449   0.54084   0.00000  Uiso   1.00
C834   C     0.97702   0.85218   0.45915   0.00000  Uiso   1.00
C835   C     0.97967   0.81592   0.54187   0.00000  Uiso   1.00
C836   C     0.68700   0.85075   0.45812   0.00000  Uiso   1.00
C837   C     0.95731   0.83460   0.50081   0.00000  Uiso   1.00
C838   C     0.70936   0.83207   0.49918   0.00000  Uiso   1.00
C839   C     0.85672   0.69044   0.53513   0.00000  Uiso   1.00
C840   C     0.80995   0.97623   0.46487   0.00000  Uiso   1.00
C841   C     0.80989   0.69016   0.46493   0.00000  Uiso   1.00
C842   C     0.85678   0.97651   0.53507   0.00000  Uiso   1.00
N843   N     0.83333   0.95240   0.50000   0.00000  Uiso   1.00
N844   N     0.83333   0.71427   0.50000   0.00000  Uiso   1.00
N845   N     0.71374   0.79856   0.58358   0.00000  Uiso   1.00
O846   O     0.71197   0.81907   0.62620   0.00000  Uiso   1.00
O847   O     0.73318   0.76072   0.58154   0.00000  Uiso   1.00
N848   N     0.95293   0.86810   0.41640   0.00000  Uiso   1.00
O849   O     0.95475   0.84762   0.37378   0.00000  Uiso   1.00
O850   O     0.93345   0.90591   0.41845   0.00000  Uiso   1.00
N851   N     0.95854   0.79891   0.58450   0.00000  Uiso   1.00
O852   O     0.96903   0.76070   0.60422   0.00000  Uiso   1.00
O853   O     0.92990   0.82242   0.60500   0.00000  Uiso   1.00
N854   N     0.70813   0.86777   0.41550   0.00000  Uiso   1.00
O855   O     0.69765   0.90599   0.39579   0.00000  Uiso   1.00
O856   O     0.73677   0.84426   0.39499   0.00000  Uiso   1.00
O857   O     0.88149   0.71115   0.57157   0.00000  Uiso   1.00
H858   H     0.88511   0.74247   0.56212   0.00000  Uiso   1.00
O859   O     0.78518   0.95552   0.42843   0.00000  Uiso   1.00
H860   H     0.78155   0.92420   0.43788   0.00000  Uiso   1.00
O861   O     0.78492   0.71060   0.42874   0.00000  Uiso   1.00
H862   H     0.78082   0.74164   0.43872   0.00000  Uiso   1.00
O863   O     0.88174   0.95606   0.57126   0.00000  Uiso   1.00
H864   H     0.88585   0.92503   0.56128   0.00000  Uiso   1.00
O865   O     0.10559   0.20487   0.83333   0.00000  Uiso   1.00
O866   O     0.22774   0.12846   0.83334   0.00000  Uiso   1.00
O867   O     0.22774   0.20487   0.83334   0.00000  Uiso   1.00
O868   O     0.10559   0.12846   0.83333   0.00000  Uiso   1.00
C869   C     0.08694   0.16638   0.83331   0.00000  Uiso   1.00
C870   C     0.24640   0.16696   0.83335   0.00000  Uiso   1.00
O871   O     0.16667   0.20488   0.76178   0.00000  Uiso   1.00
O872   O     0.16666   0.12845   0.90489   0.00000  Uiso   1.00
O873   O     0.16666   0.20488   0.90489   0.00000  Uiso   1.00
O874   O     0.16667   0.12845   0.76178   0.00000  Uiso   1.00
C875   C     0.16689   0.16670   0.73971   0.00000  Uiso   1.00
C876   C     0.16645   0.16664   0.92696   0.00000  Uiso   1.00
Zn877  Zn    0.16667   0.21771   0.83333   0.00000  Uiso   1.00
Zn878  Zn    0.16667   0.11563   0.83333   0.00000  Uiso   1.00
C879   C     0.16676   0.16671   0.68849   0.00000  Uiso   1.00
C880   C     0.16657   0.16663   0.97818   0.00000  Uiso   1.00
C881   C     0.02298   0.14782   0.87418   0.00000  Uiso   1.00
C882   C     0.31036   0.18551   0.79248   0.00000  Uiso   1.00
C883   C     0.31300   0.14926   0.87521   0.00000  Uiso   1.00
C884   C     0.02034   0.18408   0.79145   0.00000  Uiso   1.00
C885   C     0.29064   0.16793   0.83415   0.00000  Uiso   1.00
C886   C     0.04269   0.16540   0.83251   0.00000  Uiso   1.00
C887   C     0.19005   0.02377   0.86847   0.00000  Uiso   1.00
C888   C     0.14328   0.30956   0.79820   0.00000  Uiso   1.00
C889   C     0.14322   0.02349   0.79826   0.00000  Uiso   1.00
C890   C     0.19011   0.30984   0.86840   0.00000  Uiso   1.00
N891   N     0.16667   0.28573   0.83333   0.00000  Uiso   1.00
N892   N     0.16667   0.04760   0.83333   0.00000  Uiso   1.00
N893   N     0.04708   0.13189   0.91691   0.00000  Uiso   1.00
O894   O     0.04531   0.15241   0.95953   0.00000  Uiso   1.00
O895   O     0.06652   0.09405   0.91487   0.00000  Uiso   1.00
N896   N     0.28626   0.20143   0.74974   0.00000  Uiso   1.00
O897   O     0.28808   0.18095   0.70711   0.00000  Uiso   1.00
O898   O     0.26678   0.23925   0.75179   0.00000  Uiso   1.00
N899   N     0.29187   0.13224   0.91783   0.00000  Uiso   1.00
O900   O     0.30236   0.09403   0.93755   0.00000  Uiso   1.00
O901   O     0.26323   0.15575   0.93834   0.00000  Uiso   1.00
N902   N     0.04146   0.20110   0.74884   0.00000  Uiso   1.00
O903   O     0.03098   0.23932   0.72913   0.00000  Uiso   1.00
O904   O     0.07010   0.17760   0.72832   0.00000  Uiso   1.00
O905   O     0.21482   0.04448   0.90491   0.00000  Uiso   1.00
H906   H     0.21845   0.07580   0.89546   0.00000  Uiso   1.00
O907   O     0.11851   0.28885   0.76176   0.00000  Uiso   1.00
H908   H     0.11489   0.25753   0.77121   0.00000  Uiso   1.00
O909   O     0.11826   0.04394   0.76208   0.00000  Uiso   1.00
H910   H     0.11415   0.07497   0.77205   0.00000  Uiso   1.00
O911   O     0.21508   0.28940   0.90459   0.00000  Uiso   1.00
H912   H     0.21918   0.25836   0.89462   0.00000  Uiso   1.00
O913   O     0.43892   0.20487   0.83333   0.00000  Uiso   1.00
O914   O     0.56108   0.12846   0.83334   0.00000  Uiso   1.00
O915   O     0.56108   0.20487   0.83334   0.00000  Uiso   1.00
O916   O     0.43892   0.12846   0.83333   0.00000  Uiso   1.00
C917   C     0.42027   0.16638   0.83331   0.00000  Uiso   1.00
C918   C     0.57973   0.16696   0.83335   0.00000  Uiso   1.00
O919   O     0.50000   0.20488   0.76178   0.00000  Uiso   1.00
O920   O     0.50000   0.12845   0.90489   0.00000  Uiso   1.00
O921   O     0.50000   0.20488   0.90489   0.00000  Uiso   1.00
O922   O     0.50000   0.12845   0.76178   0.00000  Uiso   1.00
C923   C     0.50022   0.16670   0.73971   0.00000  Uiso   1.00
C924   C     0.49978   0.16664   0.92696   0.00000  Uiso   1.00
Zn925  Zn    0.50000   0.21771   0.83333   0.00000  Uiso   1.00
Zn926  Zn    0.50000   0.11563   0.83333   0.00000  Uiso   1.00
C927   C     0.50010   0.16671   0.68849   0.00000  Uiso   1.00
C928   C     0.49990   0.16663   0.97818   0.00000  Uiso   1.00
C929   C     0.35631   0.14782   0.87418   0.00000  Uiso   1.00
C930   C     0.64369   0.18551   0.79248   0.00000  Uiso   1.00
C931   C     0.64633   0.14926   0.87521   0.00000  Uiso   1.00
C932   C     0.35367   0.18408   0.79145   0.00000  Uiso   1.00
C933   C     0.62398   0.16793   0.83415   0.00000  Uiso   1.00
C934   C     0.37602   0.16540   0.83251   0.00000  Uiso   1.00
C935   C     0.52339   0.02377   0.86847   0.00000  Uiso   1.00
C936   C     0.47661   0.30956   0.79820   0.00000  Uiso   1.00
C937   C     0.47656   0.02349   0.79826   0.00000  Uiso   1.00
C938   C     0.52345   0.30984   0.86840   0.00000  Uiso   1.00
N939   N     0.50000   0.28573   0.83333   0.00000  Uiso   1.00
N940   N     0.50000   0.04760   0.83333   0.00000  Uiso   1.00
N941   N     0.38041   0.13189   0.91691   0.00000  Uiso   1.00
O942   O     0.37864   0.15241   0.95953   0.00000  Uiso   1.00
O943   O     0.39985   0.09405   0.91487   0.00000  Uiso   1.00
N944   N     0.61959   0.20143   0.74974   0.00000  Uiso   1.00
O945   O     0.62141   0.18095   0.70711   0.00000  Uiso   1.00
O946   O     0.60011   0.23925   0.75179   0.00000  Uiso   1.00
N947   N     0.62520   0.13224   0.91783   0.00000  Uiso   1.00
O948   O     0.63569   0.09403   0.93755   0.00000  Uiso   1.00
O949   O     0.59657   0.15575   0.93834   0.00000  Uiso   1.00
N950   N     0.37480   0.20110   0.74884   0.00000  Uiso   1.00
O951   O     0.36431   0.23932   0.72913   0.00000  Uiso   1.00
O952   O     0.40344   0.17760   0.72832   0.00000  Uiso   1.00
O953   O     0.54815   0.04448   0.90491   0.00000  Uiso   1.00
H954   H     0.55178   0.07580   0.89546   0.00000  Uiso   1.00
O955   O     0.45185   0.28885   0.76176   0.00000  Uiso   1.00
H956   H     0.44822   0.25753   0.77121   0.00000  Uiso   1.00
O957   O     0.45159   0.04394   0.76208   0.00000  Uiso   1.00
H958   H     0.44749   0.07497   0.77205   0.00000  Uiso   1.00
O959   O     0.54841   0.28940   0.90459   0.00000  Uiso   1.00
H960   H     0.55252   0.25836   0.89462   0.00000  Uiso   1.00
O961   O     0.77226   0.20487   0.83333   0.00000  Uiso   1.00
O962   O     0.89441   0.12846   0.83334   0.00000  Uiso   1.00
O963   O     0.89441   0.20487   0.83334   0.00000  Uiso   1.00
O964   O     0.77226   0.12846   0.83333   0.00000  Uiso   1.00
C965   C     0.75360   0.16638   0.83331   0.00000  Uiso   1.00
C966   C     0.91306   0.16696   0.83335   0.00000  Uiso   1.00
O967   O     0.83334   0.20488   0.76178   0.00000  Uiso   1.00
O968   O     0.83333   0.12845   0.90489   0.00000  Uiso   1.00
O969   O     0.83333   0.20488   0.90489   0.00000  Uiso   1.00
O970   O     0.83334   0.12845   0.76178   0.00000  Uiso   1.00
C971   C     0.83355   0.16670   0.73971   0.00000  Uiso   1.00
C972   C     0.83311   0.16664   0.92696   0.00000  Uiso   1.00
Zn973  Zn    0.83333   0.21771   0.83333   0.00000  Uiso   1.00
Zn974  Zn    0.83333   0.11563   0.83333   0.00000  Uiso   1.00
C975   C     0.83343   0.16671   0.68849   0.00000  Uiso   1.00
C976   C     0.83324   0.16663   0.97818   0.00000  Uiso   1.00
C977   C     0.68964   0.14782   0.87418   0.00000  Uiso   1.00
C978   C     0.97702   0.18551   0.79248   0.00000  Uiso   1.00
C979   C     0.97967   0.14926   0.87521   0.00000  Uiso   1.00
C980   C     0.68700   0.18408   0.79145   0.00000  Uiso   1.00
C981   C     0.95731   0.16793   0.83415   0.00000  Uiso   1.00
C982   C     0.70936   0.16540   0.83251   0.00000  Uiso   1.00
C983   C     0.85672   0.02377   0.86847   0.00000  Uiso   1.00
C984   C     0.80995   0.30956   0.79820   0.00000  Uiso   1.00
C985   C     0.80989   0.02349   0.79826   0.00000  Uiso   1.00
C986   C     0.85678   0.30984   0.86840   0.00000  Uiso   1.00
N987   N     0.83333   0.28573   0.83333   0.00000  Uiso   1.00
N988   N     0.83333   0.04760   0.83333   0.00000  Uiso   1.00
N989   N     0.71374   0.13189   0.91691   0.00000  Uiso   1.00
O990   O     0.71197   0.15241   0.95953   0.00000  Uiso   1.00
O991   O     0.73318   0.09405   0.91487   0.00000  Uiso   1.00
N992   N     0.95293   0.20143   0.74974   0.00000  Uiso   1.00
O993   O     0.95475   0.18095   0.70711   0.00000  Uiso   1.00
O994   O     0.93345   0.23925   0.75179   0.00000  Uiso   1.00
N995   N     0.95854   0.13224   0.91783   0.00000  Uiso   1.00
O996   O     0.96903   0.09403   0.93755   0.00000  Uiso   1.00
O997   O     0.92990   0.15575   0.93834   0.00000  Uiso   1.00
N998   N     0.70813   0.20110   0.74884   0.00000  Uiso   1.00
O999   O     0.69765   0.23932   0.72913   0.00000  Uiso   1.00
O1000  O     0.73677   0.17760   0.72832   0.00000  Uiso   1.00
O1001  O     0.88149   0.04448   0.90491   0.00000  Uiso   1.00
H1002  H     0.88511   0.07580   0.89546   0.00000  Uiso   1.00
O1003  O     0.78518   0.28885   0.76176   0.00000  Uiso   1.00
H1004  H     0.78155   0.25753   0.77121   0.00000  Uiso   1.00
O1005  O     0.78492   0.04394   0.76208   0.00000  Uiso   1.00
H1006  H     0.78082   0.07497   0.77205   0.00000  Uiso   1.00
O1007  O     0.88174   0.28940   0.90459   0.00000  Uiso   1.00
H1008  H     0.88585   0.25836   0.89462   0.00000  Uiso   1.00
O1009  O     0.10559   0.53821   0.83333   0.00000  Uiso   1.00
O1010  O     0.22774   0.46179   0.83334   0.00000  Uiso   1.00
O1011  O     0.22774   0.53821   0.83334   0.00000  Uiso   1.00
O1012  O     0.10559   0.46179   0.83333   0.00000  Uiso   1.00
C1013  C     0.08694   0.49971   0.83331   0.00000  Uiso   1.00
C1014  C     0.24640   0.50029   0.83335   0.00000  Uiso   1.00
O1015  O     0.16667   0.53821   0.76178   0.00000  Uiso   1.00
O1016  O     0.16666   0.46179   0.90489   0.00000  Uiso   1.00
O1017  O     0.16666   0.53821   0.90489   0.00000  Uiso   1.00
O1018  O     0.16667   0.46179   0.76178   0.00000  Uiso   1.00
C1019  C     0.16689   0.50003   0.73971   0.00000  Uiso   1.00
C1020  C     0.16645   0.49997   0.92696   0.00000  Uiso   1.00
Zn1021 Zn    0.16667   0.55104   0.83333   0.00000  Uiso   1.00
Zn1022 Zn    0.16667   0.44896   0.83333   0.00000  Uiso   1.00
C1023  C     0.16676   0.50004   0.68849   0.00000  Uiso   1.00
C1024  C     0.16657   0.49996   0.97818   0.00000  Uiso   1.00
C1025  C     0.02298   0.48115   0.87418   0.00000  Uiso   1.00
C1026  C     0.31036   0.51884   0.79248   0.00000  Uiso   1.00
C1027  C     0.31300   0.48259   0.87521   0.00000  Uiso   1.00
C1028  C     0.02034   0.51741   0.79145   0.00000  Uiso   1.00
C1029  C     0.29064   0.50127   0.83415   0.00000  Uiso   1.00
C1030  C     0.04269   0.49874   0.83251   0.00000  Uiso   1.00
C1031  C     0.19005   0.35710   0.86847   0.00000  Uiso   1.00
C1032  C     0.14328   0.64290   0.79820   0.00000  Uiso   1.00
C1033  C     0.14322   0.35682   0.79826   0.00000  Uiso   1.00
C1034  C     0.19011   0.64318   0.86840   0.00000  Uiso   1.00
N1035  N     0.16667   0.61907   0.83333   0.00000  Uiso   1.00
N1036  N     0.16667   0.38093   0.83333   0.00000  Uiso   1.00
N1037  N     0.04708   0.46522   0.91691   0.00000  Uiso   1.00
O1038  O     0.04531   0.48574   0.95953   0.00000  Uiso   1.00
O1039  O     0.06652   0.42739   0.91487   0.00000  Uiso   1.00
N1040  N     0.28626   0.53477   0.74974   0.00000  Uiso   1.00
O1041  O     0.28808   0.51429   0.70711   0.00000  Uiso   1.00
O1042  O     0.26678   0.57258   0.75179   0.00000  Uiso   1.00
N1043  N     0.29187   0.46557   0.91783   0.00000  Uiso   1.00
O1044  O     0.30236   0.42736   0.93755   0.00000  Uiso   1.00
O1045  O     0.26323   0.48908   0.93834   0.00000  Uiso   1.00
N1046  N     0.04146   0.53444   0.74884   0.00000  Uiso   1.00
O1047  O     0.03098   0.57265   0.72913   0.00000  Uiso   1.00
O1048  O     0.07010   0.51093   0.72832   0.00000  Uiso   1.00
O1049  O     0.21482   0.37781   0.90491   0.00000  Uiso   1.00
H1050  H     0.21845   0.40914   0.89546   0.00000  Uiso   1.00
O1051  O     0.11851   0.62219   0.76176   0.00000  Uiso   1.00
H1052  H     0.11489   0.59087   0.77121   0.00000  Uiso   1.00
O1053  O     0.11826   0.37727   0.76208   0.00000  Uiso   1.00
H1054  H     0.11415   0.40831   0.77205   0.00000  Uiso   1.00
O1055  O     0.21508   0.62273   0.90459   0.00000  Uiso   1.00
H1056  H     0.21918   0.59169   0.89462   0.00000  Uiso   1.00
O1057  O     0.43892   0.53821   0.83333   0.00000  Uiso   1.00
O1058  O     0.56108   0.46179   0.83334   0.00000  Uiso   1.00
O1059  O     0.56108   0.53821   0.83334   0.00000  Uiso   1.00
O1060  O     0.43892   0.46179   0.83333   0.00000  Uiso   1.00
C1061  C     0.42027   0.49971   0.83331   0.00000  Uiso   1.00
C1062  C     0.57973   0.50029   0.83335   0.00000  Uiso   1.00
O1063  O     0.50000   0.53821   0.76178   0.00000  Uiso   1.00
O1064  O     0.50000   0.46179   0.90489   0.00000  Uiso   1.00
O1065  O     0.50000   0.53821   0.90489   0.00000  Uiso   1.00
O1066  O     0.50000   0.46179   0.76178   0.00000  Uiso   1.00
C1067  C     0.50022   0.50003   0.73971   0.00000  Uiso   1.00
C1068  C     0.49978   0.49997   0.92696   0.00000  Uiso   1.00
Zn1069 Zn    0.50000   0.55104   0.83333   0.00000  Uiso   1.00
Zn1070 Zn    0.50000   0.44896   0.83333   0.00000  Uiso   1.00
C1071  C     0.50010   0.50004   0.68849   0.00000  Uiso   1.00
C1072  C     0.49990   0.49996   0.97818   0.00000  Uiso   1.00
C1073  C     0.35631   0.48115   0.87418   0.00000  Uiso   1.00
C1074  C     0.64369   0.51884   0.79248   0.00000  Uiso   1.00
C1075  C     0.64633   0.48259   0.87521   0.00000  Uiso   1.00
C1076  C     0.35367   0.51741   0.79145   0.00000  Uiso   1.00
C1077  C     0.62398   0.50127   0.83415   0.00000  Uiso   1.00
C1078  C     0.37602   0.49874   0.83251   0.00000  Uiso   1.00
C1079  C     0.52339   0.35710   0.86847   0.00000  Uiso   1.00
C1080  C     0.47661   0.64290   0.79820   0.00000  Uiso   1.00
C1081  C     0.47656   0.35682   0.79826   0.00000  Uiso   1.00
C1082  C     0.52345   0.64318   0.86840   0.00000  Uiso   1.00
N1083  N     0.50000   0.61907   0.83333   0.00000  Uiso   1.00
N1084  N     0.50000   0.38093   0.83333   0.00000  Uiso   1.00
N1085  N     0.38041   0.46522   0.91691   0.00000  Uiso   1.00
O1086  O     0.37864   0.48574   0.95953   0.00000  Uiso   1.00
O1087  O     0.39985   0.42739   0.91487   0.00000  Uiso   1.00
N1088  N     0.61959   0.53477   0.74974   0.00000  Uiso   1.00
O1089  O     0.62141   0.51429   0.70711   0.00000  Uiso   1.00
O1090  O     0.60011   0.57258   0.75179   0.00000  Uiso   1.00
N1091  N     0.62520   0.46557   0.91783   0.00000  Uiso   1.00
O1092  O     0.63569   0.42736   0.93755   0.00000  Uiso   1.00
O1093  O     0.59657   0.48908   0.93834   0.00000  Uiso   1.00
N1094  N     0.37480   0.53444   0.74884   0.00000  Uiso   1.00
O1095  O     0.36431   0.57265   0.72913   0.00000  Uiso   1.00
O1096  O     0.40344   0.51093   0.72832   0.00000  Uiso   1.00
O1097  O     0.54815   0.37781   0.90491   0.00000  Uiso   1.00
H1098  H     0.55178   0.40914   0.89546   0.00000  Uiso   1.00
O1099  O     0.45185   0.62219   0.76176   0.00000  Uiso   1.00
H1100  H     0.44822   0.59087   0.77121   0.00000  Uiso   1.00
O1101  O     0.45159   0.37727   0.76208   0.00000  Uiso   1.00
H1102  H     0.44749   0.40831   0.77205   0.00000  Uiso   1.00
O1103  O     0.54841   0.62273   0.90459   0.00000  Uiso   1.00
H1104  H     0.55252   0.59169   0.89462   0.00000  Uiso   1.00
O1105  O     0.77226   0.53821   0.83333   0.00000  Uiso   1.00
O1106  O     0.89441   0.46179   0.83334   0.00000  Uiso   1.00
O1107  O     0.89441   0.53821   0.83334   0.00000  Uiso   1.00
O1108  O     0.77226   0.46179   0.83333   0.00000  Uiso   1.00
C1109  C     0.75360   0.49971   0.83331   0.00000  Uiso   1.00
C1110  C     0.91306   0.50029   0.83335   0.00000  Uiso   1.00
O1111  O     0.83334   0.53821   0.76178   0.00000  Uiso   1.00
O1112  O     0.83333   0.46179   0.90489   0.00000  Uiso   1.00
O1113  O     0.83333   0.53821   0.90489   0.00000  Uiso   1.00
O1114  O     0.83334   0.46179   0.76178   0.00000  Uiso   1.00
C1115  C     0.83355   0.50003   0.73971   0.00000  Uiso   1.00
C1116  C     0.83311   0.49997   0.92696   0.00000  Uiso   1.00
Zn1117 Zn    0.83333   0.55104   0.83333   0.00000  Uiso   1.00
Zn1118 Zn    0.83333   0.44896   0.83333   0.00000  Uiso   1.00
C1119  C     0.83343   0.50004   0.68849   0.00000  Uiso   1.00
C1120  C     0.83324   0.49996   0.97818   0.00000  Uiso   1.00
C1121  C     0.68964   0.48115   0.87418   0.00000  Uiso   1.00
C1122  C     0.97702   0.51884   0.79248   0.00000  Uiso   1.00
C1123  C     0.97967   0.48259   0.87521   0.00000  Uiso   1.00
C1124  C     0.68700   0.51741   0.79145   0.00000  Uiso   1.00
C1125  C     0.95731   0.50127   0.83415   0.00000  Uiso   1.00
C1126  C     0.70936   0.49874   0.83251   0.00000  Uiso   1.00
C1127  C     0.85672   0.35710   0.86847   0.00000  Uiso   1.00
C1128  C     0.80995   0.64290   0.79820   0.00000  Uiso   1.00
C1129  C     0.80989   0.35682   0.79826   0.00000  Uiso   1.00
C1130  C     0.85678   0.64318   0.86840   0.00000  Uiso   1.00
N1131  N     0.83333   0.61907   0.83333   0.00000  Uiso   1.00
N1132  N     0.83333   0.38093   0.83333   0.00000  Uiso   1.00
N1133  N     0.71374   0.46522   0.91691   0.00000  Uiso   1.00
O1134  O     0.71197   0.48574   0.95953   0.00000  Uiso   1.00
O1135  O     0.73318   0.42739   0.91487   0.00000  Uiso   1.00
N1136  N     0.95293   0.53477   0.74974   0.00000  Uiso   1.00
O1137  O     0.95475   0.51429   0.70711   0.00000  Uiso   1.00
O1138  O     0.93345   0.57258   0.75179   0.00000  Uiso   1.00
N1139  N     0.95854   0.46557   0.91783   0.00000  Uiso   1.00
O1140  O     0.96903   0.42736   0.93755   0.00000  Uiso   1.00
O1141  O     0.92990   0.48908   0.93834   0.00000  Uiso   1.00
N1142  N     0.70813   0.53444   0.74884   0.00000  Uiso   1.00
O1143  O     0.69765   0.57265   0.72913   0.00000  Uiso   1.00
O1144  O     0.73677   0.51093   0.72832   0.00000  Uiso   1.00
O1145  O     0.88149   0.37781   0.90491   0.00000  Uiso   1.00
H1146  H     0.88511   0.40914   0.89546   0.00000  Uiso   1.00
O1147  O     0.78518   0.62219   0.76176   0.00000  Uiso   1.00
H1148  H     0.78155   0.59087   0.77121   0.00000  Uiso   1.00
O1149  O     0.78492   0.37727   0.76208   0.00000  Uiso   1.00
H1150  H     0.78082   0.40831   0.77205   0.00000  Uiso   1.00
O1151  O     0.88174   0.62273   0.90459   0.00000  Uiso   1.00
H1152  H     0.88585   0.59169   0.89462   0.00000  Uiso   1.00
O1153  O     0.10559   0.87154   0.83333   0.00000  Uiso   1.00
O1154  O     0.22774   0.79513   0.83334   0.00000  Uiso   1.00
O1155  O     0.22774   0.87154   0.83334   0.00000  Uiso   1.00
O1156  O     0.10559   0.79513   0.83333   0.00000  Uiso   1.00
C1157  C     0.08694   0.83304   0.83331   0.00000  Uiso   1.00
C1158  C     0.24640   0.83362   0.83335   0.00000  Uiso   1.00
O1159  O     0.16667   0.87155   0.76178   0.00000  Uiso   1.00
O1160  O     0.16666   0.79512   0.90489   0.00000  Uiso   1.00
O1161  O     0.16666   0.87155   0.90489   0.00000  Uiso   1.00
O1162  O     0.16667   0.79512   0.76178   0.00000  Uiso   1.00
C1163  C     0.16689   0.83336   0.73971   0.00000  Uiso   1.00
C1164  C     0.16645   0.83330   0.92696   0.00000  Uiso   1.00
Zn1165 Zn    0.16667   0.88437   0.83333   0.00000  Uiso   1.00
Zn1166 Zn    0.16667   0.78229   0.83333   0.00000  Uiso   1.00
C1167  C     0.16676   0.83337   0.68849   0.00000  Uiso   1.00
C1168  C     0.16657   0.83329   0.97818   0.00000  Uiso   1.00
C1169  C     0.02298   0.81449   0.87418   0.00000  Uiso   1.00
C1170  C     0.31036   0.85218   0.79248   0.00000  Uiso   1.00
C1171  C     0.31300   0.81592   0.87521   0.00000  Uiso   1.00
C1172  C     0.02034   0.85075   0.79145   0.00000  Uiso   1.00
C1173  C     0.29064   0.83460   0.83415   0.00000  Uiso   1.00
C1174  C     0.04269   0.83207   0.83251   0.00000  Uiso   1.00
C1175  C     0.19005   0.69044   0.86847   0.00000  Uiso   1.00
C1176  C     0.14328   0.97623   0.79820   0.00000  Uiso   1.00
C1177  C     0.14322   0.69016   0.79826   0.00000  Uiso   1.00
C1178  C     0.19011   0.97651   0.86840   0.00000  Uiso   1.00
N1179  N     0.16667   0.95240   0.83333   0.00000  Uiso   1.00
N1180  N     0.16667   0.71427   0.83333   0.00000  Uiso   1.00
N1181  N     0.04708   0.79856   0.91691   0.00000  Uiso   1.00
O1182  O     0.04531   0.81907   0.95953   0.00000  Uiso   1.00
O1183  O     0.06652   0.76072   0.91487   0.00000  Uiso   1.00
N1184  N     0.28626   0.86810   0.74974   0.00000  Uiso   1.00
O1185  O     0.28808   0.84762   0.70711   0.00000  Uiso   1.00
O1186  O     0.26678   0.90591   0.75179   0.00000  Uiso   1.00
N1187  N     0.29187   0.79891   0.91783   0.00000  Uiso   1.00
O1188  O     0.30236   0.76070   0.93755   0.00000  Uiso   1.00
O1189  O     0.26323   0.82242   0.93834   0.00000  Uiso   1.00
N1190  N     0.04146   0.86777   0.74884   0.00000  Uiso   1.00
O1191  O     0.03098   0.90599   0.72913   0.00000  Uiso   1.00
O1192  O     0.07010   0.84426   0.72832   0.00000  Uiso   1.00
O1193  O     0.21482   0.71115   0.90491   0.00000  Uiso   1.00
H1194  H     0.21845   0.74247   0.89546   0.00000  Uiso   1.00
O1195  O     0.11851   0.95552   0.76176   0.00000  Uiso   1.00
H1196  H     0.11489   0.92420   0.77121   0.00000  Uiso   1.00
O1197  O     0.11826   0.71060   0.76208   0.00000  Uiso   1.00
H1198  H     0.11415   0.74164   0.77205   0.00000  Uiso   1.00
O1199  O     0.21508   0.95606   0.90459   0.00000  Uiso   1.00
H1200  H     0.21918   0.92503   0.89462   0.00000  Uiso   1.00
O1201  O     0.43892   0.87154   0.83333   0.00000  Uiso   1.00
O1202  O     0.56108   0.79513   0.83334   0.00000  Uiso   1.00
O1203  O     0.56108   0.87154   0.83334   0.00000  Uiso   1.00
O1204  O     0.43892   0.79513   0.83333   0.00000  Uiso   1.00
C1205  C     0.42027   0.83304   0.83331   0.00000  Uiso   1.00
C1206  C     0.57973   0.83362   0.83335   0.00000  Uiso   1.00
O1207  O     0.50000   0.87155   0.76178   0.00000  Uiso   1.00
O1208  O     0.50000   0.79512   0.90489   0.00000  Uiso   1.00
O1209  O     0.50000   0.87155   0.90489   0.00000  Uiso   1.00
O1210  O     0.50000   0.79512   0.76178   0.00000  Uiso   1.00
C1211  C     0.50022   0.83336   0.73971   0.00000  Uiso   1.00
C1212  C     0.49978   0.83330   0.92696   0.00000  Uiso   1.00
Zn1213 Zn    0.50000   0.88437   0.83333   0.00000  Uiso   1.00
Zn1214 Zn    0.50000   0.78229   0.83333   0.00000  Uiso   1.00
C1215  C     0.50010   0.83337   0.68849   0.00000  Uiso   1.00
C1216  C     0.49990   0.83329   0.97818   0.00000  Uiso   1.00
C1217  C     0.35631   0.81449   0.87418   0.00000  Uiso   1.00
C1218  C     0.64369   0.85218   0.79248   0.00000  Uiso   1.00
C1219  C     0.64633   0.81592   0.87521   0.00000  Uiso   1.00
C1220  C     0.35367   0.85075   0.79145   0.00000  Uiso   1.00
C1221  C     0.62398   0.83460   0.83415   0.00000  Uiso   1.00
C1222  C     0.37602   0.83207   0.83251   0.00000  Uiso   1.00
C1223  C     0.52339   0.69044   0.86847   0.00000  Uiso   1.00
C1224  C     0.47661   0.97623   0.79820   0.00000  Uiso   1.00
C1225  C     0.47656   0.69016   0.79826   0.00000  Uiso   1.00
C1226  C     0.52345   0.97651   0.86840   0.00000  Uiso   1.00
N1227  N     0.50000   0.95240   0.83333   0.00000  Uiso   1.00
N1228  N     0.50000   0.71427   0.83333   0.00000  Uiso   1.00
N1229  N     0.38041   0.79856   0.91691   0.00000  Uiso   1.00
O1230  O     0.37864   0.81907   0.95953   0.00000  Uiso   1.00
O1231  O     0.39985   0.76072   0.91487   0.00000  Uiso   1.00
N1232  N     0.61959   0.86810   0.74974   0.00000  Uiso   1.00
O1233  O     0.62141   0.84762   0.70711   0.00000  Uiso   1.00
O1234  O     0.60011   0.90591   0.75179   0.00000  Uiso   1.00
N1235  N     0.62520   0.79891   0.91783   0.00000  Uiso   1.00
O1236  O     0.63569   0.76070   0.93755   0.00000  Uiso   1.00
O1237  O     0.59657   0.82242   0.93834   0.00000  Uiso   1.00
N1238  N     0.37480   0.86777   0.74884   0.00000  Uiso   1.00
O1239  O     0.36431   0.90599   0.72913   0.00000  Uiso   1.00
O1240  O     0.40344   0.84426   0.72832   0.00000  Uiso   1.00
O1241  O     0.54815   0.71115   0.90491   0.00000  Uiso   1.00
H1242  H     0.55178   0.74247   0.89546   0.00000  Uiso   1.00
O1243  O     0.45185   0.95552   0.76176   0.00000  Uiso   1.00
H1244  H     0.44822   0.92420   0.77121   0.00000  Uiso   1.00
O1245  O     0.45159   0.71060   0.76208   0.00000  Uiso   1.00
H1246  H     0.44749   0.74164   0.77205   0.00000  Uiso   1.00
O1247  O     0.54841   0.95606   0.90459   0.00000  Uiso   1.00
H1248  H     0.55252   0.92503   0.89462   0.00000  Uiso   1.00
O1249  O     0.77226   0.87154   0.83333   0.00000  Uiso   1.00
O1250  O     0.89441   0.79513   0.83334   0.00000  Uiso   1.00
O1251  O     0.89441   0.87154   0.83334   0.00000  Uiso   1.00
O1252  O     0.77226   0.79513   0.83333   0.00000  Uiso   1.00
C1253  C     0.75360   0.83304   0.83331   0.00000  Uiso   1.00
C1254  C     0.91306   0.83362   0.83335   0.00000  Uiso   1.00
O1255  O     0.83334   0.87155   0.76178   0.00000  Uiso   1.00
O1256  O     0.83333   0.79512   0.90489   0.00000  Uiso   1.00
O1257  O     0.83333   0.87155   0.90489   0.00000  Uiso   1.00
O1258  O     0.83334   0.79512   0.76178   0.00000  Uiso   1.00
C1259  C     0.83355   0.83336   0.73971   0.00000  Uiso   1.00
C1260  C     0.83311   0.83330   0.92696   0.00000  Uiso   1.00
Zn1261 Zn    0.83333   0.88437   0.83333   0.00000  Uiso   1.00
Zn1262 Zn    0.83333   0.78229   0.83333   0.00000  Uiso   1.00
C1263  C     0.83343   0.83337   0.68849   0.00000  Uiso   1.00
C1264  C     0.83324   0.83329   0.97818   0.00000  Uiso   1.00
C1265  C     0.68964   0.81449   0.87418   0.00000  Uiso   1.00
C1266  C     0.97702   0.85218   0.79248   0.00000  Uiso   1.00
C1267  C     0.97967   0.81592   0.87521   0.00000  Uiso   1.00
C1268  C     0.68700   0.85075   0.79145   0.00000  Uiso   1.00
C1269  C     0.95731   0.83460   0.83415   0.00000  Uiso   1.00
C1270  C     0.70936   0.83207   0.83251   0.00000  Uiso   1.00
C1271  C     0.85672   0.69044   0.86847   0.00000  Uiso   1.00
C1272  C     0.80995   0.97623   0.79820   0.00000  Uiso   1.00
C1273  C     0.80989   0.69016   0.79826   0.00000  Uiso   1.00
C1274  C     0.85678   0.97651   0.86840   0.00000  Uiso   1.00
N1275  N     0.83333   0.95240   0.83333   0.00000  Uiso   1.00
N1276  N     0.83333   0.71427   0.83333   0.00000  Uiso   1.00
N1277  N     0.71374   0.79856   0.91691   0.00000  Uiso   1.00
O1278  O     0.71197   0.81907   0.95953   0.00000  Uiso   1.00
O1279  O     0.73318   0.76072   0.91487   0.00000  Uiso   1.00
N1280  N     0.95293   0.86810   0.74974   0.00000  Uiso   1.00
O1281  O     0.95475   0.84762   0.70711   0.00000  Uiso   1.00
O1282  O     0.93345   0.90591   0.75179   0.00000  Uiso   1.00
N1283  N     0.95854   0.79891   0.91783   0.00000  Uiso   1.00
O1284  O     0.96903   0.76070   0.93755   0.00000  Uiso   1.00
O1285  O     0.92990   0.82242   0.93834   0.00000  Uiso   1.00
N1286  N     0.70813   0.86777   0.74884   0.00000  Uiso   1.00
O1287  O     0.69765   0.90599   0.72913   0.00000  Uiso   1.00
O1288  O     0.73677   0.84426   0.72832   0.00000  Uiso   1.00
O1289  O     0.88149   0.71115   0.90491   0.00000  Uiso   1.00
H1290  H     0.88511   0.74247   0.89546   0.00000  Uiso   1.00
O1291  O     0.78518   0.95552   0.76176   0.00000  Uiso   1.00
H1292  H     0.78155   0.92420   0.77121   0.00000  Uiso   1.00
O1293  O     0.78492   0.71060   0.76208   0.00000  Uiso   1.00
H1294  H     0.78082   0.74164   0.77205   0.00000  Uiso   1.00
O1295  O     0.88174   0.95606   0.90459   0.00000  Uiso   1.00
H1296  H     0.88585   0.92503   0.89462   0.00000  Uiso   1.00
loop_
_geom_bond_atom_site_label_1
_geom_bond_atom_site_label_2
_geom_bond_distance
_geom_bond_site_symmetry_2
_ccdc_geom_bond_type
O1     Zn13    1.985   .     S
O1     C5      1.294   .     A
O2     C6      1.294   .     A
O2     Zn14    1.985   .     S
O3     Zn13    1.992   .     S
O3     C6      1.289   .     A
O4     Zn14    1.992   .     S
O4     C5      1.289   .     A
C5     C22     1.413   .     S
C6     C21     1.413   .     S
O7     C11     1.289   .     A
O7     Zn13    1.954   .     S
O8     C12     1.289   .     A
O8     Zn14    1.954   .     S
O9     C12     1.289   .     A
O9     Zn13    1.952   .     S
O10    C11     1.289   .     A
O10    Zn14    1.952   .     S
C11    C15     1.371   .     S
C12    C16     1.371   .     S
Zn13   N27     2.039   .     S
Zn14   N28     2.039   .     S
C15    C880    1.168   1_554 S
C16    C447    1.168   .     S
C17    C22     1.403   .     A
C17    N29     1.435   .     S
C17    C115    1.386   1_455 S
C18    C21     1.403   .     A
C18    N32     1.435   .     S
C18    C68     1.386   .     S
C19    N35     1.439   .     S
C19    C21     1.404   .     A
C19    C65     1.386   .     S
C20    N38     1.439   .     S
C20    C22     1.404   .     A
C20    C114    1.386   1_455 S
C23    N28     1.379   .     A
C23    O41     1.375   .     S
C23    C314    1.417   1_545 S
C24    N27     1.379   .     A
C24    O43     1.375   .     S
C24    C169    1.417   .     S
C25    N28     1.378   .     A
C25    O45     1.376   .     S
C25    C312    1.417   1_545 S
C26    N27     1.378   .     A
C26    O47     1.376   .     S
C26    C167    1.417   .     S
N29    O30     1.301   .     A
N29    O31     1.301   .     A
N32    O33     1.300   .     A
N32    O34     1.301   .     A
N35    O37     1.300   .     A
N35    O36     1.301   .     A
N38    O40     1.300   .     A
N38    O39     1.301   .     A
O41    H42     0.979   .     S
O43    H44     0.979   .     S
O45    H46     0.980   .     S
O47    H48     0.980   .     S
O49    Zn61    1.985   .     S
O49    C53     1.294   .     A
O50    C54     1.294   .     A
O50    Zn62    1.985   .     S
O51    Zn61    1.992   .     S
O51    C54     1.289   .     A
O52    Zn62    1.992   .     S
O52    C53     1.289   .     A
C53    C70     1.413   .     S
C54    C69     1.413   .     S
O55    C59     1.289   .     A
O55    Zn61    1.954   .     S
O56    C60     1.289   .     A
O56    Zn62    1.954   .     S
O57    C60     1.289   .     A
O57    Zn61    1.952   .     S
O58    C59     1.289   .     A
O58    Zn62    1.952   .     S
C59    C63     1.371   .     S
C60    C64     1.371   .     S
Zn61   N75     2.039   .     S
Zn62   N76     2.039   .     S
C63    C928    1.168   1_554 S
C64    C495    1.168   .     S
C65    C70     1.403   .     A
C65    N77     1.435   .     S
C66    C69     1.403   .     A
C66    N80     1.435   .     S
C66    C116    1.386   .     S
C67    N83     1.439   .     S
C67    C69     1.404   .     A
C67    C113    1.386   .     S
C68    N86     1.439   .     S
C68    C70     1.404   .     A
C71    N76     1.379   .     A
C71    O89     1.375   .     S
C71    C362    1.417   1_545 S
C72    N75     1.379   .     A
C72    O91     1.375   .     S
C72    C217    1.417   .     S
C73    N76     1.378   .     A
C73    O93     1.376   .     S
C73    C360    1.417   1_545 S
C74    N75     1.378   .     A
C74    O95     1.376   .     S
C74    C215    1.417   .     S
N77    O78     1.301   .     A
N77    O79     1.301   .     A
N80    O81     1.300   .     A
N80    O82     1.301   .     A
N83    O85     1.300   .     A
N83    O84     1.301   .     A
N86    O88     1.300   .     A
N86    O87     1.301   .     A
O89    H90     0.979   .     S
O91    H92     0.979   .     S
O93    H94     0.980   .     S
O95    H96     0.980   .     S
O97    Zn109   1.985   .     S
O97    C101    1.294   .     A
O98    C102    1.294   .     A
O98    Zn110   1.985   .     S
O99    Zn109   1.992   .     S
O99    C102    1.289   .     A
O100   Zn110   1.992   .     S
O100   C101    1.289   .     A
C101   C118    1.413   .     S
C102   C117    1.413   .     S
O103   C107    1.289   .     A
O103   Zn109   1.954   .     S
O104   C108    1.289   .     A
O104   Zn110   1.954   .     S
O105   C108    1.289   .     A
O105   Zn109   1.952   .     S
O106   C107    1.289   .     A
O106   Zn110   1.952   .     S
C107   C111    1.371   .     S
C108   C112    1.371   .     S
Zn109  N123    2.039   .     S
Zn110  N124    2.039   .     S
C111   C976    1.168   1_554 S
C112   C543    1.168   .     S
C113   C118    1.403   .     A
C113   N125    1.435   .     S
C114   C117    1.403   .     A
C114   N128    1.435   .     S
C114   C20     1.386   1_655 S
C115   N131    1.439   .     S
C115   C117    1.404   .     A
C115   C17     1.386   1_655 S
C116   N134    1.439   .     S
C116   C118    1.404   .     A
C119   N124    1.379   .     A
C119   O137    1.375   .     S
C119   C410    1.417   1_545 S
C120   N123    1.379   .     A
C120   O139    1.375   .     S
C120   C265    1.417   .     S
C121   N124    1.378   .     A
C121   O141    1.376   .     S
C121   C408    1.417   1_545 S
C122   N123    1.378   .     A
C122   O143    1.376   .     S
C122   C263    1.417   .     S
N125   O126    1.301   .     A
N125   O127    1.301   .     A
N128   O129    1.300   .     A
N128   O130    1.301   .     A
N131   O133    1.300   .     A
N131   O132    1.301   .     A
N134   O136    1.300   .     A
N134   O135    1.301   .     A
O137   H138    0.979   .     S
O139   H140    0.979   .     S
O141   H142    0.980   .     S
O143   H144    0.980   .     S
O145   Zn157   1.985   .     S
O145   C149    1.294   .     A
O146   C150    1.294   .     A
O146   Zn158   1.985   .     S
O147   Zn157   1.992   .     S
O147   C150    1.289   .     A
O148   Zn158   1.992   .     S
O148   C149    1.289   .     A
C149   C166    1.413   .     S
C150   C165    1.413   .     S
O151   C155    1.289   .     A
O151   Zn157   1.954   .     S
O152   C156    1.289   .     A
O152   Zn158   1.954   .     S
O153   C156    1.289   .     A
O153   Zn157   1.952   .     S
O154   C155    1.289   .     A
O154   Zn158   1.952   .     S
C155   C159    1.371   .     S
C156   C160    1.371   .     S
Zn157  N171    2.039   .     S
Zn158  N172    2.039   .     S
C159   C1024   1.168   1_554 S
C160   C591    1.168   .     S
C161   C166    1.403   .     A
C161   N173    1.435   .     S
C161   C259    1.386   1_455 S
C162   C165    1.403   .     A
C162   N176    1.435   .     S
C162   C212    1.386   .     S
C163   N179    1.439   .     S
C163   C165    1.404   .     A
C163   C209    1.386   .     S
C164   N182    1.439   .     S
C164   C166    1.404   .     A
C164   C258    1.386   1_455 S
C167   N172    1.379   .     A
C167   O185    1.375   .     S
C168   N171    1.379   .     A
C168   O187    1.375   .     S
C168   C313    1.417   .     S
C169   N172    1.378   .     A
C169   O189    1.376   .     S
C170   N171    1.378   .     A
C170   O191    1.376   .     S
C170   C311    1.417   .     S
N173   O174    1.301   .     A
N173   O175    1.301   .     A
N176   O177    1.300   .     A
N176   O178    1.301   .     A
N179   O181    1.300   .     A
N179   O180    1.301   .     A
N182   O184    1.300   .     A
N182   O183    1.301   .     A
O185   H186    0.979   .     S
O187   H188    0.979   .     S
O189   H190    0.980   .     S
O191   H192    0.980   .     S
O193   Zn205   1.985   .     S
O193   C197    1.294   .     A
O194   C198    1.294   .     A
O194   Zn206   1.985   .     S
O195   Zn205   1.992   .     S
O195   C198    1.289   .     A
O196   Zn206   1.992   .     S
O196   C197    1.289   .     A
C197   C214    1.413   .     S
C198   C213    1.413   .     S
O199   C203    1.289   .     A
O199   Zn205   1.954   .     S
O200   C204    1.289   .     A
O200   Zn206   1.954   .     S
O201   C204    1.289   .     A
O201   Zn205   1.952   .     S
O202   C203    1.289   .     A
O202   Zn206   1.952   .     S
C203   C207    1.371   .     S
C204   C208    1.371   .     S
Zn205  N219    2.039   .     S
Zn206  N220    2.039   .     S
C207   C1072   1.168   1_554 S
C208   C639    1.168   .     S
C209   C214    1.403   .     A
C209   N221    1.435   .     S
C210   C213    1.403   .     A
C210   N224    1.435   .     S
C210   C260    1.386   .     S
C211   N227    1.439   .     S
C211   C213    1.404   .     A
C211   C257    1.386   .     S
C212   N230    1.439   .     S
C212   C214    1.404   .     A
C215   N220    1.379   .     A
C215   O233    1.375   .     S
C216   N219    1.379   .     A
C216   O235    1.375   .     S
C216   C361    1.417   .     S
C217   N220    1.378   .     A
C217   O237    1.376   .     S
C218   N219    1.378   .     A
C218   O239    1.376   .     S
C218   C359    1.417   .     S
N221   O222    1.301   .     A
N221   O223    1.301   .     A
N224   O225    1.300   .     A
N224   O226    1.301   .     A
N227   O229    1.300   .     A
N227   O228    1.301   .     A
N230   O232    1.300   .     A
N230   O231    1.301   .     A
O233   H234    0.979   .     S
O235   H236    0.979   .     S
O237   H238    0.980   .     S
O239   H240    0.980   .     S
O241   Zn253   1.985   .     S
O241   C245    1.294   .     A
O242   C246    1.294   .     A
O242   Zn254   1.985   .     S
O243   Zn253   1.992   .     S
O243   C246    1.289   .     A
O244   Zn254   1.992   .     S
O244   C245    1.289   .     A
C245   C262    1.413   .     S
C246   C261    1.413   .     S
O247   C251    1.289   .     A
O247   Zn253   1.954   .     S
O248   C252    1.289   .     A
O248   Zn254   1.954   .     S
O249   C252    1.289   .     A
O249   Zn253   1.952   .     S
O250   C251    1.289   .     A
O250   Zn254   1.952   .     S
C251   C255    1.371   .     S
C252   C256    1.371   .     S
Zn253  N267    2.039   .     S
Zn254  N268    2.039   .     S
C255   C1120   1.168   1_554 S
C256   C687    1.168   .     S
C257   C262    1.403   .     A
C257   N269    1.435   .     S
C258   C261    1.403   .     A
C258   N272    1.435   .     S
C258   C164    1.386   1_655 S
C259   N275    1.439   .     S
C259   C261    1.404   .     A
C259   C161    1.386   1_655 S
C260   N278    1.439   .     S
C260   C262    1.404   .     A
C263   N268    1.379   .     A
C263   O281    1.375   .     S
C264   N267    1.379   .     A
C264   O283    1.375   .     S
C264   C409    1.417   .     S
C265   N268    1.378   .     A
C265   O285    1.376   .     S
C266   N267    1.378   .     A
C266   O287    1.376   .     S
C266   C407    1.417   .     S
N269   O270    1.301   .     A
N269   O271    1.301   .     A
N272   O273    1.300   .     A
N272   O274    1.301   .     A
N275   O277    1.300   .     A
N275   O276    1.301   .     A
N278   O280    1.300   .     A
N278   O279    1.301   .     A
O281   H282    0.979   .     S
O283   H284    0.979   .     S
O285   H286    0.980   .     S
O287   H288    0.980   .     S
O289   Zn301   1.985   .     S
O289   C293    1.294   .     A
O290   C294    1.294   .     A
O290   Zn302   1.985   .     S
O291   Zn301   1.992   .     S
O291   C294    1.289   .     A
O292   Zn302   1.992   .     S
O292   C293    1.289   .     A
C293   C310    1.413   .     S
C294   C309    1.413   .     S
O295   C299    1.289   .     A
O295   Zn301   1.954   .     S
O296   C300    1.289   .     A
O296   Zn302   1.954   .     S
O297   C300    1.289   .     A
O297   Zn301   1.952   .     S
O298   C299    1.289   .     A
O298   Zn302   1.952   .     S
C299   C303    1.371   .     S
C300   C304    1.371   .     S
Zn301  N315    2.039   .     S
Zn302  N316    2.039   .     S
C303   C1168   1.168   1_554 S
C304   C735    1.168   .     S
C305   C310    1.403   .     A
C305   N317    1.435   .     S
C305   C403    1.386   1_455 S
C306   C309    1.403   .     A
C306   N320    1.435   .     S
C306   C356    1.386   .     S
C307   N323    1.439   .     S
C307   C309    1.404   .     A
C307   C353    1.386   .     S
C308   N326    1.439   .     S
C308   C310    1.404   .     A
C308   C402    1.386   1_455 S
C311   N316    1.379   .     A
C311   O329    1.375   .     S
C312   N315    1.379   .     A
C312   O331    1.375   .     S
C312   C25     1.417   1_565 S
C313   N316    1.378   .     A
C313   O333    1.376   .     S
C314   N315    1.378   .     A
C314   O335    1.376   .     S
C314   C23     1.417   1_565 S
N317   O318    1.301   .     A
N317   O319    1.301   .     A
N320   O321    1.300   .     A
N320   O322    1.301   .     A
N323   O325    1.300   .     A
N323   O324    1.301   .     A
N326   O328    1.300   .     A
N326   O327    1.301   .     A
O329   H330    0.979   .     S
O331   H332    0.979   .     S
O333   H334    0.980   .     S
O335   H336    0.980   .     S
O337   Zn349   1.985   .     S
O337   C341    1.294   .     A
O338   C342    1.294   .     A
O338   Zn350   1.985   .     S
O339   Zn349   1.992   .     S
O339   C342    1.289   .     A
O340   Zn350   1.992   .     S
O340   C341    1.289   .     A
C341   C358    1.413   .     S
C342   C357    1.413   .     S
O343   C347    1.289   .     A
O343   Zn349   1.954   .     S
O344   C348    1.289   .     A
O344   Zn350   1.954   .     S
O345   C348    1.289   .     A
O345   Zn349   1.952   .     S
O346   C347    1.289   .     A
O346   Zn350   1.952   .     S
C347   C351    1.371   .     S
C348   C352    1.371   .     S
Zn349  N363    2.039   .     S
Zn350  N364    2.039   .     S
C351   C1216   1.168   1_554 S
C352   C783    1.168   .     S
C353   C358    1.403   .     A
C353   N365    1.435   .     S
C354   C357    1.403   .     A
C354   N368    1.435   .     S
C354   C404    1.386   .     S
C355   N371    1.439   .     S
C355   C357    1.404   .     A
C355   C401    1.386   .     S
C356   N374    1.439   .     S
C356   C358    1.404   .     A
C359   N364    1.379   .     A
C359   O377    1.375   .     S
C360   N363    1.379   .     A
C360   O379    1.375   .     S
C360   C73     1.417   1_565 S
C361   N364    1.378   .     A
C361   O381    1.376   .     S
C362   N363    1.378   .     A
C362   O383    1.376   .     S
C362   C71     1.417   1_565 S
N365   O366    1.301   .     A
N365   O367    1.301   .     A
N368   O369    1.300   .     A
N368   O370    1.301   .     A
N371   O373    1.300   .     A
N371   O372    1.301   .     A
N374   O376    1.300   .     A
N374   O375    1.301   .     A
O377   H378    0.979   .     S
O379   H380    0.979   .     S
O381   H382    0.980   .     S
O383   H384    0.980   .     S
O385   Zn397   1.985   .     S
O385   C389    1.294   .     A
O386   C390    1.294   .     A
O386   Zn398   1.985   .     S
O387   Zn397   1.992   .     S
O387   C390    1.289   .     A
O388   Zn398   1.992   .     S
O388   C389    1.289   .     A
C389   C406    1.413   .     S
C390   C405    1.413   .     S
O391   C395    1.289   .     A
O391   Zn397   1.954   .     S
O392   C396    1.289   .     A
O392   Zn398   1.954   .     S
O393   C396    1.289   .     A
O393   Zn397   1.952   .     S
O394   C395    1.289   .     A
O394   Zn398   1.952   .     S
C395   C399    1.371   .     S
C396   C400    1.371   .     S
Zn397  N411    2.039   .     S
Zn398  N412    2.039   .     S
C399   C1264   1.168   1_554 S
C400   C831    1.168   .     S
C401   C406    1.403   .     A
C401   N413    1.435   .     S
C402   C405    1.403   .     A
C402   N416    1.435   .     S
C402   C308    1.386   1_655 S
C403   N419    1.439   .     S
C403   C405    1.404   .     A
C403   C305    1.386   1_655 S
C404   N422    1.439   .     S
C404   C406    1.404   .     A
C407   N412    1.379   .     A
C407   O425    1.375   .     S
C408   N411    1.379   .     A
C408   O427    1.375   .     S
C408   C121    1.417   1_565 S
C409   N412    1.378   .     A
C409   O429    1.376   .     S
C410   N411    1.378   .     A
C410   O431    1.376   .     S
C410   C119    1.417   1_565 S
N413   O414    1.301   .     A
N413   O415    1.301   .     A
N416   O417    1.300   .     A
N416   O418    1.301   .     A
N419   O421    1.300   .     A
N419   O420    1.301   .     A
N422   O424    1.300   .     A
N422   O423    1.301   .     A
O425   H426    0.979   .     S
O427   H428    0.979   .     S
O429   H430    0.980   .     S
O431   H432    0.980   .     S
O433   Zn445   1.985   .     S
O433   C437    1.294   .     A
O434   C438    1.294   .     A
O434   Zn446   1.985   .     S
O435   Zn445   1.992   .     S
O435   C438    1.289   .     A
O436   Zn446   1.992   .     S
O436   C437    1.289   .     A
C437   C454    1.413   .     S
C438   C453    1.413   .     S
O439   C443    1.289   .     A
O439   Zn445   1.954   .     S
O440   C444    1.289   .     A
O440   Zn446   1.954   .     S
O441   C444    1.289   .     A
O441   Zn445   1.952   .     S
O442   C443    1.289   .     A
O442   Zn446   1.952   .     S
C443   C447    1.371   .     S
C444   C448    1.371   .     S
Zn445  N459    2.039   .     S
Zn446  N460    2.039   .     S
C448   C879    1.168   .     S
C449   C454    1.403   .     A
C449   N461    1.435   .     S
C449   C547    1.386   1_455 S
C450   C453    1.403   .     A
C450   N464    1.435   .     S
C450   C500    1.386   .     S
C451   N467    1.439   .     S
C451   C453    1.404   .     A
C451   C497    1.386   .     S
C452   N470    1.439   .     S
C452   C454    1.404   .     A
C452   C546    1.386   1_455 S
C455   N460    1.379   .     A
C455   O473    1.375   .     S
C455   C746    1.417   1_545 S
C456   N459    1.379   .     A
C456   O475    1.375   .     S
C456   C601    1.417   .     S
C457   N460    1.378   .     A
C457   O477    1.376   .     S
C457   C744    1.417   1_545 S
C458   N459    1.378   .     A
C458   O479    1.376   .     S
C458   C599    1.417   .     S
N461   O462    1.301   .     A
N461   O463    1.301   .     A
N464   O465    1.300   .     A
N464   O466    1.301   .     A
N467   O469    1.300   .     A
N467   O468    1.301   .     A
N470   O472    1.300   .     A
N470   O471    1.301   .     A
O473   H474    0.979   .     S
O475   H476    0.979   .     S
O477   H478    0.980   .     S
O479   H480    0.980   .     S
O481   Zn493   1.985   .     S
O481   C485    1.294   .     A
O482   C486    1.294   .     A
O482   Zn494   1.985   .     S
O483   Zn493   1.992   .     S
O483   C486    1.289   .     A
O484   Zn494   1.992   .     S
O484   C485    1.289   .     A
C485   C502    1.413   .     S
C486   C501    1.413   .     S
O487   C491    1.289   .     A
O487   Zn493   1.954   .     S
O488   C492    1.289   .     A
O488   Zn494   1.954   .     S
O489   C492    1.289   .     A
O489   Zn493   1.952   .     S
O490   C491    1.289   .     A
O490   Zn494   1.952   .     S
C491   C495    1.371   .     S
C492   C496    1.371   .     S
Zn493  N507    2.039   .     S
Zn494  N508    2.039   .     S
C496   C927    1.168   .     S
C497   C502    1.403   .     A
C497   N509    1.435   .     S
C498   C501    1.403   .     A
C498   N512    1.435   .     S
C498   C548    1.386   .     S
C499   N515    1.439   .     S
C499   C501    1.404   .     A
C499   C545    1.386   .     S
C500   N518    1.439   .     S
C500   C502    1.404   .     A
C503   N508    1.379   .     A
C503   O521    1.375   .     S
C503   C794    1.417   1_545 S
C504   N507    1.379   .     A
C504   O523    1.375   .     S
C504   C649    1.417   .     S
C505   N508    1.378   .     A
C505   O525    1.376   .     S
C505   C792    1.417   1_545 S
C506   N507    1.378   .     A
C506   O527    1.376   .     S
C506   C647    1.417   .     S
N509   O510    1.301   .     A
N509   O511    1.301   .     A
N512   O513    1.300   .     A
N512   O514    1.301   .     A
N515   O517    1.300   .     A
N515   O516    1.301   .     A
N518   O520    1.300   .     A
N518   O519    1.301   .     A
O521   H522    0.979   .     S
O523   H524    0.979   .     S
O525   H526    0.980   .     S
O527   H528    0.980   .     S
O529   Zn541   1.985   .     S
O529   C533    1.294   .     A
O530   C534    1.294   .     A
O530   Zn542   1.985   .     S
O531   Zn541   1.992   .     S
O531   C534    1.289   .     A
O532   Zn542   1.992   .     S
O532   C533    1.289   .     A
C533   C550    1.413   .     S
C534   C549    1.413   .     S
O535   C539    1.289   .     A
O535   Zn541   1.954   .     S
O536   C540    1.289   .     A
O536   Zn542   1.954   .     S
O537   C540    1.289   .     A
O537   Zn541   1.952   .     S
O538   C539    1.289   .     A
O538   Zn542   1.952   .     S
C539   C543    1.371   .     S
C540   C544    1.371   .     S
Zn541  N555    2.039   .     S
Zn542  N556    2.039   .     S
C544   C975    1.168   .     S
C545   C550    1.403   .     A
C545   N557    1.435   .     S
C546   C549    1.403   .     A
C546   N560    1.435   .     S
C546   C452    1.386   1_655 S
C547   N563    1.439   .     S
C547   C549    1.404   .     A
C547   C449    1.386   1_655 S
C548   N566    1.439   .     S
C548   C550    1.404   .     A
C551   N556    1.379   .     A
C551   O569    1.375   .     S
C551   C842    1.417   1_545 S
C552   N555    1.379   .     A
C552   O571    1.375   .     S
C552   C697    1.417   .     S
C553   N556    1.378   .     A
C553   O573    1.376   .     S
C553   C840    1.417   1_545 S
C554   N555    1.378   .     A
C554   O575    1.376   .     S
C554   C695    1.417   .     S
N557   O558    1.301   .     A
N557   O559    1.301   .     A
N560   O561    1.300   .     A
N560   O562    1.301   .     A
N563   O565    1.300   .     A
N563   O564    1.301   .     A
N566   O568    1.300   .     A
N566   O567    1.301   .     A
O569   H570    0.979   .     S
O571   H572    0.979   .     S
O573   H574    0.980   .     S
O575   H576    0.980   .     S
O577   Zn589   1.985   .     S
O577   C581    1.294   .     A
O578   C582    1.294   .     A
O578   Zn590   1.985   .     S
O579   Zn589   1.992   .     S
O579   C582    1.289   .     A
O580   Zn590   1.992   .     S
O580   C581    1.289   .     A
C581   C598    1.413   .     S
C582   C597    1.413   .     S
O583   C587    1.289   .     A
O583   Zn589   1.954   .     S
O584   C588    1.289   .     A
O584   Zn590   1.954   .     S
O585   C588    1.289   .     A
O585   Zn589   1.952   .     S
O586   C587    1.289   .     A
O586   Zn590   1.952   .     S
C587   C591    1.371   .     S
C588   C592    1.371   .     S
Zn589  N603    2.039   .     S
Zn590  N604    2.039   .     S
C592   C1023   1.168   .     S
C593   C598    1.403   .     A
C593   N605    1.435   .     S
C593   C691    1.386   1_455 S
C594   C597    1.403   .     A
C594   N608    1.435   .     S
C594   C644    1.386   .     S
C595   N611    1.439   .     S
C595   C597    1.404   .     A
C595   C641    1.386   .     S
C596   N614    1.439   .     S
C596   C598    1.404   .     A
C596   C690    1.386   1_455 S
C599   N604    1.379   .     A
C599   O617    1.375   .     S
C600   N603    1.379   .     A
C600   O619    1.375   .     S
C600   C745    1.417   .     S
C601   N604    1.378   .     A
C601   O621    1.376   .     S
C602   N603    1.378   .     A
C602   O623    1.376   .     S
C602   C743    1.417   .     S
N605   O606    1.301   .     A
N605   O607    1.301   .     A
N608   O609    1.300   .     A
N608   O610    1.301   .     A
N611   O613    1.300   .     A
N611   O612    1.301   .     A
N614   O616    1.300   .     A
N614   O615    1.301   .     A
O617   H618    0.979   .     S
O619   H620    0.979   .     S
O621   H622    0.980   .     S
O623   H624    0.980   .     S
O625   Zn637   1.985   .     S
O625   C629    1.294   .     A
O626   C630    1.294   .     A
O626   Zn638   1.985   .     S
O627   Zn637   1.992   .     S
O627   C630    1.289   .     A
O628   Zn638   1.992   .     S
O628   C629    1.289   .     A
C629   C646    1.413   .     S
C630   C645    1.413   .     S
O631   C635    1.289   .     A
O631   Zn637   1.954   .     S
O632   C636    1.289   .     A
O632   Zn638   1.954   .     S
O633   C636    1.289   .     A
O633   Zn637   1.952   .     S
O634   C635    1.289   .     A
O634   Zn638   1.952   .     S
C635   C639    1.371   .     S
C636   C640    1.371   .     S
Zn637  N651    2.039   .     S
Zn638  N652    2.039   .     S
C640   C1071   1.168   .     S
C641   C646    1.403   .     A
C641   N653    1.435   .     S
C642   C645    1.403   .     A
C642   N656    1.435   .     S
C642   C692    1.386   .     S
C643   N659    1.439   .     S
C643   C645    1.404   .     A
C643   C689    1.386   .     S
C644   N662    1.439   .     S
C644   C646    1.404   .     A
C647   N652    1.379   .     A
C647   O665    1.375   .     S
C648   N651    1.379   .     A
C648   O667    1.375   .     S
C648   C793    1.417   .     S
C649   N652    1.378   .     A
C649   O669    1.376   .     S
C650   N651    1.378   .     A
C650   O671    1.376   .     S
C650   C791    1.417   .     S
N653   O654    1.301   .     A
N653   O655    1.301   .     A
N656   O657    1.300   .     A
N656   O658    1.301   .     A
N659   O661    1.300   .     A
N659   O660    1.301   .     A
N662   O664    1.300   .     A
N662   O663    1.301   .     A
O665   H666    0.979   .     S
O667   H668    0.979   .     S
O669   H670    0.980   .     S
O671   H672    0.980   .     S
O673   Zn685   1.985   .     S
O673   C677    1.294   .     A
O674   C678    1.294   .     A
O674   Zn686   1.985   .     S
O675   Zn685   1.992   .     S
O675   C678    1.289   .     A
O676   Zn686   1.992   .     S
O676   C677    1.289   .     A
C677   C694    1.413   .     S
C678   C693    1.413   .     S
O679   C683    1.289   .     A
O679   Zn685   1.954   .     S
O680   C684    1.289   .     A
O680   Zn686   1.954   .     S
O681   C684    1.289   .     A
O681   Zn685   1.952   .     S
O682   C683    1.289   .     A
O682   Zn686   1.952   .     S
C683   C687    1.371   .     S
C684   C688    1.371   .     S
Zn685  N699    2.039   .     S
Zn686  N700    2.039   .     S
C688   C1119   1.168   .     S
C689   C694    1.403   .     A
C689   N701    1.435   .     S
C690   C693    1.403   .     A
C690   N704    1.435   .     S
C690   C596    1.386   1_655 S
C691   N707    1.439   .     S
C691   C693    1.404   .     A
C691   C593    1.386   1_655 S
C692   N710    1.439   .     S
C692   C694    1.404   .     A
C695   N700    1.379   .     A
C695   O713    1.375   .     S
C696   N699    1.379   .     A
C696   O715    1.375   .     S
C696   C841    1.417   .     S
C697   N700    1.378   .     A
C697   O717    1.376   .     S
C698   N699    1.378   .     A
C698   O719    1.376   .     S
C698   C839    1.417   .     S
N701   O702    1.301   .     A
N701   O703    1.301   .     A
N704   O705    1.300   .     A
N704   O706    1.301   .     A
N707   O709    1.300   .     A
N707   O708    1.301   .     A
N710   O712    1.300   .     A
N710   O711    1.301   .     A
O713   H714    0.979   .     S
O715   H716    0.979   .     S
O717   H718    0.980   .     S
O719   H720    0.980   .     S
O721   Zn733   1.985   .     S
O721   C725    1.294   .     A
O722   C726    1.294   .     A
O722   Zn734   1.985   .     S
O723   Zn733   1.992   .     S
O723   C726    1.289   .     A
O724   Zn734   1.992   .     S
O724   C725    1.289   .     A
C725   C742    1.413   .     S
C726   C741    1.413   .     S
O727   C731    1.289   .     A
O727   Zn733   1.954   .     S
O728   C732    1.289   .     A
O728   Zn734   1.954   .     S
O729   C732    1.289   .     A
O729   Zn733   1.952   .     S
O730   C731    1.289   .     A
O730   Zn734   1.952   .     S
C731   C735    1.371   .     S
C732   C736    1.371   .     S
Zn733  N747    2.039   .     S
Zn734  N748    2.039   .     S
C736   C1167   1.168   .     S
C737   C742    1.403   .     A
C737   N749    1.435   .     S
C737   C835    1.386   1_455 S
C738   C741    1.403   .     A
C738   N752    1.435   .     S
C738   C788    1.386   .     S
C739   N755    1.439   .     S
C739   C741    1.404   .     A
C739   C785    1.386   .     S
C740   N758    1.439   .     S
C740   C742    1.404   .     A
C740   C834    1.386   1_455 S
C743   N748    1.379   .     A
C743   O761    1.375   .     S
C744   N747    1.379   .     A
C744   O763    1.375   .     S
C744   C457    1.417   1_565 S
C745   N748    1.378   .     A
C745   O765    1.376   .     S
C746   N747    1.378   .     A
C746   O767    1.376   .     S
C746   C455    1.417   1_565 S
N749   O750    1.301   .     A
N749   O751    1.301   .     A
N752   O753    1.300   .     A
N752   O754    1.301   .     A
N755   O757    1.300   .     A
N755   O756    1.301   .     A
N758   O760    1.300   .     A
N758   O759    1.301   .     A
O761   H762    0.979   .     S
O763   H764    0.979   .     S
O765   H766    0.980   .     S
O767   H768    0.980   .     S
O769   Zn781   1.985   .     S
O769   C773    1.294   .     A
O770   C774    1.294   .     A
O770   Zn782   1.985   .     S
O771   Zn781   1.992   .     S
O771   C774    1.289   .     A
O772   Zn782   1.992   .     S
O772   C773    1.289   .     A
C773   C790    1.413   .     S
C774   C789    1.413   .     S
O775   C779    1.289   .     A
O775   Zn781   1.954   .     S
O776   C780    1.289   .     A
O776   Zn782   1.954   .     S
O777   C780    1.289   .     A
O777   Zn781   1.952   .     S
O778   C779    1.289   .     A
O778   Zn782   1.952   .     S
C779   C783    1.371   .     S
C780   C784    1.371   .     S
Zn781  N795    2.039   .     S
Zn782  N796    2.039   .     S
C784   C1215   1.168   .     S
C785   C790    1.403   .     A
C785   N797    1.435   .     S
C786   C789    1.403   .     A
C786   N800    1.435   .     S
C786   C836    1.386   .     S
C787   N803    1.439   .     S
C787   C789    1.404   .     A
C787   C833    1.386   .     S
C788   N806    1.439   .     S
C788   C790    1.404   .     A
C791   N796    1.379   .     A
C791   O809    1.375   .     S
C792   N795    1.379   .     A
C792   O811    1.375   .     S
C792   C505    1.417   1_565 S
C793   N796    1.378   .     A
C793   O813    1.376   .     S
C794   N795    1.378   .     A
C794   O815    1.376   .     S
C794   C503    1.417   1_565 S
N797   O798    1.301   .     A
N797   O799    1.301   .     A
N800   O801    1.300   .     A
N800   O802    1.301   .     A
N803   O805    1.300   .     A
N803   O804    1.301   .     A
N806   O808    1.300   .     A
N806   O807    1.301   .     A
O809   H810    0.979   .     S
O811   H812    0.979   .     S
O813   H814    0.980   .     S
O815   H816    0.980   .     S
O817   Zn829   1.985   .     S
O817   C821    1.294   .     A
O818   C822    1.294   .     A
O818   Zn830   1.985   .     S
O819   Zn829   1.992   .     S
O819   C822    1.289   .     A
O820   Zn830   1.992   .     S
O820   C821    1.289   .     A
C821   C838    1.413   .     S
C822   C837    1.413   .     S
O823   C827    1.289   .     A
O823   Zn829   1.954   .     S
O824   C828    1.289   .     A
O824   Zn830   1.954   .     S
O825   C828    1.289   .     A
O825   Zn829   1.952   .     S
O826   C827    1.289   .     A
O826   Zn830   1.952   .     S
C827   C831    1.371   .     S
C828   C832    1.371   .     S
Zn829  N843    2.039   .     S
Zn830  N844    2.039   .     S
C832   C1263   1.168   .     S
C833   C838    1.403   .     A
C833   N845    1.435   .     S
C834   C837    1.403   .     A
C834   N848    1.435   .     S
C834   C740    1.386   1_655 S
C835   N851    1.439   .     S
C835   C837    1.404   .     A
C835   C737    1.386   1_655 S
C836   N854    1.439   .     S
C836   C838    1.404   .     A
C839   N844    1.379   .     A
C839   O857    1.375   .     S
C840   N843    1.379   .     A
C840   O859    1.375   .     S
C840   C553    1.417   1_565 S
C841   N844    1.378   .     A
C841   O861    1.376   .     S
C842   N843    1.378   .     A
C842   O863    1.376   .     S
C842   C551    1.417   1_565 S
N845   O846    1.301   .     A
N845   O847    1.301   .     A
N848   O849    1.300   .     A
N848   O850    1.301   .     A
N851   O853    1.300   .     A
N851   O852    1.301   .     A
N854   O856    1.300   .     A
N854   O855    1.301   .     A
O857   H858    0.979   .     S
O859   H860    0.979   .     S
O861   H862    0.980   .     S
O863   H864    0.980   .     S
O865   Zn877   1.985   .     S
O865   C869    1.294   .     A
O866   C870    1.294   .     A
O866   Zn878   1.985   .     S
O867   Zn877   1.992   .     S
O867   C870    1.289   .     A
O868   Zn878   1.992   .     S
O868   C869    1.289   .     A
C869   C886    1.413   .     S
C870   C885    1.413   .     S
O871   C875    1.289   .     A
O871   Zn877   1.954   .     S
O872   C876    1.289   .     A
O872   Zn878   1.954   .     S
O873   C876    1.289   .     A
O873   Zn877   1.952   .     S
O874   C875    1.289   .     A
O874   Zn878   1.952   .     S
C875   C879    1.371   .     S
C876   C880    1.371   .     S
Zn877  N891    2.039   .     S
Zn878  N892    2.039   .     S
C880   C15     1.168   1_556 S
C881   C886    1.403   .     A
C881   N893    1.435   .     S
C881   C979    1.386   1_455 S
C882   C885    1.403   .     A
C882   N896    1.435   .     S
C882   C932    1.386   .     S
C883   N899    1.439   .     S
C883   C885    1.404   .     A
C883   C929    1.386   .     S
C884   N902    1.439   .     S
C884   C886    1.404   .     A
C884   C978    1.386   1_455 S
C887   N892    1.379   .     A
C887   O905    1.375   .     S
C887   C1178   1.417   1_545 S
C888   N891    1.379   .     A
C888   O907    1.375   .     S
C888   C1033   1.417   .     S
C889   N892    1.378   .     A
C889   O909    1.376   .     S
C889   C1176   1.417   1_545 S
C890   N891    1.378   .     A
C890   O911    1.376   .     S
C890   C1031   1.417   .     S
N893   O894    1.301   .     A
N893   O895    1.301   .     A
N896   O897    1.300   .     A
N896   O898    1.301   .     A
N899   O901    1.300   .     A
N899   O900    1.301   .     A
N902   O904    1.300   .     A
N902   O903    1.301   .     A
O905   H906    0.979   .     S
O907   H908    0.979   .     S
O909   H910    0.980   .     S
O911   H912    0.980   .     S
O913   Zn925   1.985   .     S
O913   C917    1.294   .     A
O914   C918    1.294   .     A
O914   Zn926   1.985   .     S
O915   Zn925   1.992   .     S
O915   C918    1.289   .     A
O916   Zn926   1.992   .     S
O916   C917    1.289   .     A
C917   C934    1.413   .     S
C918   C933    1.413   .     S
O919   C923    1.289   .     A
O919   Zn925   1.954   .     S
O920   C924    1.289   .     A
O920   Zn926   1.954   .     S
O921   C924    1.289   .     A
O921   Zn925   1.952   .     S
O922   C923    1.289   .     A
O922   Zn926   1.952   .     S
C923   C927    1.371   .     S
C924   C928    1.371   .     S
Zn925  N939    2.039   .     S
Zn926  N940    2.039   .     S
C928   C63     1.168   1_556 S
C929   C934    1.403   .     A
C929   N941    1.435   .     S
C930   C933    1.403   .     A
C930   N944    1.435   .     S
C930   C980    1.386   .     S
C931   N947    1.439   .     S
C931   C933    1.404   .     A
C931   C977    1.386   .     S
C932   N950    1.439   .     S
C932   C934    1.404   .     A
C935   N940    1.379   .     A
C935   O953    1.375   .     S
C935   C1226   1.417   1_545 S
C936   N939    1.379   .     A
C936   O955    1.375   .     S
C936   C1081   1.417   .     S
C937   N940    1.378   .     A
C937   O957    1.376   .     S
C937   C1224   1.417   1_545 S
C938   N939    1.378   .     A
C938   O959    1.376   .     S
C938   C1079   1.417   .     S
N941   O942    1.301   .     A
N941   O943    1.301   .     A
N944   O945    1.300   .     A
N944   O946    1.301   .     A
N947   O949    1.300   .     A
N947   O948    1.301   .     A
N950   O952    1.300   .     A
N950   O951    1.301   .     A
O953   H954    0.979   .     S
O955   H956    0.979   .     S
O957   H958    0.980   .     S
O959   H960    0.980   .     S
O961   Zn973   1.985   .     S
O961   C965    1.294   .     A
O962   C966    1.294   .     A
O962   Zn974   1.985   .     S
O963   Zn973   1.992   .     S
O963   C966    1.289   .     A
O964   Zn974   1.992   .     S
O964   C965    1.289   .     A
C965   C982    1.413   .     S
C966   C981    1.413   .     S
O967   C971    1.289   .     A
O967   Zn973   1.954   .     S
O968   C972    1.289   .     A
O968   Zn974   1.954   .     S
O969   C972    1.289   .     A
O969   Zn973   1.952   .     S
O970   C971    1.289   .     A
O970   Zn974   1.952   .     S
C971   C975    1.371   .     S
C972   C976    1.371   .     S
Zn973  N987    2.039   .     S
Zn974  N988    2.039   .     S
C976   C111    1.168   1_556 S
C977   C982    1.403   .     A
C977   N989    1.435   .     S
C978   C981    1.403   .     A
C978   N992    1.435   .     S
C978   C884    1.386   1_655 S
C979   N995    1.439   .     S
C979   C981    1.404   .     A
C979   C881    1.386   1_655 S
C980   N998    1.439   .     S
C980   C982    1.404   .     A
C983   N988    1.379   .     A
C983   O1001   1.375   .     S
C983   C1274   1.417   1_545 S
C984   N987    1.379   .     A
C984   O1003   1.375   .     S
C984   C1129   1.417   .     S
C985   N988    1.378   .     A
C985   O1005   1.376   .     S
C985   C1272   1.417   1_545 S
C986   N987    1.378   .     A
C986   O1007   1.376   .     S
C986   C1127   1.417   .     S
N989   O990    1.301   .     A
N989   O991    1.301   .     A
N992   O993    1.300   .     A
N992   O994    1.301   .     A
N995   O997    1.300   .     A
N995   O996    1.301   .     A
N998   O1000   1.300   .     A
N998   O999    1.301   .     A
O1001  H1002   0.979   .     S
O1003  H1004   0.979   .     S
O1005  H1006   0.980   .     S
O1007  H1008   0.980   .     S
O1009  Zn1021  1.985   .     S
O1009  C1013   1.294   .     A
O1010  C1014   1.294   .     A
O1010  Zn1022  1.985   .     S
O1011  Zn1021  1.992   .     S
O1011  C1014   1.289   .     A
O1012  Zn1022  1.992   .     S
O1012  C1013   1.289   .     A
C1013  C1030   1.413   .     S
C1014  C1029   1.413   .     S
O1015  C1019   1.289   .     A
O1015  Zn1021  1.954   .     S
O1016  C1020   1.289   .     A
O1016  Zn1022  1.954   .     S
O1017  C1020   1.289   .     A
O1017  Zn1021  1.952   .     S
O1018  C1019   1.289   .     A
O1018  Zn1022  1.952   .     S
C1019  C1023   1.371   .     S
C1020  C1024   1.371   .     S
Zn1021 N1035   2.039   .     S
Zn1022 N1036   2.039   .     S
C1024  C159    1.168   1_556 S
C1025  C1030   1.403   .     A
C1025  N1037   1.435   .     S
C1025  C1123   1.386   1_455 S
C1026  C1029   1.403   .     A
C1026  N1040   1.435   .     S
C1026  C1076   1.386   .     S
C1027  N1043   1.439   .     S
C1027  C1029   1.404   .     A
C1027  C1073   1.386   .     S
C1028  N1046   1.439   .     S
C1028  C1030   1.404   .     A
C1028  C1122   1.386   1_455 S
C1031  N1036   1.379   .     A
C1031  O1049   1.375   .     S
C1032  N1035   1.379   .     A
C1032  O1051   1.375   .     S
C1032  C1177   1.417   .     S
C1033  N1036   1.378   .     A
C1033  O1053   1.376   .     S
C1034  N1035   1.378   .     A
C1034  O1055   1.376   .     S
C1034  C1175   1.417   .     S
N1037  O1038   1.301   .     A
N1037  O1039   1.301   .     A
N1040  O1041   1.300   .     A
N1040  O1042   1.301   .     A
N1043  O1045   1.300   .     A
N1043  O1044   1.301   .     A
N1046  O1048   1.300   .     A
N1046  O1047   1.301   .     A
O1049  H1050   0.979   .     S
O1051  H1052   0.979   .     S
O1053  H1054   0.980   .     S
O1055  H1056   0.980   .     S
O1057  Zn1069  1.985   .     S
O1057  C1061   1.294   .     A
O1058  C1062   1.294   .     A
O1058  Zn1070  1.985   .     S
O1059  Zn1069  1.992   .     S
O1059  C1062   1.289   .     A
O1060  Zn1070  1.992   .     S
O1060  C1061   1.289   .     A
C1061  C1078   1.413   .     S
C1062  C1077   1.413   .     S
O1063  C1067   1.289   .     A
O1063  Zn1069  1.954   .     S
O1064  C1068   1.289   .     A
O1064  Zn1070  1.954   .     S
O1065  C1068   1.289   .     A
O1065  Zn1069  1.952   .     S
O1066  C1067   1.289   .     A
O1066  Zn1070  1.952   .     S
C1067  C1071   1.371   .     S
C1068  C1072   1.371   .     S
Zn1069 N1083   2.039   .     S
Zn1070 N1084   2.039   .     S
C1072  C207    1.168   1_556 S
C1073  C1078   1.403   .     A
C1073  N1085   1.435   .     S
C1074  C1077   1.403   .     A
C1074  N1088   1.435   .     S
C1074  C1124   1.386   .     S
C1075  N1091   1.439   .     S
C1075  C1077   1.404   .     A
C1075  C1121   1.386   .     S
C1076  N1094   1.439   .     S
C1076  C1078   1.404   .     A
C1079  N1084   1.379   .     A
C1079  O1097   1.375   .     S
C1080  N1083   1.379   .     A
C1080  O1099   1.375   .     S
C1080  C1225   1.417   .     S
C1081  N1084   1.378   .     A
C1081  O1101   1.376   .     S
C1082  N1083   1.378   .     A
C1082  O1103   1.376   .     S
C1082  C1223   1.417   .     S
N1085  O1086   1.301   .     A
N1085  O1087   1.301   .     A
N1088  O1089   1.300   .     A
N1088  O1090   1.301   .     A
N1091  O1093   1.300   .     A
N1091  O1092   1.301   .     A
N1094  O1096   1.300   .     A
N1094  O1095   1.301   .     A
O1097  H1098   0.979   .     S
O1099  H1100   0.979   .     S
O1101  H1102   0.980   .     S
O1103  H1104   0.980   .     S
O1105  Zn1117  1.985   .     S
O1105  C1109   1.294   .     A
O1106  C1110   1.294   .     A
O1106  Zn1118  1.985   .     S
O1107  Zn1117  1.992   .     S
O1107  C1110   1.289   .     A
O1108  Zn1118  1.992   .     S
O1108  C1109   1.289   .     A
C1109  C1126   1.413   .     S
C1110  C1125   1.413   .     S
O1111  C1115   1.289   .     A
O1111  Zn1117  1.954   .     S
O1112  C1116   1.289   .     A
O1112  Zn1118  1.954   .     S
O1113  C1116   1.289   .     A
O1113  Zn1117  1.952   .     S
O1114  C1115   1.289   .     A
O1114  Zn1118  1.952   .     S
C1115  C1119   1.371   .     S
C1116  C1120   1.371   .     S
Zn1117 N1131   2.039   .     S
Zn1118 N1132   2.039   .     S
C1120  C255    1.168   1_556 S
C1121  C1126   1.403   .     A
C1121  N1133   1.435   .     S
C1122  C1125   1.403   .     A
C1122  N1136   1.435   .     S
C1122  C1028   1.386   1_655 S
C1123  N1139   1.439   .     S
C1123  C1125   1.404   .     A
C1123  C1025   1.386   1_655 S
C1124  N1142   1.439   .     S
C1124  C1126   1.404   .     A
C1127  N1132   1.379   .     A
C1127  O1145   1.375   .     S
C1128  N1131   1.379   .     A
C1128  O1147   1.375   .     S
C1128  C1273   1.417   .     S
C1129  N1132   1.378   .     A
C1129  O1149   1.376   .     S
C1130  N1131   1.378   .     A
C1130  O1151   1.376   .     S
C1130  C1271   1.417   .     S
N1133  O1134   1.301   .     A
N1133  O1135   1.301   .     A
N1136  O1137   1.300   .     A
N1136  O1138   1.301   .     A
N1139  O1141   1.300   .     A
N1139  O1140   1.301   .     A
N1142  O1144   1.300   .     A
N1142  O1143   1.301   .     A
O1145  H1146   0.979   .     S
O1147  H1148   0.979   .     S
O1149  H1150   0.980   .     S
O1151  H1152   0.980   .     S
O1153  Zn1165  1.985   .     S
O1153  C1157   1.294   .     A
O1154  C1158   1.294   .     A
O1154  Zn1166  1.985   .     S
O1155  Zn1165  1.992   .     S
O1155  C1158   1.289   .     A
O1156  Zn1166  1.992   .     S
O1156  C1157   1.289   .     A
C1157  C1174   1.413   .     S
C1158  C1173   1.413   .     S
O1159  C1163   1.289   .     A
O1159  Zn1165  1.954   .     S
O1160  C1164   1.289   .     A
O1160  Zn1166  1.954   .     S
O1161  C1164   1.289   .     A
O1161  Zn1165  1.952   .     S
O1162  C1163   1.289   .     A
O1162  Zn1166  1.952   .     S
C1163  C1167   1.371   .     S
C1164  C1168   1.371   .     S
Zn1165 N1179   2.039   .     S
Zn1166 N1180   2.039   .     S
C1168  C303    1.168   1_556 S
C1169  C1174   1.403   .     A
C1169  N1181   1.435   .     S
C1169  C1267   1.386   1_455 S
C1170  C1173   1.403   .     A
C1170  N1184   1.435   .     S
C1170  C1220   1.386   .     S
C1171  N1187   1.439   .     S
C1171  C1173   1.404   .     A
C1171  C1217   1.386   .     S
C1172  N1190   1.439   .     S
C1172  C1174   1.404   .     A
C1172  C1266   1.386   1_455 S
C1175  N1180   1.379   .     A
C1175  O1193   1.375   .     S
C1176  N1179   1.379   .     A
C1176  O1195   1.375   .     S
C1176  C889    1.417   1_565 S
C1177  N1180   1.378   .     A
C1177  O1197   1.376   .     S
C1178  N1179   1.378   .     A
C1178  O1199   1.376   .     S
C1178  C887    1.417   1_565 S
N1181  O1182   1.301   .     A
N1181  O1183   1.301   .     A
N1184  O1185   1.300   .     A
N1184  O1186   1.301   .     A
N1187  O1189   1.300   .     A
N1187  O1188   1.301   .     A
N1190  O1192   1.300   .     A
N1190  O1191   1.301   .     A
O1193  H1194   0.979   .     S
O1195  H1196   0.979   .     S
O1197  H1198   0.980   .     S
O1199  H1200   0.980   .     S
O1201  Zn1213  1.985   .     S
O1201  C1205   1.294   .     A
O1202  C1206   1.294   .     A
O1202  Zn1214  1.985   .     S
O1203  Zn1213  1.992   .     S
O1203  C1206   1.289   .     A
O1204  Zn1214  1.992   .     S
O1204  C1205   1.289   .     A
C1205  C1222   1.413   .     S
C1206  C1221   1.413   .     S
O1207  C1211   1.289   .     A
O1207  Zn1213  1.954   .     S
O1208  C1212   1.289   .     A
O1208  Zn1214  1.954   .     S
O1209  C1212   1.289   .     A
O1209  Zn1213  1.952   .     S
O1210  C1211   1.289   .     A
O1210  Zn1214  1.952   .     S
C1211  C1215   1.371   .     S
C1212  C1216   1.371   .     S
Zn1213 N1227   2.039   .     S
Zn1214 N1228   2.039   .     S
C1216  C351    1.168   1_556 S
C1217  C1222   1.403   .     A
C1217  N1229   1.435   .     S
C1218  C1221   1.403   .     A
C1218  N1232   1.435   .     S
C1218  C1268   1.386   .     S
C1219  N1235   1.439   .     S
C1219  C1221   1.404   .     A
C1219  C1265   1.386   .     S
C1220  N1238   1.439   .     S
C1220  C1222   1.404   .     A
C1223  N1228   1.379   .     A
C1223  O1241   1.375   .     S
C1224  N1227   1.379   .     A
C1224  O1243   1.375   .     S
C1224  C937    1.417   1_565 S
C1225  N1228   1.378   .     A
C1225  O1245   1.376   .     S
C1226  N1227   1.378   .     A
C1226  O1247   1.376   .     S
C1226  C935    1.417   1_565 S
N1229  O1230   1.301   .     A
N1229  O1231   1.301   .     A
N1232  O1233   1.300   .     A
N1232  O1234   1.301   .     A
N1235  O1237   1.300   .     A
N1235  O1236   1.301   .     A
N1238  O1240   1.300   .     A
N1238  O1239   1.301   .     A
O1241  H1242   0.979   .     S
O1243  H1244   0.979   .     S
O1245  H1246   0.980   .     S
O1247  H1248   0.980   .     S
O1249  Zn1261  1.985   .     S
O1249  C1253   1.294   .     A
O1250  C1254   1.294   .     A
O1250  Zn1262  1.985   .     S
O1251  Zn1261  1.992   .     S
O1251  C1254   1.289   .     A
O1252  Zn1262  1.992   .     S
O1252  C1253   1.289   .     A
C1253  C1270   1.413   .     S
C1254  C1269   1.413   .     S
O1255  C1259   1.289   .     A
O1255  Zn1261  1.954   .     S
O1256  C1260   1.289   .     A
O1256  Zn1262  1.954   .     S
O1257  C1260   1.289   .     A
O1257  Zn1261  1.952   .     S
O1258  C1259   1.289   .     A
O1258  Zn1262  1.952   .     S
C1259  C1263   1.371   .     S
C1260  C1264   1.371   .     S
Zn1261 N1275   2.039   .     S
Zn1262 N1276   2.039   .     S
C1264  C399    1.168   1_556 S
C1265  C1270   1.403   .     A
C1265  N1277   1.435   .     S
C1266  C1269   1.403   .     A
C1266  N1280   1.435   .     S
C1266  C1172   1.386   1_655 S
C1267  N1283   1.439   .     S
C1267  C1269   1.404   .     A
C1267  C1169   1.386   1_655 S
C1268  N1286   1.439   .     S
C1268  C1270   1.404   .     A
C1271  N1276   1.379   .     A
C1271  O1289   1.375   .     S
C1272  N1275   1.379   .     A
C1272  O1291   1.375   .     S
C1272  C985    1.417   1_565 S
C1273  N1276   1.378   .     A
C1273  O1293   1.376   .     S
C1274  N1275   1.378   .     A
C1274  O1295   1.376   .     S
C1274  C983    1.417   1_565 S
N1277  O1278   1.301   .     A
N1277  O1279   1.301   .     A
N1280  O1281   1.300   .     A
N1280  O1282   1.301   .     A
N1283  O1285   1.300   .     A
N1283  O1284   1.301   .     A
N1286  O1288   1.300   .     A
N1286  O1287   1.301   .     A
O1289  H1290   0.979   .     S
O1291  H1292   0.979   .     S
O1293  H1294   0.980   .     S
O1295  H1296   0.980   .     S
