data_str_m2_o1_o10_pcu_sym.99
_audit_creation_date              2020-01-03
_audit_creation_method            'Materials Studio'
_symmetry_space_group_name_H-M    'P1'
_symmetry_Int_Tables_number       1
_symmetry_cell_setting            triclinic
loop_
_symmetry_equiv_pos_as_xyz
  x,y,z
_cell_length_a                    26.2668
_cell_length_b                    32.4499
_cell_length_c                    28.9810
_cell_angle_alpha                 89.8993
_cell_angle_beta                  98.2754
_cell_angle_gamma                 94.0692
loop_
_atom_site_label
_atom_site_type_symbol
_atom_site_fract_x
_atom_site_fract_y
_atom_site_fract_z
_atom_site_U_iso_or_equiv
_atom_site_adp_type
_atom_site_occupancy
C1     C     0.16661   0.08750   0.16666   0.00000  Uiso   1.00
C2     C     0.16672   0.24583   0.16667   0.00000  Uiso   1.00
C3     C     0.06805   0.16677   0.15460   0.00000  Uiso   1.00
C4     C     0.26529   0.16657   0.17874   0.00000  Uiso   1.00
C5     C     0.01269   0.16771   0.14822   0.00000  Uiso   1.00
C6     C     0.32064   0.16562   0.18511   0.00000  Uiso   1.00
C7     C     0.15885   0.02094   0.12431   0.00000  Uiso   1.00
C8     C     0.17449   0.31239   0.20902   0.00000  Uiso   1.00
C9     C     0.15880   0.31164   0.12431   0.00000  Uiso   1.00
C10    C     0.17454   0.02170   0.20903   0.00000  Uiso   1.00
C11    C     0.16667   0.29052   0.16665   0.00000  Uiso   1.00
C12    C     0.16666   0.04281   0.16668   0.00000  Uiso   1.00
C13    C     0.13117   0.14180   0.01998   0.00000  Uiso   1.00
C14    C     0.20216   0.19154   0.31335   0.00000  Uiso   1.00
C15    C     0.13253   0.14079   0.30422   0.00000  Uiso   1.00
C16    C     0.20080   0.19255   0.02911   0.00000  Uiso   1.00
Cu17   Cu    0.16667   0.16667   0.21355   0.00000  Uiso   1.00
Cu18   Cu    0.16667   0.16666   0.11978   0.00000  Uiso   1.00
H19    H     0.32599   0.17063   0.11308   0.00000  Uiso   1.00
H20    H     0.00734   0.16271   0.22026   0.00000  Uiso   1.00
H21    H     0.15249   0.03665   0.09119   0.00000  Uiso   1.00
H22    H     0.18085   0.29668   0.24214   0.00000  Uiso   1.00
H23    H     0.15231   0.29529   0.09119   0.00000  Uiso   1.00
H24    H     0.18103   0.03804   0.24214   0.00000  Uiso   1.00
N25    N     0.16668   0.16668   0.28403   0.00000  Uiso   1.00
N26    N     0.16665   0.16666   0.04931   0.00000  Uiso   1.00
O27    O     0.16666   0.10655   0.20625   0.00000  Uiso   1.00
O28    O     0.16667   0.22678   0.12709   0.00000  Uiso   1.00
O29    O     0.16666   0.10654   0.12706   0.00000  Uiso   1.00
O30    O     0.16667   0.22679   0.20628   0.00000  Uiso   1.00
O31    O     0.09161   0.16667   0.19712   0.00000  Uiso   1.00
O32    O     0.24172   0.16666   0.13621   0.00000  Uiso   1.00
O33    O     0.09161   0.16666   0.11793   0.00000  Uiso   1.00
O34    O     0.24172   0.16667   0.21540   0.00000  Uiso   1.00
N35    N     0.09180   0.11665   0.03787   0.00000  Uiso   1.00
H36    H     0.09883   0.10406   0.07024   0.00000  Uiso   1.00
C37    C     0.03884   0.12632   0.02384   0.00000  Uiso   1.00
H38    H     0.02261   0.13825   0.05382   0.00000  Uiso   1.00
H39    H     0.01529   0.09778   0.01105   0.00000  Uiso   1.00
H40    H     0.03586   0.14966   0.32910   0.00000  Uiso   1.00
N41    N     0.24153   0.21667   0.29546   0.00000  Uiso   1.00
H42    H     0.23451   0.22926   0.26308   0.00000  Uiso   1.00
C43    C     0.29450   0.20701   0.30951   0.00000  Uiso   1.00
H44    H     0.31071   0.19504   0.27953   0.00000  Uiso   1.00
H45    H     0.29748   0.18370   0.00428   0.00000  Uiso   1.00
H46    H     0.31805   0.23555   0.32225   0.00000  Uiso   1.00
I47    I     0.08311   0.09406   0.26438   0.00000  Uiso   1.00
I48    I     0.25022   0.23928   0.06895   0.00000  Uiso   1.00
C49    C     0.49995   0.08750   0.16666   0.00000  Uiso   1.00
C50    C     0.50005   0.24583   0.16667   0.00000  Uiso   1.00
C51    C     0.40138   0.16677   0.15460   0.00000  Uiso   1.00
C52    C     0.59862   0.16657   0.17874   0.00000  Uiso   1.00
C53    C     0.34603   0.16771   0.14822   0.00000  Uiso   1.00
C54    C     0.65397   0.16562   0.18511   0.00000  Uiso   1.00
C55    C     0.49218   0.02094   0.12431   0.00000  Uiso   1.00
C56    C     0.50782   0.31239   0.20902   0.00000  Uiso   1.00
C57    C     0.49213   0.31164   0.12431   0.00000  Uiso   1.00
C58    C     0.50787   0.02170   0.20903   0.00000  Uiso   1.00
C59    C     0.50000   0.29052   0.16665   0.00000  Uiso   1.00
C60    C     0.50000   0.04281   0.16668   0.00000  Uiso   1.00
C61    C     0.46450   0.14180   0.01998   0.00000  Uiso   1.00
C62    C     0.53550   0.19154   0.31335   0.00000  Uiso   1.00
C63    C     0.46587   0.14079   0.30422   0.00000  Uiso   1.00
C64    C     0.53413   0.19255   0.02911   0.00000  Uiso   1.00
Cu65   Cu    0.50000   0.16667   0.21355   0.00000  Uiso   1.00
Cu66   Cu    0.50000   0.16666   0.11978   0.00000  Uiso   1.00
H67    H     0.65932   0.17063   0.11308   0.00000  Uiso   1.00
H68    H     0.34068   0.16271   0.22026   0.00000  Uiso   1.00
H69    H     0.48582   0.03665   0.09119   0.00000  Uiso   1.00
H70    H     0.51418   0.29668   0.24214   0.00000  Uiso   1.00
H71    H     0.48564   0.29529   0.09119   0.00000  Uiso   1.00
H72    H     0.51436   0.03804   0.24214   0.00000  Uiso   1.00
N73    N     0.50001   0.16668   0.28403   0.00000  Uiso   1.00
N74    N     0.49999   0.16666   0.04931   0.00000  Uiso   1.00
O75    O     0.50000   0.10655   0.20625   0.00000  Uiso   1.00
O76    O     0.50000   0.22678   0.12709   0.00000  Uiso   1.00
O77    O     0.50000   0.10654   0.12706   0.00000  Uiso   1.00
O78    O     0.50000   0.22679   0.20628   0.00000  Uiso   1.00
O79    O     0.42495   0.16667   0.19712   0.00000  Uiso   1.00
O80    O     0.57505   0.16666   0.13621   0.00000  Uiso   1.00
O81    O     0.42494   0.16666   0.11793   0.00000  Uiso   1.00
O82    O     0.57506   0.16667   0.21540   0.00000  Uiso   1.00
N83    N     0.42514   0.11665   0.03787   0.00000  Uiso   1.00
H84    H     0.43217   0.10406   0.07024   0.00000  Uiso   1.00
C85    C     0.37217   0.12632   0.02384   0.00000  Uiso   1.00
H86    H     0.35595   0.13825   0.05382   0.00000  Uiso   1.00
H87    H     0.34862   0.09778   0.01105   0.00000  Uiso   1.00
H88    H     0.36919   0.14966   0.32910   0.00000  Uiso   1.00
N89    N     0.57487   0.21667   0.29546   0.00000  Uiso   1.00
H90    H     0.56784   0.22926   0.26308   0.00000  Uiso   1.00
C91    C     0.62783   0.20701   0.30951   0.00000  Uiso   1.00
H92    H     0.64404   0.19504   0.27953   0.00000  Uiso   1.00
H93    H     0.63081   0.18370   0.00428   0.00000  Uiso   1.00
H94    H     0.65139   0.23555   0.32225   0.00000  Uiso   1.00
I95    I     0.41644   0.09406   0.26438   0.00000  Uiso   1.00
I96    I     0.58356   0.23928   0.06895   0.00000  Uiso   1.00
C97    C     0.83328   0.08750   0.16666   0.00000  Uiso   1.00
C98    C     0.83339   0.24583   0.16667   0.00000  Uiso   1.00
C99    C     0.73471   0.16677   0.15460   0.00000  Uiso   1.00
C100   C     0.93195   0.16657   0.17874   0.00000  Uiso   1.00
C101   C     0.67936   0.16771   0.14822   0.00000  Uiso   1.00
C102   C     0.98731   0.16562   0.18511   0.00000  Uiso   1.00
C103   C     0.82551   0.02094   0.12431   0.00000  Uiso   1.00
C104   C     0.84115   0.31239   0.20902   0.00000  Uiso   1.00
C105   C     0.82546   0.31164   0.12431   0.00000  Uiso   1.00
C106   C     0.84120   0.02170   0.20903   0.00000  Uiso   1.00
C107   C     0.83334   0.29052   0.16665   0.00000  Uiso   1.00
C108   C     0.83333   0.04281   0.16668   0.00000  Uiso   1.00
C109   C     0.79784   0.14180   0.01998   0.00000  Uiso   1.00
C110   C     0.86883   0.19154   0.31335   0.00000  Uiso   1.00
C111   C     0.79920   0.14079   0.30422   0.00000  Uiso   1.00
C112   C     0.86746   0.19255   0.02911   0.00000  Uiso   1.00
Cu113  Cu    0.83333   0.16667   0.21355   0.00000  Uiso   1.00
Cu114  Cu    0.83333   0.16666   0.11978   0.00000  Uiso   1.00
H115   H     0.99266   0.17063   0.11308   0.00000  Uiso   1.00
H116   H     0.67401   0.16271   0.22026   0.00000  Uiso   1.00
H117   H     0.81915   0.03665   0.09119   0.00000  Uiso   1.00
H118   H     0.84751   0.29668   0.24214   0.00000  Uiso   1.00
H119   H     0.81897   0.29529   0.09119   0.00000  Uiso   1.00
H120   H     0.84769   0.03804   0.24214   0.00000  Uiso   1.00
N121   N     0.83335   0.16668   0.28403   0.00000  Uiso   1.00
N122   N     0.83332   0.16666   0.04931   0.00000  Uiso   1.00
O123   O     0.83333   0.10655   0.20625   0.00000  Uiso   1.00
O124   O     0.83334   0.22678   0.12709   0.00000  Uiso   1.00
O125   O     0.83333   0.10654   0.12706   0.00000  Uiso   1.00
O126   O     0.83334   0.22679   0.20628   0.00000  Uiso   1.00
O127   O     0.75828   0.16667   0.19712   0.00000  Uiso   1.00
O128   O     0.90839   0.16666   0.13621   0.00000  Uiso   1.00
O129   O     0.75828   0.16666   0.11793   0.00000  Uiso   1.00
O130   O     0.90839   0.16667   0.21540   0.00000  Uiso   1.00
N131   N     0.75847   0.11665   0.03787   0.00000  Uiso   1.00
H132   H     0.76550   0.10406   0.07024   0.00000  Uiso   1.00
C133   C     0.70551   0.12632   0.02384   0.00000  Uiso   1.00
H134   H     0.68928   0.13825   0.05382   0.00000  Uiso   1.00
H135   H     0.68196   0.09778   0.01105   0.00000  Uiso   1.00
H136   H     0.70253   0.14966   0.32910   0.00000  Uiso   1.00
N137   N     0.90820   0.21667   0.29546   0.00000  Uiso   1.00
H138   H     0.90117   0.22926   0.26308   0.00000  Uiso   1.00
C139   C     0.96116   0.20701   0.30951   0.00000  Uiso   1.00
H140   H     0.97738   0.19504   0.27953   0.00000  Uiso   1.00
H141   H     0.96414   0.18370   0.00428   0.00000  Uiso   1.00
H142   H     0.98472   0.23555   0.32225   0.00000  Uiso   1.00
I143   I     0.74978   0.09406   0.26438   0.00000  Uiso   1.00
I144   I     0.91689   0.23928   0.06895   0.00000  Uiso   1.00
C145   C     0.16661   0.42083   0.16666   0.00000  Uiso   1.00
C146   C     0.16672   0.57917   0.16667   0.00000  Uiso   1.00
C147   C     0.06805   0.50010   0.15460   0.00000  Uiso   1.00
C148   C     0.26529   0.49990   0.17874   0.00000  Uiso   1.00
C149   C     0.01269   0.50105   0.14822   0.00000  Uiso   1.00
C150   C     0.32064   0.49896   0.18511   0.00000  Uiso   1.00
C151   C     0.15885   0.35427   0.12431   0.00000  Uiso   1.00
C152   C     0.17449   0.64573   0.20902   0.00000  Uiso   1.00
C153   C     0.15880   0.64497   0.12431   0.00000  Uiso   1.00
C154   C     0.17454   0.35503   0.20903   0.00000  Uiso   1.00
C155   C     0.16667   0.62386   0.16665   0.00000  Uiso   1.00
C156   C     0.16666   0.37615   0.16668   0.00000  Uiso   1.00
C157   C     0.13117   0.47513   0.01998   0.00000  Uiso   1.00
C158   C     0.20216   0.52487   0.31335   0.00000  Uiso   1.00
C159   C     0.13253   0.47412   0.30422   0.00000  Uiso   1.00
C160   C     0.20080   0.52588   0.02911   0.00000  Uiso   1.00
Cu161  Cu    0.16667   0.50001   0.21355   0.00000  Uiso   1.00
Cu162  Cu    0.16667   0.49999   0.11978   0.00000  Uiso   1.00
H163   H     0.32599   0.50396   0.11308   0.00000  Uiso   1.00
H164   H     0.00734   0.49604   0.22026   0.00000  Uiso   1.00
H165   H     0.15249   0.36999   0.09119   0.00000  Uiso   1.00
H166   H     0.18085   0.63001   0.24214   0.00000  Uiso   1.00
H167   H     0.15231   0.62863   0.09119   0.00000  Uiso   1.00
H168   H     0.18103   0.37137   0.24214   0.00000  Uiso   1.00
N169   N     0.16668   0.50001   0.28403   0.00000  Uiso   1.00
N170   N     0.16665   0.49999   0.04931   0.00000  Uiso   1.00
O171   O     0.16666   0.43989   0.20625   0.00000  Uiso   1.00
O172   O     0.16667   0.56011   0.12709   0.00000  Uiso   1.00
O173   O     0.16666   0.43988   0.12706   0.00000  Uiso   1.00
O174   O     0.16667   0.56012   0.20628   0.00000  Uiso   1.00
O175   O     0.09161   0.50000   0.19712   0.00000  Uiso   1.00
O176   O     0.24172   0.50000   0.13621   0.00000  Uiso   1.00
O177   O     0.09161   0.49999   0.11793   0.00000  Uiso   1.00
O178   O     0.24172   0.50001   0.21540   0.00000  Uiso   1.00
N179   N     0.09180   0.44999   0.03787   0.00000  Uiso   1.00
H180   H     0.09883   0.43740   0.07024   0.00000  Uiso   1.00
C181   C     0.03884   0.45965   0.02384   0.00000  Uiso   1.00
H182   H     0.02261   0.47158   0.05382   0.00000  Uiso   1.00
H183   H     0.01529   0.43112   0.01105   0.00000  Uiso   1.00
H184   H     0.03586   0.48299   0.32910   0.00000  Uiso   1.00
N185   N     0.24153   0.55001   0.29546   0.00000  Uiso   1.00
H186   H     0.23451   0.56259   0.26308   0.00000  Uiso   1.00
C187   C     0.29450   0.54034   0.30951   0.00000  Uiso   1.00
H188   H     0.31071   0.52837   0.27953   0.00000  Uiso   1.00
H189   H     0.29748   0.51703   0.00428   0.00000  Uiso   1.00
H190   H     0.31805   0.56889   0.32225   0.00000  Uiso   1.00
I191   I     0.08311   0.42739   0.26438   0.00000  Uiso   1.00
I192   I     0.25022   0.57261   0.06895   0.00000  Uiso   1.00
C193   C     0.49995   0.42083   0.16666   0.00000  Uiso   1.00
C194   C     0.50005   0.57917   0.16667   0.00000  Uiso   1.00
C195   C     0.40138   0.50010   0.15460   0.00000  Uiso   1.00
C196   C     0.59862   0.49990   0.17874   0.00000  Uiso   1.00
C197   C     0.34603   0.50105   0.14822   0.00000  Uiso   1.00
C198   C     0.65397   0.49896   0.18511   0.00000  Uiso   1.00
C199   C     0.49218   0.35427   0.12431   0.00000  Uiso   1.00
C200   C     0.50782   0.64573   0.20902   0.00000  Uiso   1.00
C201   C     0.49213   0.64497   0.12431   0.00000  Uiso   1.00
C202   C     0.50787   0.35503   0.20903   0.00000  Uiso   1.00
C203   C     0.50000   0.62386   0.16665   0.00000  Uiso   1.00
C204   C     0.50000   0.37615   0.16668   0.00000  Uiso   1.00
C205   C     0.46450   0.47513   0.01998   0.00000  Uiso   1.00
C206   C     0.53550   0.52487   0.31335   0.00000  Uiso   1.00
C207   C     0.46587   0.47412   0.30422   0.00000  Uiso   1.00
C208   C     0.53413   0.52588   0.02911   0.00000  Uiso   1.00
Cu209  Cu    0.50000   0.50001   0.21355   0.00000  Uiso   1.00
Cu210  Cu    0.50000   0.49999   0.11978   0.00000  Uiso   1.00
H211   H     0.65932   0.50396   0.11308   0.00000  Uiso   1.00
H212   H     0.34068   0.49604   0.22026   0.00000  Uiso   1.00
H213   H     0.48582   0.36999   0.09119   0.00000  Uiso   1.00
H214   H     0.51418   0.63001   0.24214   0.00000  Uiso   1.00
H215   H     0.48564   0.62863   0.09119   0.00000  Uiso   1.00
H216   H     0.51436   0.37137   0.24214   0.00000  Uiso   1.00
N217   N     0.50001   0.50001   0.28403   0.00000  Uiso   1.00
N218   N     0.49999   0.49999   0.04931   0.00000  Uiso   1.00
O219   O     0.50000   0.43989   0.20625   0.00000  Uiso   1.00
O220   O     0.50000   0.56011   0.12709   0.00000  Uiso   1.00
O221   O     0.50000   0.43988   0.12706   0.00000  Uiso   1.00
O222   O     0.50000   0.56012   0.20628   0.00000  Uiso   1.00
O223   O     0.42495   0.50000   0.19712   0.00000  Uiso   1.00
O224   O     0.57505   0.50000   0.13621   0.00000  Uiso   1.00
O225   O     0.42494   0.49999   0.11793   0.00000  Uiso   1.00
O226   O     0.57506   0.50001   0.21540   0.00000  Uiso   1.00
N227   N     0.42514   0.44999   0.03787   0.00000  Uiso   1.00
H228   H     0.43217   0.43740   0.07024   0.00000  Uiso   1.00
C229   C     0.37217   0.45965   0.02384   0.00000  Uiso   1.00
H230   H     0.35595   0.47158   0.05382   0.00000  Uiso   1.00
H231   H     0.34862   0.43112   0.01105   0.00000  Uiso   1.00
H232   H     0.36919   0.48299   0.32910   0.00000  Uiso   1.00
N233   N     0.57487   0.55001   0.29546   0.00000  Uiso   1.00
H234   H     0.56784   0.56259   0.26308   0.00000  Uiso   1.00
C235   C     0.62783   0.54034   0.30951   0.00000  Uiso   1.00
H236   H     0.64404   0.52837   0.27953   0.00000  Uiso   1.00
H237   H     0.63081   0.51703   0.00428   0.00000  Uiso   1.00
H238   H     0.65139   0.56889   0.32225   0.00000  Uiso   1.00
I239   I     0.41644   0.42739   0.26438   0.00000  Uiso   1.00
I240   I     0.58356   0.57261   0.06895   0.00000  Uiso   1.00
C241   C     0.83328   0.42083   0.16666   0.00000  Uiso   1.00
C242   C     0.83339   0.57917   0.16667   0.00000  Uiso   1.00
C243   C     0.73471   0.50010   0.15460   0.00000  Uiso   1.00
C244   C     0.93195   0.49990   0.17874   0.00000  Uiso   1.00
C245   C     0.67936   0.50105   0.14822   0.00000  Uiso   1.00
C246   C     0.98731   0.49896   0.18511   0.00000  Uiso   1.00
C247   C     0.82551   0.35427   0.12431   0.00000  Uiso   1.00
C248   C     0.84115   0.64573   0.20902   0.00000  Uiso   1.00
C249   C     0.82546   0.64497   0.12431   0.00000  Uiso   1.00
C250   C     0.84120   0.35503   0.20903   0.00000  Uiso   1.00
C251   C     0.83334   0.62386   0.16665   0.00000  Uiso   1.00
C252   C     0.83333   0.37615   0.16668   0.00000  Uiso   1.00
C253   C     0.79784   0.47513   0.01998   0.00000  Uiso   1.00
C254   C     0.86883   0.52487   0.31335   0.00000  Uiso   1.00
C255   C     0.79920   0.47412   0.30422   0.00000  Uiso   1.00
C256   C     0.86746   0.52588   0.02911   0.00000  Uiso   1.00
Cu257  Cu    0.83333   0.50001   0.21355   0.00000  Uiso   1.00
Cu258  Cu    0.83333   0.49999   0.11978   0.00000  Uiso   1.00
H259   H     0.99266   0.50396   0.11308   0.00000  Uiso   1.00
H260   H     0.67401   0.49604   0.22026   0.00000  Uiso   1.00
H261   H     0.81915   0.36999   0.09119   0.00000  Uiso   1.00
H262   H     0.84751   0.63001   0.24214   0.00000  Uiso   1.00
H263   H     0.81897   0.62863   0.09119   0.00000  Uiso   1.00
H264   H     0.84769   0.37137   0.24214   0.00000  Uiso   1.00
N265   N     0.83335   0.50001   0.28403   0.00000  Uiso   1.00
N266   N     0.83332   0.49999   0.04931   0.00000  Uiso   1.00
O267   O     0.83333   0.43989   0.20625   0.00000  Uiso   1.00
O268   O     0.83334   0.56011   0.12709   0.00000  Uiso   1.00
O269   O     0.83333   0.43988   0.12706   0.00000  Uiso   1.00
O270   O     0.83334   0.56012   0.20628   0.00000  Uiso   1.00
O271   O     0.75828   0.50000   0.19712   0.00000  Uiso   1.00
O272   O     0.90839   0.50000   0.13621   0.00000  Uiso   1.00
O273   O     0.75828   0.49999   0.11793   0.00000  Uiso   1.00
O274   O     0.90839   0.50001   0.21540   0.00000  Uiso   1.00
N275   N     0.75847   0.44999   0.03787   0.00000  Uiso   1.00
H276   H     0.76550   0.43740   0.07024   0.00000  Uiso   1.00
C277   C     0.70551   0.45965   0.02384   0.00000  Uiso   1.00
H278   H     0.68928   0.47158   0.05382   0.00000  Uiso   1.00
H279   H     0.68196   0.43112   0.01105   0.00000  Uiso   1.00
H280   H     0.70253   0.48299   0.32910   0.00000  Uiso   1.00
N281   N     0.90820   0.55001   0.29546   0.00000  Uiso   1.00
H282   H     0.90117   0.56259   0.26308   0.00000  Uiso   1.00
C283   C     0.96116   0.54034   0.30951   0.00000  Uiso   1.00
H284   H     0.97738   0.52837   0.27953   0.00000  Uiso   1.00
H285   H     0.96414   0.51703   0.00428   0.00000  Uiso   1.00
H286   H     0.98472   0.56889   0.32225   0.00000  Uiso   1.00
I287   I     0.74978   0.42739   0.26438   0.00000  Uiso   1.00
I288   I     0.91689   0.57261   0.06895   0.00000  Uiso   1.00
C289   C     0.16661   0.75417   0.16666   0.00000  Uiso   1.00
C290   C     0.16672   0.91250   0.16667   0.00000  Uiso   1.00
C291   C     0.06805   0.83343   0.15460   0.00000  Uiso   1.00
C292   C     0.26529   0.83323   0.17874   0.00000  Uiso   1.00
C293   C     0.01269   0.83438   0.14822   0.00000  Uiso   1.00
C294   C     0.32064   0.83229   0.18511   0.00000  Uiso   1.00
C295   C     0.15885   0.68761   0.12431   0.00000  Uiso   1.00
C296   C     0.17449   0.97906   0.20902   0.00000  Uiso   1.00
C297   C     0.15880   0.97830   0.12431   0.00000  Uiso   1.00
C298   C     0.17454   0.68836   0.20903   0.00000  Uiso   1.00
C299   C     0.16667   0.95719   0.16665   0.00000  Uiso   1.00
C300   C     0.16666   0.70948   0.16668   0.00000  Uiso   1.00
C301   C     0.13117   0.80846   0.01998   0.00000  Uiso   1.00
C302   C     0.20216   0.85820   0.31335   0.00000  Uiso   1.00
C303   C     0.13253   0.80745   0.30422   0.00000  Uiso   1.00
C304   C     0.20080   0.85921   0.02911   0.00000  Uiso   1.00
Cu305  Cu    0.16667   0.83334   0.21355   0.00000  Uiso   1.00
Cu306  Cu    0.16667   0.83333   0.11978   0.00000  Uiso   1.00
H307   H     0.32599   0.83729   0.11308   0.00000  Uiso   1.00
H308   H     0.00734   0.82938   0.22026   0.00000  Uiso   1.00
H309   H     0.15249   0.70332   0.09119   0.00000  Uiso   1.00
H310   H     0.18085   0.96335   0.24214   0.00000  Uiso   1.00
H311   H     0.15231   0.96196   0.09119   0.00000  Uiso   1.00
H312   H     0.18103   0.70471   0.24214   0.00000  Uiso   1.00
N313   N     0.16668   0.83334   0.28403   0.00000  Uiso   1.00
N314   N     0.16665   0.83332   0.04931   0.00000  Uiso   1.00
O315   O     0.16666   0.77322   0.20625   0.00000  Uiso   1.00
O316   O     0.16667   0.89345   0.12709   0.00000  Uiso   1.00
O317   O     0.16666   0.77321   0.12706   0.00000  Uiso   1.00
O318   O     0.16667   0.89346   0.20628   0.00000  Uiso   1.00
O319   O     0.09161   0.83334   0.19712   0.00000  Uiso   1.00
O320   O     0.24172   0.83333   0.13621   0.00000  Uiso   1.00
O321   O     0.09161   0.83333   0.11793   0.00000  Uiso   1.00
O322   O     0.24172   0.83334   0.21540   0.00000  Uiso   1.00
N323   N     0.09180   0.78332   0.03787   0.00000  Uiso   1.00
H324   H     0.09883   0.77073   0.07024   0.00000  Uiso   1.00
C325   C     0.03884   0.79299   0.02384   0.00000  Uiso   1.00
H326   H     0.02261   0.80492   0.05382   0.00000  Uiso   1.00
H327   H     0.01529   0.76445   0.01105   0.00000  Uiso   1.00
H328   H     0.03586   0.81632   0.32910   0.00000  Uiso   1.00
N329   N     0.24153   0.88334   0.29546   0.00000  Uiso   1.00
H330   H     0.23451   0.89592   0.26308   0.00000  Uiso   1.00
C331   C     0.29450   0.87368   0.30951   0.00000  Uiso   1.00
H332   H     0.31071   0.86171   0.27953   0.00000  Uiso   1.00
H333   H     0.29748   0.85036   0.00428   0.00000  Uiso   1.00
H334   H     0.31805   0.90222   0.32225   0.00000  Uiso   1.00
I335   I     0.08311   0.76072   0.26438   0.00000  Uiso   1.00
I336   I     0.25022   0.90595   0.06895   0.00000  Uiso   1.00
C337   C     0.49995   0.75417   0.16666   0.00000  Uiso   1.00
C338   C     0.50005   0.91250   0.16667   0.00000  Uiso   1.00
C339   C     0.40138   0.83343   0.15460   0.00000  Uiso   1.00
C340   C     0.59862   0.83323   0.17874   0.00000  Uiso   1.00
C341   C     0.34603   0.83438   0.14822   0.00000  Uiso   1.00
C342   C     0.65397   0.83229   0.18511   0.00000  Uiso   1.00
C343   C     0.49218   0.68761   0.12431   0.00000  Uiso   1.00
C344   C     0.50782   0.97906   0.20902   0.00000  Uiso   1.00
C345   C     0.49213   0.97830   0.12431   0.00000  Uiso   1.00
C346   C     0.50787   0.68836   0.20903   0.00000  Uiso   1.00
C347   C     0.50000   0.95719   0.16665   0.00000  Uiso   1.00
C348   C     0.50000   0.70948   0.16668   0.00000  Uiso   1.00
C349   C     0.46450   0.80846   0.01998   0.00000  Uiso   1.00
C350   C     0.53550   0.85820   0.31335   0.00000  Uiso   1.00
C351   C     0.46587   0.80745   0.30422   0.00000  Uiso   1.00
C352   C     0.53413   0.85921   0.02911   0.00000  Uiso   1.00
Cu353  Cu    0.50000   0.83334   0.21355   0.00000  Uiso   1.00
Cu354  Cu    0.50000   0.83333   0.11978   0.00000  Uiso   1.00
H355   H     0.65932   0.83729   0.11308   0.00000  Uiso   1.00
H356   H     0.34068   0.82938   0.22026   0.00000  Uiso   1.00
H357   H     0.48582   0.70332   0.09119   0.00000  Uiso   1.00
H358   H     0.51418   0.96335   0.24214   0.00000  Uiso   1.00
H359   H     0.48564   0.96196   0.09119   0.00000  Uiso   1.00
H360   H     0.51436   0.70471   0.24214   0.00000  Uiso   1.00
N361   N     0.50001   0.83334   0.28403   0.00000  Uiso   1.00
N362   N     0.49999   0.83332   0.04931   0.00000  Uiso   1.00
O363   O     0.50000   0.77322   0.20625   0.00000  Uiso   1.00
O364   O     0.50000   0.89345   0.12709   0.00000  Uiso   1.00
O365   O     0.50000   0.77321   0.12706   0.00000  Uiso   1.00
O366   O     0.50000   0.89346   0.20628   0.00000  Uiso   1.00
O367   O     0.42495   0.83334   0.19712   0.00000  Uiso   1.00
O368   O     0.57505   0.83333   0.13621   0.00000  Uiso   1.00
O369   O     0.42494   0.83333   0.11793   0.00000  Uiso   1.00
O370   O     0.57506   0.83334   0.21540   0.00000  Uiso   1.00
N371   N     0.42514   0.78332   0.03787   0.00000  Uiso   1.00
H372   H     0.43217   0.77073   0.07024   0.00000  Uiso   1.00
C373   C     0.37217   0.79299   0.02384   0.00000  Uiso   1.00
H374   H     0.35595   0.80492   0.05382   0.00000  Uiso   1.00
H375   H     0.34862   0.76445   0.01105   0.00000  Uiso   1.00
H376   H     0.36919   0.81632   0.32910   0.00000  Uiso   1.00
N377   N     0.57487   0.88334   0.29546   0.00000  Uiso   1.00
H378   H     0.56784   0.89592   0.26308   0.00000  Uiso   1.00
C379   C     0.62783   0.87368   0.30951   0.00000  Uiso   1.00
H380   H     0.64404   0.86171   0.27953   0.00000  Uiso   1.00
H381   H     0.63081   0.85036   0.00428   0.00000  Uiso   1.00
H382   H     0.65139   0.90222   0.32225   0.00000  Uiso   1.00
I383   I     0.41644   0.76072   0.26438   0.00000  Uiso   1.00
I384   I     0.58356   0.90595   0.06895   0.00000  Uiso   1.00
C385   C     0.83328   0.75417   0.16666   0.00000  Uiso   1.00
C386   C     0.83339   0.91250   0.16667   0.00000  Uiso   1.00
C387   C     0.73471   0.83343   0.15460   0.00000  Uiso   1.00
C388   C     0.93195   0.83323   0.17874   0.00000  Uiso   1.00
C389   C     0.67936   0.83438   0.14822   0.00000  Uiso   1.00
C390   C     0.98731   0.83229   0.18511   0.00000  Uiso   1.00
C391   C     0.82551   0.68761   0.12431   0.00000  Uiso   1.00
C392   C     0.84115   0.97906   0.20902   0.00000  Uiso   1.00
C393   C     0.82546   0.97830   0.12431   0.00000  Uiso   1.00
C394   C     0.84120   0.68836   0.20903   0.00000  Uiso   1.00
C395   C     0.83334   0.95719   0.16665   0.00000  Uiso   1.00
C396   C     0.83333   0.70948   0.16668   0.00000  Uiso   1.00
C397   C     0.79784   0.80846   0.01998   0.00000  Uiso   1.00
C398   C     0.86883   0.85820   0.31335   0.00000  Uiso   1.00
C399   C     0.79920   0.80745   0.30422   0.00000  Uiso   1.00
C400   C     0.86746   0.85921   0.02911   0.00000  Uiso   1.00
Cu401  Cu    0.83333   0.83334   0.21355   0.00000  Uiso   1.00
Cu402  Cu    0.83333   0.83333   0.11978   0.00000  Uiso   1.00
H403   H     0.99266   0.83729   0.11308   0.00000  Uiso   1.00
H404   H     0.67401   0.82938   0.22026   0.00000  Uiso   1.00
H405   H     0.81915   0.70332   0.09119   0.00000  Uiso   1.00
H406   H     0.84751   0.96335   0.24214   0.00000  Uiso   1.00
H407   H     0.81897   0.96196   0.09119   0.00000  Uiso   1.00
H408   H     0.84769   0.70471   0.24214   0.00000  Uiso   1.00
N409   N     0.83335   0.83334   0.28403   0.00000  Uiso   1.00
N410   N     0.83332   0.83332   0.04931   0.00000  Uiso   1.00
O411   O     0.83333   0.77322   0.20625   0.00000  Uiso   1.00
O412   O     0.83334   0.89345   0.12709   0.00000  Uiso   1.00
O413   O     0.83333   0.77321   0.12706   0.00000  Uiso   1.00
O414   O     0.83334   0.89346   0.20628   0.00000  Uiso   1.00
O415   O     0.75828   0.83334   0.19712   0.00000  Uiso   1.00
O416   O     0.90839   0.83333   0.13621   0.00000  Uiso   1.00
O417   O     0.75828   0.83333   0.11793   0.00000  Uiso   1.00
O418   O     0.90839   0.83334   0.21540   0.00000  Uiso   1.00
N419   N     0.75847   0.78332   0.03787   0.00000  Uiso   1.00
H420   H     0.76550   0.77073   0.07024   0.00000  Uiso   1.00
C421   C     0.70551   0.79299   0.02384   0.00000  Uiso   1.00
H422   H     0.68928   0.80492   0.05382   0.00000  Uiso   1.00
H423   H     0.68196   0.76445   0.01105   0.00000  Uiso   1.00
H424   H     0.70253   0.81632   0.32910   0.00000  Uiso   1.00
N425   N     0.90820   0.88334   0.29546   0.00000  Uiso   1.00
H426   H     0.90117   0.89592   0.26308   0.00000  Uiso   1.00
C427   C     0.96116   0.87368   0.30951   0.00000  Uiso   1.00
H428   H     0.97738   0.86171   0.27953   0.00000  Uiso   1.00
H429   H     0.96414   0.85036   0.00428   0.00000  Uiso   1.00
H430   H     0.98472   0.90222   0.32225   0.00000  Uiso   1.00
I431   I     0.74978   0.76072   0.26438   0.00000  Uiso   1.00
I432   I     0.91689   0.90595   0.06895   0.00000  Uiso   1.00
C433   C     0.16661   0.08750   0.50000   0.00000  Uiso   1.00
C434   C     0.16672   0.24583   0.50000   0.00000  Uiso   1.00
C435   C     0.06805   0.16677   0.48793   0.00000  Uiso   1.00
C436   C     0.26529   0.16657   0.51207   0.00000  Uiso   1.00
C437   C     0.01269   0.16771   0.48155   0.00000  Uiso   1.00
C438   C     0.32064   0.16562   0.51845   0.00000  Uiso   1.00
C439   C     0.15885   0.02094   0.45765   0.00000  Uiso   1.00
C440   C     0.17449   0.31239   0.54236   0.00000  Uiso   1.00
C441   C     0.15880   0.31164   0.45764   0.00000  Uiso   1.00
C442   C     0.17454   0.02170   0.54236   0.00000  Uiso   1.00
C443   C     0.16667   0.29052   0.49999   0.00000  Uiso   1.00
C444   C     0.16666   0.04281   0.50001   0.00000  Uiso   1.00
C445   C     0.13117   0.14180   0.35332   0.00000  Uiso   1.00
C446   C     0.20216   0.19154   0.64669   0.00000  Uiso   1.00
C447   C     0.13253   0.14079   0.63756   0.00000  Uiso   1.00
C448   C     0.20080   0.19255   0.36244   0.00000  Uiso   1.00
Cu449  Cu    0.16667   0.16667   0.54689   0.00000  Uiso   1.00
Cu450  Cu    0.16667   0.16666   0.45311   0.00000  Uiso   1.00
H451   H     0.32599   0.17063   0.44641   0.00000  Uiso   1.00
H452   H     0.00734   0.16271   0.55359   0.00000  Uiso   1.00
H453   H     0.15249   0.03665   0.42453   0.00000  Uiso   1.00
H454   H     0.18085   0.29668   0.57547   0.00000  Uiso   1.00
H455   H     0.15231   0.29529   0.42453   0.00000  Uiso   1.00
H456   H     0.18103   0.03804   0.57547   0.00000  Uiso   1.00
N457   N     0.16668   0.16668   0.61736   0.00000  Uiso   1.00
N458   N     0.16665   0.16666   0.38264   0.00000  Uiso   1.00
O459   O     0.16666   0.10655   0.53958   0.00000  Uiso   1.00
O460   O     0.16667   0.22678   0.46042   0.00000  Uiso   1.00
O461   O     0.16666   0.10654   0.46039   0.00000  Uiso   1.00
O462   O     0.16667   0.22679   0.53961   0.00000  Uiso   1.00
O463   O     0.09161   0.16667   0.53046   0.00000  Uiso   1.00
O464   O     0.24172   0.16666   0.46954   0.00000  Uiso   1.00
O465   O     0.09161   0.16666   0.45127   0.00000  Uiso   1.00
O466   O     0.24172   0.16667   0.54873   0.00000  Uiso   1.00
N467   N     0.09180   0.11665   0.37120   0.00000  Uiso   1.00
H468   H     0.09883   0.10406   0.40358   0.00000  Uiso   1.00
C469   C     0.03884   0.12632   0.35717   0.00000  Uiso   1.00
H470   H     0.02261   0.13825   0.38715   0.00000  Uiso   1.00
H471   H     0.01529   0.09778   0.34439   0.00000  Uiso   1.00
H472   H     0.03586   0.14966   0.66243   0.00000  Uiso   1.00
N473   N     0.24153   0.21667   0.62880   0.00000  Uiso   1.00
H474   H     0.23451   0.22926   0.59642   0.00000  Uiso   1.00
C475   C     0.29450   0.20701   0.64284   0.00000  Uiso   1.00
H476   H     0.31071   0.19504   0.61287   0.00000  Uiso   1.00
H477   H     0.29748   0.18370   0.33761   0.00000  Uiso   1.00
H478   H     0.31805   0.23555   0.65558   0.00000  Uiso   1.00
I479   I     0.08311   0.09406   0.59772   0.00000  Uiso   1.00
I480   I     0.25022   0.23928   0.40228   0.00000  Uiso   1.00
C481   C     0.49995   0.08750   0.50000   0.00000  Uiso   1.00
C482   C     0.50005   0.24583   0.50000   0.00000  Uiso   1.00
C483   C     0.40138   0.16677   0.48793   0.00000  Uiso   1.00
C484   C     0.59862   0.16657   0.51207   0.00000  Uiso   1.00
C485   C     0.34603   0.16771   0.48155   0.00000  Uiso   1.00
C486   C     0.65397   0.16562   0.51845   0.00000  Uiso   1.00
C487   C     0.49218   0.02094   0.45765   0.00000  Uiso   1.00
C488   C     0.50782   0.31239   0.54236   0.00000  Uiso   1.00
C489   C     0.49213   0.31164   0.45764   0.00000  Uiso   1.00
C490   C     0.50787   0.02170   0.54236   0.00000  Uiso   1.00
C491   C     0.50000   0.29052   0.49999   0.00000  Uiso   1.00
C492   C     0.50000   0.04281   0.50001   0.00000  Uiso   1.00
C493   C     0.46450   0.14180   0.35332   0.00000  Uiso   1.00
C494   C     0.53550   0.19154   0.64669   0.00000  Uiso   1.00
C495   C     0.46587   0.14079   0.63756   0.00000  Uiso   1.00
C496   C     0.53413   0.19255   0.36244   0.00000  Uiso   1.00
Cu497  Cu    0.50000   0.16667   0.54689   0.00000  Uiso   1.00
Cu498  Cu    0.50000   0.16666   0.45311   0.00000  Uiso   1.00
H499   H     0.65932   0.17063   0.44641   0.00000  Uiso   1.00
H500   H     0.34068   0.16271   0.55359   0.00000  Uiso   1.00
H501   H     0.48582   0.03665   0.42453   0.00000  Uiso   1.00
H502   H     0.51418   0.29668   0.57547   0.00000  Uiso   1.00
H503   H     0.48564   0.29529   0.42453   0.00000  Uiso   1.00
H504   H     0.51436   0.03804   0.57547   0.00000  Uiso   1.00
N505   N     0.50001   0.16668   0.61736   0.00000  Uiso   1.00
N506   N     0.49999   0.16666   0.38264   0.00000  Uiso   1.00
O507   O     0.50000   0.10655   0.53958   0.00000  Uiso   1.00
O508   O     0.50000   0.22678   0.46042   0.00000  Uiso   1.00
O509   O     0.50000   0.10654   0.46039   0.00000  Uiso   1.00
O510   O     0.50000   0.22679   0.53961   0.00000  Uiso   1.00
O511   O     0.42495   0.16667   0.53046   0.00000  Uiso   1.00
O512   O     0.57505   0.16666   0.46954   0.00000  Uiso   1.00
O513   O     0.42494   0.16666   0.45127   0.00000  Uiso   1.00
O514   O     0.57506   0.16667   0.54873   0.00000  Uiso   1.00
N515   N     0.42514   0.11665   0.37120   0.00000  Uiso   1.00
H516   H     0.43217   0.10406   0.40358   0.00000  Uiso   1.00
C517   C     0.37217   0.12632   0.35717   0.00000  Uiso   1.00
H518   H     0.35595   0.13825   0.38715   0.00000  Uiso   1.00
H519   H     0.34862   0.09778   0.34439   0.00000  Uiso   1.00
H520   H     0.36919   0.14966   0.66243   0.00000  Uiso   1.00
N521   N     0.57487   0.21667   0.62880   0.00000  Uiso   1.00
H522   H     0.56784   0.22926   0.59642   0.00000  Uiso   1.00
C523   C     0.62783   0.20701   0.64284   0.00000  Uiso   1.00
H524   H     0.64404   0.19504   0.61287   0.00000  Uiso   1.00
H525   H     0.63081   0.18370   0.33761   0.00000  Uiso   1.00
H526   H     0.65139   0.23555   0.65558   0.00000  Uiso   1.00
I527   I     0.41644   0.09406   0.59772   0.00000  Uiso   1.00
I528   I     0.58356   0.23928   0.40228   0.00000  Uiso   1.00
C529   C     0.83328   0.08750   0.50000   0.00000  Uiso   1.00
C530   C     0.83339   0.24583   0.50000   0.00000  Uiso   1.00
C531   C     0.73471   0.16677   0.48793   0.00000  Uiso   1.00
C532   C     0.93195   0.16657   0.51207   0.00000  Uiso   1.00
C533   C     0.67936   0.16771   0.48155   0.00000  Uiso   1.00
C534   C     0.98731   0.16562   0.51845   0.00000  Uiso   1.00
C535   C     0.82551   0.02094   0.45765   0.00000  Uiso   1.00
C536   C     0.84115   0.31239   0.54236   0.00000  Uiso   1.00
C537   C     0.82546   0.31164   0.45764   0.00000  Uiso   1.00
C538   C     0.84120   0.02170   0.54236   0.00000  Uiso   1.00
C539   C     0.83334   0.29052   0.49999   0.00000  Uiso   1.00
C540   C     0.83333   0.04281   0.50001   0.00000  Uiso   1.00
C541   C     0.79784   0.14180   0.35332   0.00000  Uiso   1.00
C542   C     0.86883   0.19154   0.64669   0.00000  Uiso   1.00
C543   C     0.79920   0.14079   0.63756   0.00000  Uiso   1.00
C544   C     0.86746   0.19255   0.36244   0.00000  Uiso   1.00
Cu545  Cu    0.83333   0.16667   0.54689   0.00000  Uiso   1.00
Cu546  Cu    0.83333   0.16666   0.45311   0.00000  Uiso   1.00
H547   H     0.99266   0.17063   0.44641   0.00000  Uiso   1.00
H548   H     0.67401   0.16271   0.55359   0.00000  Uiso   1.00
H549   H     0.81915   0.03665   0.42453   0.00000  Uiso   1.00
H550   H     0.84751   0.29668   0.57547   0.00000  Uiso   1.00
H551   H     0.81897   0.29529   0.42453   0.00000  Uiso   1.00
H552   H     0.84769   0.03804   0.57547   0.00000  Uiso   1.00
N553   N     0.83335   0.16668   0.61736   0.00000  Uiso   1.00
N554   N     0.83332   0.16666   0.38264   0.00000  Uiso   1.00
O555   O     0.83333   0.10655   0.53958   0.00000  Uiso   1.00
O556   O     0.83334   0.22678   0.46042   0.00000  Uiso   1.00
O557   O     0.83333   0.10654   0.46039   0.00000  Uiso   1.00
O558   O     0.83334   0.22679   0.53961   0.00000  Uiso   1.00
O559   O     0.75828   0.16667   0.53046   0.00000  Uiso   1.00
O560   O     0.90839   0.16666   0.46954   0.00000  Uiso   1.00
O561   O     0.75828   0.16666   0.45127   0.00000  Uiso   1.00
O562   O     0.90839   0.16667   0.54873   0.00000  Uiso   1.00
N563   N     0.75847   0.11665   0.37120   0.00000  Uiso   1.00
H564   H     0.76550   0.10406   0.40358   0.00000  Uiso   1.00
C565   C     0.70551   0.12632   0.35717   0.00000  Uiso   1.00
H566   H     0.68928   0.13825   0.38715   0.00000  Uiso   1.00
H567   H     0.68196   0.09778   0.34439   0.00000  Uiso   1.00
H568   H     0.70253   0.14966   0.66243   0.00000  Uiso   1.00
N569   N     0.90820   0.21667   0.62880   0.00000  Uiso   1.00
H570   H     0.90117   0.22926   0.59642   0.00000  Uiso   1.00
C571   C     0.96116   0.20701   0.64284   0.00000  Uiso   1.00
H572   H     0.97738   0.19504   0.61287   0.00000  Uiso   1.00
H573   H     0.96414   0.18370   0.33761   0.00000  Uiso   1.00
H574   H     0.98472   0.23555   0.65558   0.00000  Uiso   1.00
I575   I     0.74978   0.09406   0.59772   0.00000  Uiso   1.00
I576   I     0.91689   0.23928   0.40228   0.00000  Uiso   1.00
C577   C     0.16661   0.42083   0.50000   0.00000  Uiso   1.00
C578   C     0.16672   0.57917   0.50000   0.00000  Uiso   1.00
C579   C     0.06805   0.50010   0.48793   0.00000  Uiso   1.00
C580   C     0.26529   0.49990   0.51207   0.00000  Uiso   1.00
C581   C     0.01269   0.50105   0.48155   0.00000  Uiso   1.00
C582   C     0.32064   0.49896   0.51845   0.00000  Uiso   1.00
C583   C     0.15885   0.35427   0.45765   0.00000  Uiso   1.00
C584   C     0.17449   0.64573   0.54236   0.00000  Uiso   1.00
C585   C     0.15880   0.64497   0.45764   0.00000  Uiso   1.00
C586   C     0.17454   0.35503   0.54236   0.00000  Uiso   1.00
C587   C     0.16667   0.62386   0.49999   0.00000  Uiso   1.00
C588   C     0.16666   0.37615   0.50001   0.00000  Uiso   1.00
C589   C     0.13117   0.47513   0.35332   0.00000  Uiso   1.00
C590   C     0.20216   0.52487   0.64669   0.00000  Uiso   1.00
C591   C     0.13253   0.47412   0.63756   0.00000  Uiso   1.00
C592   C     0.20080   0.52588   0.36244   0.00000  Uiso   1.00
Cu593  Cu    0.16667   0.50001   0.54689   0.00000  Uiso   1.00
Cu594  Cu    0.16667   0.49999   0.45311   0.00000  Uiso   1.00
H595   H     0.32599   0.50396   0.44641   0.00000  Uiso   1.00
H596   H     0.00734   0.49604   0.55359   0.00000  Uiso   1.00
H597   H     0.15249   0.36999   0.42453   0.00000  Uiso   1.00
H598   H     0.18085   0.63001   0.57547   0.00000  Uiso   1.00
H599   H     0.15231   0.62863   0.42453   0.00000  Uiso   1.00
H600   H     0.18103   0.37137   0.57547   0.00000  Uiso   1.00
N601   N     0.16668   0.50001   0.61736   0.00000  Uiso   1.00
N602   N     0.16665   0.49999   0.38264   0.00000  Uiso   1.00
O603   O     0.16666   0.43989   0.53958   0.00000  Uiso   1.00
O604   O     0.16667   0.56011   0.46042   0.00000  Uiso   1.00
O605   O     0.16666   0.43988   0.46039   0.00000  Uiso   1.00
O606   O     0.16667   0.56012   0.53961   0.00000  Uiso   1.00
O607   O     0.09161   0.50000   0.53046   0.00000  Uiso   1.00
O608   O     0.24172   0.50000   0.46954   0.00000  Uiso   1.00
O609   O     0.09161   0.49999   0.45127   0.00000  Uiso   1.00
O610   O     0.24172   0.50001   0.54873   0.00000  Uiso   1.00
N611   N     0.09180   0.44999   0.37120   0.00000  Uiso   1.00
H612   H     0.09883   0.43740   0.40358   0.00000  Uiso   1.00
C613   C     0.03884   0.45965   0.35717   0.00000  Uiso   1.00
H614   H     0.02261   0.47158   0.38715   0.00000  Uiso   1.00
H615   H     0.01529   0.43112   0.34439   0.00000  Uiso   1.00
H616   H     0.03586   0.48299   0.66243   0.00000  Uiso   1.00
N617   N     0.24153   0.55001   0.62880   0.00000  Uiso   1.00
H618   H     0.23451   0.56259   0.59642   0.00000  Uiso   1.00
C619   C     0.29450   0.54034   0.64284   0.00000  Uiso   1.00
H620   H     0.31071   0.52837   0.61287   0.00000  Uiso   1.00
H621   H     0.29748   0.51703   0.33761   0.00000  Uiso   1.00
H622   H     0.31805   0.56889   0.65558   0.00000  Uiso   1.00
I623   I     0.08311   0.42739   0.59772   0.00000  Uiso   1.00
I624   I     0.25022   0.57261   0.40228   0.00000  Uiso   1.00
C625   C     0.49995   0.42083   0.50000   0.00000  Uiso   1.00
C626   C     0.50005   0.57917   0.50000   0.00000  Uiso   1.00
C627   C     0.40138   0.50010   0.48793   0.00000  Uiso   1.00
C628   C     0.59862   0.49990   0.51207   0.00000  Uiso   1.00
C629   C     0.34603   0.50105   0.48155   0.00000  Uiso   1.00
C630   C     0.65397   0.49896   0.51845   0.00000  Uiso   1.00
C631   C     0.49218   0.35427   0.45765   0.00000  Uiso   1.00
C632   C     0.50782   0.64573   0.54236   0.00000  Uiso   1.00
C633   C     0.49213   0.64497   0.45764   0.00000  Uiso   1.00
C634   C     0.50787   0.35503   0.54236   0.00000  Uiso   1.00
C635   C     0.50000   0.62386   0.49999   0.00000  Uiso   1.00
C636   C     0.50000   0.37615   0.50001   0.00000  Uiso   1.00
C637   C     0.46450   0.47513   0.35332   0.00000  Uiso   1.00
C638   C     0.53550   0.52487   0.64669   0.00000  Uiso   1.00
C639   C     0.46587   0.47412   0.63756   0.00000  Uiso   1.00
C640   C     0.53413   0.52588   0.36244   0.00000  Uiso   1.00
Cu641  Cu    0.50000   0.50001   0.54689   0.00000  Uiso   1.00
Cu642  Cu    0.50000   0.49999   0.45311   0.00000  Uiso   1.00
H643   H     0.65932   0.50396   0.44641   0.00000  Uiso   1.00
H644   H     0.34068   0.49604   0.55359   0.00000  Uiso   1.00
H645   H     0.48582   0.36999   0.42453   0.00000  Uiso   1.00
H646   H     0.51418   0.63001   0.57547   0.00000  Uiso   1.00
H647   H     0.48564   0.62863   0.42453   0.00000  Uiso   1.00
H648   H     0.51436   0.37137   0.57547   0.00000  Uiso   1.00
N649   N     0.50001   0.50001   0.61736   0.00000  Uiso   1.00
N650   N     0.49999   0.49999   0.38264   0.00000  Uiso   1.00
O651   O     0.50000   0.43989   0.53958   0.00000  Uiso   1.00
O652   O     0.50000   0.56011   0.46042   0.00000  Uiso   1.00
O653   O     0.50000   0.43988   0.46039   0.00000  Uiso   1.00
O654   O     0.50000   0.56012   0.53961   0.00000  Uiso   1.00
O655   O     0.42495   0.50000   0.53046   0.00000  Uiso   1.00
O656   O     0.57505   0.50000   0.46954   0.00000  Uiso   1.00
O657   O     0.42494   0.49999   0.45127   0.00000  Uiso   1.00
O658   O     0.57506   0.50001   0.54873   0.00000  Uiso   1.00
N659   N     0.42514   0.44999   0.37120   0.00000  Uiso   1.00
H660   H     0.43217   0.43740   0.40358   0.00000  Uiso   1.00
C661   C     0.37217   0.45965   0.35717   0.00000  Uiso   1.00
H662   H     0.35595   0.47158   0.38715   0.00000  Uiso   1.00
H663   H     0.34862   0.43112   0.34439   0.00000  Uiso   1.00
H664   H     0.36919   0.48299   0.66243   0.00000  Uiso   1.00
N665   N     0.57487   0.55001   0.62880   0.00000  Uiso   1.00
H666   H     0.56784   0.56259   0.59642   0.00000  Uiso   1.00
C667   C     0.62783   0.54034   0.64284   0.00000  Uiso   1.00
H668   H     0.64404   0.52837   0.61287   0.00000  Uiso   1.00
H669   H     0.63081   0.51703   0.33761   0.00000  Uiso   1.00
H670   H     0.65139   0.56889   0.65558   0.00000  Uiso   1.00
I671   I     0.41644   0.42739   0.59772   0.00000  Uiso   1.00
I672   I     0.58356   0.57261   0.40228   0.00000  Uiso   1.00
C673   C     0.83328   0.42083   0.50000   0.00000  Uiso   1.00
C674   C     0.83339   0.57917   0.50000   0.00000  Uiso   1.00
C675   C     0.73471   0.50010   0.48793   0.00000  Uiso   1.00
C676   C     0.93195   0.49990   0.51207   0.00000  Uiso   1.00
C677   C     0.67936   0.50105   0.48155   0.00000  Uiso   1.00
C678   C     0.98731   0.49896   0.51845   0.00000  Uiso   1.00
C679   C     0.82551   0.35427   0.45765   0.00000  Uiso   1.00
C680   C     0.84115   0.64573   0.54236   0.00000  Uiso   1.00
C681   C     0.82546   0.64497   0.45764   0.00000  Uiso   1.00
C682   C     0.84120   0.35503   0.54236   0.00000  Uiso   1.00
C683   C     0.83334   0.62386   0.49999   0.00000  Uiso   1.00
C684   C     0.83333   0.37615   0.50001   0.00000  Uiso   1.00
C685   C     0.79784   0.47513   0.35332   0.00000  Uiso   1.00
C686   C     0.86883   0.52487   0.64669   0.00000  Uiso   1.00
C687   C     0.79920   0.47412   0.63756   0.00000  Uiso   1.00
C688   C     0.86746   0.52588   0.36244   0.00000  Uiso   1.00
Cu689  Cu    0.83333   0.50001   0.54689   0.00000  Uiso   1.00
Cu690  Cu    0.83333   0.49999   0.45311   0.00000  Uiso   1.00
H691   H     0.99266   0.50396   0.44641   0.00000  Uiso   1.00
H692   H     0.67401   0.49604   0.55359   0.00000  Uiso   1.00
H693   H     0.81915   0.36999   0.42453   0.00000  Uiso   1.00
H694   H     0.84751   0.63001   0.57547   0.00000  Uiso   1.00
H695   H     0.81897   0.62863   0.42453   0.00000  Uiso   1.00
H696   H     0.84769   0.37137   0.57547   0.00000  Uiso   1.00
N697   N     0.83335   0.50001   0.61736   0.00000  Uiso   1.00
N698   N     0.83332   0.49999   0.38264   0.00000  Uiso   1.00
O699   O     0.83333   0.43989   0.53958   0.00000  Uiso   1.00
O700   O     0.83334   0.56011   0.46042   0.00000  Uiso   1.00
O701   O     0.83333   0.43988   0.46039   0.00000  Uiso   1.00
O702   O     0.83334   0.56012   0.53961   0.00000  Uiso   1.00
O703   O     0.75828   0.50000   0.53046   0.00000  Uiso   1.00
O704   O     0.90839   0.50000   0.46954   0.00000  Uiso   1.00
O705   O     0.75828   0.49999   0.45127   0.00000  Uiso   1.00
O706   O     0.90839   0.50001   0.54873   0.00000  Uiso   1.00
N707   N     0.75847   0.44999   0.37120   0.00000  Uiso   1.00
H708   H     0.76550   0.43740   0.40358   0.00000  Uiso   1.00
C709   C     0.70551   0.45965   0.35717   0.00000  Uiso   1.00
H710   H     0.68928   0.47158   0.38715   0.00000  Uiso   1.00
H711   H     0.68196   0.43112   0.34439   0.00000  Uiso   1.00
H712   H     0.70253   0.48299   0.66243   0.00000  Uiso   1.00
N713   N     0.90820   0.55001   0.62880   0.00000  Uiso   1.00
H714   H     0.90117   0.56259   0.59642   0.00000  Uiso   1.00
C715   C     0.96116   0.54034   0.64284   0.00000  Uiso   1.00
H716   H     0.97738   0.52837   0.61287   0.00000  Uiso   1.00
H717   H     0.96414   0.51703   0.33761   0.00000  Uiso   1.00
H718   H     0.98472   0.56889   0.65558   0.00000  Uiso   1.00
I719   I     0.74978   0.42739   0.59772   0.00000  Uiso   1.00
I720   I     0.91689   0.57261   0.40228   0.00000  Uiso   1.00
C721   C     0.16661   0.75417   0.50000   0.00000  Uiso   1.00
C722   C     0.16672   0.91250   0.50000   0.00000  Uiso   1.00
C723   C     0.06805   0.83343   0.48793   0.00000  Uiso   1.00
C724   C     0.26529   0.83323   0.51207   0.00000  Uiso   1.00
C725   C     0.01269   0.83438   0.48155   0.00000  Uiso   1.00
C726   C     0.32064   0.83229   0.51845   0.00000  Uiso   1.00
C727   C     0.15885   0.68761   0.45765   0.00000  Uiso   1.00
C728   C     0.17449   0.97906   0.54236   0.00000  Uiso   1.00
C729   C     0.15880   0.97830   0.45764   0.00000  Uiso   1.00
C730   C     0.17454   0.68836   0.54236   0.00000  Uiso   1.00
C731   C     0.16667   0.95719   0.49999   0.00000  Uiso   1.00
C732   C     0.16666   0.70948   0.50001   0.00000  Uiso   1.00
C733   C     0.13117   0.80846   0.35332   0.00000  Uiso   1.00
C734   C     0.20216   0.85820   0.64669   0.00000  Uiso   1.00
C735   C     0.13253   0.80745   0.63756   0.00000  Uiso   1.00
C736   C     0.20080   0.85921   0.36244   0.00000  Uiso   1.00
Cu737  Cu    0.16667   0.83334   0.54689   0.00000  Uiso   1.00
Cu738  Cu    0.16667   0.83333   0.45311   0.00000  Uiso   1.00
H739   H     0.32599   0.83729   0.44641   0.00000  Uiso   1.00
H740   H     0.00734   0.82938   0.55359   0.00000  Uiso   1.00
H741   H     0.15249   0.70332   0.42453   0.00000  Uiso   1.00
H742   H     0.18085   0.96335   0.57547   0.00000  Uiso   1.00
H743   H     0.15231   0.96196   0.42453   0.00000  Uiso   1.00
H744   H     0.18103   0.70471   0.57547   0.00000  Uiso   1.00
N745   N     0.16668   0.83334   0.61736   0.00000  Uiso   1.00
N746   N     0.16665   0.83332   0.38264   0.00000  Uiso   1.00
O747   O     0.16666   0.77322   0.53958   0.00000  Uiso   1.00
O748   O     0.16667   0.89345   0.46042   0.00000  Uiso   1.00
O749   O     0.16666   0.77321   0.46039   0.00000  Uiso   1.00
O750   O     0.16667   0.89346   0.53961   0.00000  Uiso   1.00
O751   O     0.09161   0.83334   0.53046   0.00000  Uiso   1.00
O752   O     0.24172   0.83333   0.46954   0.00000  Uiso   1.00
O753   O     0.09161   0.83333   0.45127   0.00000  Uiso   1.00
O754   O     0.24172   0.83334   0.54873   0.00000  Uiso   1.00
N755   N     0.09180   0.78332   0.37120   0.00000  Uiso   1.00
H756   H     0.09883   0.77073   0.40358   0.00000  Uiso   1.00
C757   C     0.03884   0.79299   0.35717   0.00000  Uiso   1.00
H758   H     0.02261   0.80492   0.38715   0.00000  Uiso   1.00
H759   H     0.01529   0.76445   0.34439   0.00000  Uiso   1.00
H760   H     0.03586   0.81632   0.66243   0.00000  Uiso   1.00
N761   N     0.24153   0.88334   0.62880   0.00000  Uiso   1.00
H762   H     0.23451   0.89592   0.59642   0.00000  Uiso   1.00
C763   C     0.29450   0.87368   0.64284   0.00000  Uiso   1.00
H764   H     0.31071   0.86171   0.61287   0.00000  Uiso   1.00
H765   H     0.29748   0.85036   0.33761   0.00000  Uiso   1.00
H766   H     0.31805   0.90222   0.65558   0.00000  Uiso   1.00
I767   I     0.08311   0.76072   0.59772   0.00000  Uiso   1.00
I768   I     0.25022   0.90595   0.40228   0.00000  Uiso   1.00
C769   C     0.49995   0.75417   0.50000   0.00000  Uiso   1.00
C770   C     0.50005   0.91250   0.50000   0.00000  Uiso   1.00
C771   C     0.40138   0.83343   0.48793   0.00000  Uiso   1.00
C772   C     0.59862   0.83323   0.51207   0.00000  Uiso   1.00
C773   C     0.34603   0.83438   0.48155   0.00000  Uiso   1.00
C774   C     0.65397   0.83229   0.51845   0.00000  Uiso   1.00
C775   C     0.49218   0.68761   0.45765   0.00000  Uiso   1.00
C776   C     0.50782   0.97906   0.54236   0.00000  Uiso   1.00
C777   C     0.49213   0.97830   0.45764   0.00000  Uiso   1.00
C778   C     0.50787   0.68836   0.54236   0.00000  Uiso   1.00
C779   C     0.50000   0.95719   0.49999   0.00000  Uiso   1.00
C780   C     0.50000   0.70948   0.50001   0.00000  Uiso   1.00
C781   C     0.46450   0.80846   0.35332   0.00000  Uiso   1.00
C782   C     0.53550   0.85820   0.64669   0.00000  Uiso   1.00
C783   C     0.46587   0.80745   0.63756   0.00000  Uiso   1.00
C784   C     0.53413   0.85921   0.36244   0.00000  Uiso   1.00
Cu785  Cu    0.50000   0.83334   0.54689   0.00000  Uiso   1.00
Cu786  Cu    0.50000   0.83333   0.45311   0.00000  Uiso   1.00
H787   H     0.65932   0.83729   0.44641   0.00000  Uiso   1.00
H788   H     0.34068   0.82938   0.55359   0.00000  Uiso   1.00
H789   H     0.48582   0.70332   0.42453   0.00000  Uiso   1.00
H790   H     0.51418   0.96335   0.57547   0.00000  Uiso   1.00
H791   H     0.48564   0.96196   0.42453   0.00000  Uiso   1.00
H792   H     0.51436   0.70471   0.57547   0.00000  Uiso   1.00
N793   N     0.50001   0.83334   0.61736   0.00000  Uiso   1.00
N794   N     0.49999   0.83332   0.38264   0.00000  Uiso   1.00
O795   O     0.50000   0.77322   0.53958   0.00000  Uiso   1.00
O796   O     0.50000   0.89345   0.46042   0.00000  Uiso   1.00
O797   O     0.50000   0.77321   0.46039   0.00000  Uiso   1.00
O798   O     0.50000   0.89346   0.53961   0.00000  Uiso   1.00
O799   O     0.42495   0.83334   0.53046   0.00000  Uiso   1.00
O800   O     0.57505   0.83333   0.46954   0.00000  Uiso   1.00
O801   O     0.42494   0.83333   0.45127   0.00000  Uiso   1.00
O802   O     0.57506   0.83334   0.54873   0.00000  Uiso   1.00
N803   N     0.42514   0.78332   0.37120   0.00000  Uiso   1.00
H804   H     0.43217   0.77073   0.40358   0.00000  Uiso   1.00
C805   C     0.37217   0.79299   0.35717   0.00000  Uiso   1.00
H806   H     0.35595   0.80492   0.38715   0.00000  Uiso   1.00
H807   H     0.34862   0.76445   0.34439   0.00000  Uiso   1.00
H808   H     0.36919   0.81632   0.66243   0.00000  Uiso   1.00
N809   N     0.57487   0.88334   0.62880   0.00000  Uiso   1.00
H810   H     0.56784   0.89592   0.59642   0.00000  Uiso   1.00
C811   C     0.62783   0.87368   0.64284   0.00000  Uiso   1.00
H812   H     0.64404   0.86171   0.61287   0.00000  Uiso   1.00
H813   H     0.63081   0.85036   0.33761   0.00000  Uiso   1.00
H814   H     0.65139   0.90222   0.65558   0.00000  Uiso   1.00
I815   I     0.41644   0.76072   0.59772   0.00000  Uiso   1.00
I816   I     0.58356   0.90595   0.40228   0.00000  Uiso   1.00
C817   C     0.83328   0.75417   0.50000   0.00000  Uiso   1.00
C818   C     0.83339   0.91250   0.50000   0.00000  Uiso   1.00
C819   C     0.73471   0.83343   0.48793   0.00000  Uiso   1.00
C820   C     0.93195   0.83323   0.51207   0.00000  Uiso   1.00
C821   C     0.67936   0.83438   0.48155   0.00000  Uiso   1.00
C822   C     0.98731   0.83229   0.51845   0.00000  Uiso   1.00
C823   C     0.82551   0.68761   0.45765   0.00000  Uiso   1.00
C824   C     0.84115   0.97906   0.54236   0.00000  Uiso   1.00
C825   C     0.82546   0.97830   0.45764   0.00000  Uiso   1.00
C826   C     0.84120   0.68836   0.54236   0.00000  Uiso   1.00
C827   C     0.83334   0.95719   0.49999   0.00000  Uiso   1.00
C828   C     0.83333   0.70948   0.50001   0.00000  Uiso   1.00
C829   C     0.79784   0.80846   0.35332   0.00000  Uiso   1.00
C830   C     0.86883   0.85820   0.64669   0.00000  Uiso   1.00
C831   C     0.79920   0.80745   0.63756   0.00000  Uiso   1.00
C832   C     0.86746   0.85921   0.36244   0.00000  Uiso   1.00
Cu833  Cu    0.83333   0.83334   0.54689   0.00000  Uiso   1.00
Cu834  Cu    0.83333   0.83333   0.45311   0.00000  Uiso   1.00
H835   H     0.99266   0.83729   0.44641   0.00000  Uiso   1.00
H836   H     0.67401   0.82938   0.55359   0.00000  Uiso   1.00
H837   H     0.81915   0.70332   0.42453   0.00000  Uiso   1.00
H838   H     0.84751   0.96335   0.57547   0.00000  Uiso   1.00
H839   H     0.81897   0.96196   0.42453   0.00000  Uiso   1.00
H840   H     0.84769   0.70471   0.57547   0.00000  Uiso   1.00
N841   N     0.83335   0.83334   0.61736   0.00000  Uiso   1.00
N842   N     0.83332   0.83332   0.38264   0.00000  Uiso   1.00
O843   O     0.83333   0.77322   0.53958   0.00000  Uiso   1.00
O844   O     0.83334   0.89345   0.46042   0.00000  Uiso   1.00
O845   O     0.83333   0.77321   0.46039   0.00000  Uiso   1.00
O846   O     0.83334   0.89346   0.53961   0.00000  Uiso   1.00
O847   O     0.75828   0.83334   0.53046   0.00000  Uiso   1.00
O848   O     0.90839   0.83333   0.46954   0.00000  Uiso   1.00
O849   O     0.75828   0.83333   0.45127   0.00000  Uiso   1.00
O850   O     0.90839   0.83334   0.54873   0.00000  Uiso   1.00
N851   N     0.75847   0.78332   0.37120   0.00000  Uiso   1.00
H852   H     0.76550   0.77073   0.40358   0.00000  Uiso   1.00
C853   C     0.70551   0.79299   0.35717   0.00000  Uiso   1.00
H854   H     0.68928   0.80492   0.38715   0.00000  Uiso   1.00
H855   H     0.68196   0.76445   0.34439   0.00000  Uiso   1.00
H856   H     0.70253   0.81632   0.66243   0.00000  Uiso   1.00
N857   N     0.90820   0.88334   0.62880   0.00000  Uiso   1.00
H858   H     0.90117   0.89592   0.59642   0.00000  Uiso   1.00
C859   C     0.96116   0.87368   0.64284   0.00000  Uiso   1.00
H860   H     0.97738   0.86171   0.61287   0.00000  Uiso   1.00
H861   H     0.96414   0.85036   0.33761   0.00000  Uiso   1.00
H862   H     0.98472   0.90222   0.65558   0.00000  Uiso   1.00
I863   I     0.74978   0.76072   0.59772   0.00000  Uiso   1.00
I864   I     0.91689   0.90595   0.40228   0.00000  Uiso   1.00
C865   C     0.16661   0.08750   0.83333   0.00000  Uiso   1.00
C866   C     0.16672   0.24583   0.83334   0.00000  Uiso   1.00
C867   C     0.06805   0.16677   0.82126   0.00000  Uiso   1.00
C868   C     0.26529   0.16657   0.84540   0.00000  Uiso   1.00
C869   C     0.01269   0.16771   0.81489   0.00000  Uiso   1.00
C870   C     0.32064   0.16562   0.85178   0.00000  Uiso   1.00
C871   C     0.15885   0.02094   0.79098   0.00000  Uiso   1.00
C872   C     0.17449   0.31239   0.87569   0.00000  Uiso   1.00
C873   C     0.15880   0.31164   0.79097   0.00000  Uiso   1.00
C874   C     0.17454   0.02170   0.87569   0.00000  Uiso   1.00
C875   C     0.16667   0.29052   0.83332   0.00000  Uiso   1.00
C876   C     0.16666   0.04281   0.83335   0.00000  Uiso   1.00
C877   C     0.13117   0.14180   0.68665   0.00000  Uiso   1.00
C878   C     0.20216   0.19154   0.98002   0.00000  Uiso   1.00
C879   C     0.13253   0.14079   0.97089   0.00000  Uiso   1.00
C880   C     0.20080   0.19255   0.69578   0.00000  Uiso   1.00
Cu881  Cu    0.16667   0.16667   0.88022   0.00000  Uiso   1.00
Cu882  Cu    0.16667   0.16666   0.78645   0.00000  Uiso   1.00
H883   H     0.32599   0.17063   0.77974   0.00000  Uiso   1.00
H884   H     0.00734   0.16271   0.88692   0.00000  Uiso   1.00
H885   H     0.15249   0.03665   0.75786   0.00000  Uiso   1.00
H886   H     0.18085   0.29668   0.90881   0.00000  Uiso   1.00
H887   H     0.15231   0.29529   0.75786   0.00000  Uiso   1.00
H888   H     0.18103   0.03804   0.90881   0.00000  Uiso   1.00
N889   N     0.16668   0.16668   0.95069   0.00000  Uiso   1.00
N890   N     0.16665   0.16666   0.71597   0.00000  Uiso   1.00
O891   O     0.16666   0.10655   0.87291   0.00000  Uiso   1.00
O892   O     0.16667   0.22678   0.79375   0.00000  Uiso   1.00
O893   O     0.16666   0.10654   0.79372   0.00000  Uiso   1.00
O894   O     0.16667   0.22679   0.87294   0.00000  Uiso   1.00
O895   O     0.09161   0.16667   0.86379   0.00000  Uiso   1.00
O896   O     0.24172   0.16666   0.80288   0.00000  Uiso   1.00
O897   O     0.09161   0.16666   0.78460   0.00000  Uiso   1.00
O898   O     0.24172   0.16667   0.88207   0.00000  Uiso   1.00
N899   N     0.09180   0.11665   0.70454   0.00000  Uiso   1.00
H900   H     0.09883   0.10406   0.73691   0.00000  Uiso   1.00
C901   C     0.03884   0.12632   0.69050   0.00000  Uiso   1.00
H902   H     0.02261   0.13825   0.72048   0.00000  Uiso   1.00
H903   H     0.01529   0.09778   0.67772   0.00000  Uiso   1.00
H904   H     0.03586   0.14966   0.99576   0.00000  Uiso   1.00
N905   N     0.24153   0.21667   0.96213   0.00000  Uiso   1.00
H906   H     0.23451   0.22926   0.92975   0.00000  Uiso   1.00
C907   C     0.29450   0.20701   0.97617   0.00000  Uiso   1.00
H908   H     0.31071   0.19504   0.94620   0.00000  Uiso   1.00
H909   H     0.29748   0.18370   0.67095   0.00000  Uiso   1.00
H910   H     0.31805   0.23555   0.98892   0.00000  Uiso   1.00
I911   I     0.08311   0.09406   0.93105   0.00000  Uiso   1.00
I912   I     0.25022   0.23928   0.73562   0.00000  Uiso   1.00
C913   C     0.49995   0.08750   0.83333   0.00000  Uiso   1.00
C914   C     0.50005   0.24583   0.83334   0.00000  Uiso   1.00
C915   C     0.40138   0.16677   0.82126   0.00000  Uiso   1.00
C916   C     0.59862   0.16657   0.84540   0.00000  Uiso   1.00
C917   C     0.34603   0.16771   0.81489   0.00000  Uiso   1.00
C918   C     0.65397   0.16562   0.85178   0.00000  Uiso   1.00
C919   C     0.49218   0.02094   0.79098   0.00000  Uiso   1.00
C920   C     0.50782   0.31239   0.87569   0.00000  Uiso   1.00
C921   C     0.49213   0.31164   0.79097   0.00000  Uiso   1.00
C922   C     0.50787   0.02170   0.87569   0.00000  Uiso   1.00
C923   C     0.50000   0.29052   0.83332   0.00000  Uiso   1.00
C924   C     0.50000   0.04281   0.83335   0.00000  Uiso   1.00
C925   C     0.46450   0.14180   0.68665   0.00000  Uiso   1.00
C926   C     0.53550   0.19154   0.98002   0.00000  Uiso   1.00
C927   C     0.46587   0.14079   0.97089   0.00000  Uiso   1.00
C928   C     0.53413   0.19255   0.69578   0.00000  Uiso   1.00
Cu929  Cu    0.50000   0.16667   0.88022   0.00000  Uiso   1.00
Cu930  Cu    0.50000   0.16666   0.78645   0.00000  Uiso   1.00
H931   H     0.65932   0.17063   0.77974   0.00000  Uiso   1.00
H932   H     0.34068   0.16271   0.88692   0.00000  Uiso   1.00
H933   H     0.48582   0.03665   0.75786   0.00000  Uiso   1.00
H934   H     0.51418   0.29668   0.90881   0.00000  Uiso   1.00
H935   H     0.48564   0.29529   0.75786   0.00000  Uiso   1.00
H936   H     0.51436   0.03804   0.90881   0.00000  Uiso   1.00
N937   N     0.50001   0.16668   0.95069   0.00000  Uiso   1.00
N938   N     0.49999   0.16666   0.71597   0.00000  Uiso   1.00
O939   O     0.50000   0.10655   0.87291   0.00000  Uiso   1.00
O940   O     0.50000   0.22678   0.79375   0.00000  Uiso   1.00
O941   O     0.50000   0.10654   0.79372   0.00000  Uiso   1.00
O942   O     0.50000   0.22679   0.87294   0.00000  Uiso   1.00
O943   O     0.42495   0.16667   0.86379   0.00000  Uiso   1.00
O944   O     0.57505   0.16666   0.80288   0.00000  Uiso   1.00
O945   O     0.42494   0.16666   0.78460   0.00000  Uiso   1.00
O946   O     0.57506   0.16667   0.88207   0.00000  Uiso   1.00
N947   N     0.42514   0.11665   0.70454   0.00000  Uiso   1.00
H948   H     0.43217   0.10406   0.73691   0.00000  Uiso   1.00
C949   C     0.37217   0.12632   0.69050   0.00000  Uiso   1.00
H950   H     0.35595   0.13825   0.72048   0.00000  Uiso   1.00
H951   H     0.34862   0.09778   0.67772   0.00000  Uiso   1.00
H952   H     0.36919   0.14966   0.99576   0.00000  Uiso   1.00
N953   N     0.57487   0.21667   0.96213   0.00000  Uiso   1.00
H954   H     0.56784   0.22926   0.92975   0.00000  Uiso   1.00
C955   C     0.62783   0.20701   0.97617   0.00000  Uiso   1.00
H956   H     0.64404   0.19504   0.94620   0.00000  Uiso   1.00
H957   H     0.63081   0.18370   0.67095   0.00000  Uiso   1.00
H958   H     0.65139   0.23555   0.98892   0.00000  Uiso   1.00
I959   I     0.41644   0.09406   0.93105   0.00000  Uiso   1.00
I960   I     0.58356   0.23928   0.73562   0.00000  Uiso   1.00
C961   C     0.83328   0.08750   0.83333   0.00000  Uiso   1.00
C962   C     0.83339   0.24583   0.83334   0.00000  Uiso   1.00
C963   C     0.73471   0.16677   0.82126   0.00000  Uiso   1.00
C964   C     0.93195   0.16657   0.84540   0.00000  Uiso   1.00
C965   C     0.67936   0.16771   0.81489   0.00000  Uiso   1.00
C966   C     0.98731   0.16562   0.85178   0.00000  Uiso   1.00
C967   C     0.82551   0.02094   0.79098   0.00000  Uiso   1.00
C968   C     0.84115   0.31239   0.87569   0.00000  Uiso   1.00
C969   C     0.82546   0.31164   0.79097   0.00000  Uiso   1.00
C970   C     0.84120   0.02170   0.87569   0.00000  Uiso   1.00
C971   C     0.83334   0.29052   0.83332   0.00000  Uiso   1.00
C972   C     0.83333   0.04281   0.83335   0.00000  Uiso   1.00
C973   C     0.79784   0.14180   0.68665   0.00000  Uiso   1.00
C974   C     0.86883   0.19154   0.98002   0.00000  Uiso   1.00
C975   C     0.79920   0.14079   0.97089   0.00000  Uiso   1.00
C976   C     0.86746   0.19255   0.69578   0.00000  Uiso   1.00
Cu977  Cu    0.83333   0.16667   0.88022   0.00000  Uiso   1.00
Cu978  Cu    0.83333   0.16666   0.78645   0.00000  Uiso   1.00
H979   H     0.99266   0.17063   0.77974   0.00000  Uiso   1.00
H980   H     0.67401   0.16271   0.88692   0.00000  Uiso   1.00
H981   H     0.81915   0.03665   0.75786   0.00000  Uiso   1.00
H982   H     0.84751   0.29668   0.90881   0.00000  Uiso   1.00
H983   H     0.81897   0.29529   0.75786   0.00000  Uiso   1.00
H984   H     0.84769   0.03804   0.90881   0.00000  Uiso   1.00
N985   N     0.83335   0.16668   0.95069   0.00000  Uiso   1.00
N986   N     0.83332   0.16666   0.71597   0.00000  Uiso   1.00
O987   O     0.83333   0.10655   0.87291   0.00000  Uiso   1.00
O988   O     0.83334   0.22678   0.79375   0.00000  Uiso   1.00
O989   O     0.83333   0.10654   0.79372   0.00000  Uiso   1.00
O990   O     0.83334   0.22679   0.87294   0.00000  Uiso   1.00
O991   O     0.75828   0.16667   0.86379   0.00000  Uiso   1.00
O992   O     0.90839   0.16666   0.80288   0.00000  Uiso   1.00
O993   O     0.75828   0.16666   0.78460   0.00000  Uiso   1.00
O994   O     0.90839   0.16667   0.88207   0.00000  Uiso   1.00
N995   N     0.75847   0.11665   0.70454   0.00000  Uiso   1.00
H996   H     0.76550   0.10406   0.73691   0.00000  Uiso   1.00
C997   C     0.70551   0.12632   0.69050   0.00000  Uiso   1.00
H998   H     0.68928   0.13825   0.72048   0.00000  Uiso   1.00
H999   H     0.68196   0.09778   0.67772   0.00000  Uiso   1.00
H1000  H     0.70253   0.14966   0.99576   0.00000  Uiso   1.00
N1001  N     0.90820   0.21667   0.96213   0.00000  Uiso   1.00
H1002  H     0.90117   0.22926   0.92975   0.00000  Uiso   1.00
C1003  C     0.96116   0.20701   0.97617   0.00000  Uiso   1.00
H1004  H     0.97738   0.19504   0.94620   0.00000  Uiso   1.00
H1005  H     0.96414   0.18370   0.67095   0.00000  Uiso   1.00
H1006  H     0.98472   0.23555   0.98892   0.00000  Uiso   1.00
I1007  I     0.74978   0.09406   0.93105   0.00000  Uiso   1.00
I1008  I     0.91689   0.23928   0.73562   0.00000  Uiso   1.00
C1009  C     0.16661   0.42083   0.83333   0.00000  Uiso   1.00
C1010  C     0.16672   0.57917   0.83334   0.00000  Uiso   1.00
C1011  C     0.06805   0.50010   0.82126   0.00000  Uiso   1.00
C1012  C     0.26529   0.49990   0.84540   0.00000  Uiso   1.00
C1013  C     0.01269   0.50105   0.81489   0.00000  Uiso   1.00
C1014  C     0.32064   0.49896   0.85178   0.00000  Uiso   1.00
C1015  C     0.15885   0.35427   0.79098   0.00000  Uiso   1.00
C1016  C     0.17449   0.64573   0.87569   0.00000  Uiso   1.00
C1017  C     0.15880   0.64497   0.79097   0.00000  Uiso   1.00
C1018  C     0.17454   0.35503   0.87569   0.00000  Uiso   1.00
C1019  C     0.16667   0.62386   0.83332   0.00000  Uiso   1.00
C1020  C     0.16666   0.37615   0.83335   0.00000  Uiso   1.00
C1021  C     0.13117   0.47513   0.68665   0.00000  Uiso   1.00
C1022  C     0.20216   0.52487   0.98002   0.00000  Uiso   1.00
C1023  C     0.13253   0.47412   0.97089   0.00000  Uiso   1.00
C1024  C     0.20080   0.52588   0.69578   0.00000  Uiso   1.00
Cu1025 Cu    0.16667   0.50001   0.88022   0.00000  Uiso   1.00
Cu1026 Cu    0.16667   0.49999   0.78645   0.00000  Uiso   1.00
H1027  H     0.32599   0.50396   0.77974   0.00000  Uiso   1.00
H1028  H     0.00734   0.49604   0.88692   0.00000  Uiso   1.00
H1029  H     0.15249   0.36999   0.75786   0.00000  Uiso   1.00
H1030  H     0.18085   0.63001   0.90881   0.00000  Uiso   1.00
H1031  H     0.15231   0.62863   0.75786   0.00000  Uiso   1.00
H1032  H     0.18103   0.37137   0.90881   0.00000  Uiso   1.00
N1033  N     0.16668   0.50001   0.95069   0.00000  Uiso   1.00
N1034  N     0.16665   0.49999   0.71597   0.00000  Uiso   1.00
O1035  O     0.16666   0.43989   0.87291   0.00000  Uiso   1.00
O1036  O     0.16667   0.56011   0.79375   0.00000  Uiso   1.00
O1037  O     0.16666   0.43988   0.79372   0.00000  Uiso   1.00
O1038  O     0.16667   0.56012   0.87294   0.00000  Uiso   1.00
O1039  O     0.09161   0.50000   0.86379   0.00000  Uiso   1.00
O1040  O     0.24172   0.50000   0.80288   0.00000  Uiso   1.00
O1041  O     0.09161   0.49999   0.78460   0.00000  Uiso   1.00
O1042  O     0.24172   0.50001   0.88207   0.00000  Uiso   1.00
N1043  N     0.09180   0.44999   0.70454   0.00000  Uiso   1.00
H1044  H     0.09883   0.43740   0.73691   0.00000  Uiso   1.00
C1045  C     0.03884   0.45965   0.69050   0.00000  Uiso   1.00
H1046  H     0.02261   0.47158   0.72048   0.00000  Uiso   1.00
H1047  H     0.01529   0.43112   0.67772   0.00000  Uiso   1.00
H1048  H     0.03586   0.48299   0.99576   0.00000  Uiso   1.00
N1049  N     0.24153   0.55001   0.96213   0.00000  Uiso   1.00
H1050  H     0.23451   0.56259   0.92975   0.00000  Uiso   1.00
C1051  C     0.29450   0.54034   0.97617   0.00000  Uiso   1.00
H1052  H     0.31071   0.52837   0.94620   0.00000  Uiso   1.00
H1053  H     0.29748   0.51703   0.67095   0.00000  Uiso   1.00
H1054  H     0.31805   0.56889   0.98892   0.00000  Uiso   1.00
I1055  I     0.08311   0.42739   0.93105   0.00000  Uiso   1.00
I1056  I     0.25022   0.57261   0.73562   0.00000  Uiso   1.00
C1057  C     0.49995   0.42083   0.83333   0.00000  Uiso   1.00
C1058  C     0.50005   0.57917   0.83334   0.00000  Uiso   1.00
C1059  C     0.40138   0.50010   0.82126   0.00000  Uiso   1.00
C1060  C     0.59862   0.49990   0.84540   0.00000  Uiso   1.00
C1061  C     0.34603   0.50105   0.81489   0.00000  Uiso   1.00
C1062  C     0.65397   0.49896   0.85178   0.00000  Uiso   1.00
C1063  C     0.49218   0.35427   0.79098   0.00000  Uiso   1.00
C1064  C     0.50782   0.64573   0.87569   0.00000  Uiso   1.00
C1065  C     0.49213   0.64497   0.79097   0.00000  Uiso   1.00
C1066  C     0.50787   0.35503   0.87569   0.00000  Uiso   1.00
C1067  C     0.50000   0.62386   0.83332   0.00000  Uiso   1.00
C1068  C     0.50000   0.37615   0.83335   0.00000  Uiso   1.00
C1069  C     0.46450   0.47513   0.68665   0.00000  Uiso   1.00
C1070  C     0.53550   0.52487   0.98002   0.00000  Uiso   1.00
C1071  C     0.46587   0.47412   0.97089   0.00000  Uiso   1.00
C1072  C     0.53413   0.52588   0.69578   0.00000  Uiso   1.00
Cu1073 Cu    0.50000   0.50001   0.88022   0.00000  Uiso   1.00
Cu1074 Cu    0.50000   0.49999   0.78645   0.00000  Uiso   1.00
H1075  H     0.65932   0.50396   0.77974   0.00000  Uiso   1.00
H1076  H     0.34068   0.49604   0.88692   0.00000  Uiso   1.00
H1077  H     0.48582   0.36999   0.75786   0.00000  Uiso   1.00
H1078  H     0.51418   0.63001   0.90881   0.00000  Uiso   1.00
H1079  H     0.48564   0.62863   0.75786   0.00000  Uiso   1.00
H1080  H     0.51436   0.37137   0.90881   0.00000  Uiso   1.00
N1081  N     0.50001   0.50001   0.95069   0.00000  Uiso   1.00
N1082  N     0.49999   0.49999   0.71597   0.00000  Uiso   1.00
O1083  O     0.50000   0.43989   0.87291   0.00000  Uiso   1.00
O1084  O     0.50000   0.56011   0.79375   0.00000  Uiso   1.00
O1085  O     0.50000   0.43988   0.79372   0.00000  Uiso   1.00
O1086  O     0.50000   0.56012   0.87294   0.00000  Uiso   1.00
O1087  O     0.42495   0.50000   0.86379   0.00000  Uiso   1.00
O1088  O     0.57505   0.50000   0.80288   0.00000  Uiso   1.00
O1089  O     0.42494   0.49999   0.78460   0.00000  Uiso   1.00
O1090  O     0.57506   0.50001   0.88207   0.00000  Uiso   1.00
N1091  N     0.42514   0.44999   0.70454   0.00000  Uiso   1.00
H1092  H     0.43217   0.43740   0.73691   0.00000  Uiso   1.00
C1093  C     0.37217   0.45965   0.69050   0.00000  Uiso   1.00
H1094  H     0.35595   0.47158   0.72048   0.00000  Uiso   1.00
H1095  H     0.34862   0.43112   0.67772   0.00000  Uiso   1.00
H1096  H     0.36919   0.48299   0.99576   0.00000  Uiso   1.00
N1097  N     0.57487   0.55001   0.96213   0.00000  Uiso   1.00
H1098  H     0.56784   0.56259   0.92975   0.00000  Uiso   1.00
C1099  C     0.62783   0.54034   0.97617   0.00000  Uiso   1.00
H1100  H     0.64404   0.52837   0.94620   0.00000  Uiso   1.00
H1101  H     0.63081   0.51703   0.67095   0.00000  Uiso   1.00
H1102  H     0.65139   0.56889   0.98892   0.00000  Uiso   1.00
I1103  I     0.41644   0.42739   0.93105   0.00000  Uiso   1.00
I1104  I     0.58356   0.57261   0.73562   0.00000  Uiso   1.00
C1105  C     0.83328   0.42083   0.83333   0.00000  Uiso   1.00
C1106  C     0.83339   0.57917   0.83334   0.00000  Uiso   1.00
C1107  C     0.73471   0.50010   0.82126   0.00000  Uiso   1.00
C1108  C     0.93195   0.49990   0.84540   0.00000  Uiso   1.00
C1109  C     0.67936   0.50105   0.81489   0.00000  Uiso   1.00
C1110  C     0.98731   0.49896   0.85178   0.00000  Uiso   1.00
C1111  C     0.82551   0.35427   0.79098   0.00000  Uiso   1.00
C1112  C     0.84115   0.64573   0.87569   0.00000  Uiso   1.00
C1113  C     0.82546   0.64497   0.79097   0.00000  Uiso   1.00
C1114  C     0.84120   0.35503   0.87569   0.00000  Uiso   1.00
C1115  C     0.83334   0.62386   0.83332   0.00000  Uiso   1.00
C1116  C     0.83333   0.37615   0.83335   0.00000  Uiso   1.00
C1117  C     0.79784   0.47513   0.68665   0.00000  Uiso   1.00
C1118  C     0.86883   0.52487   0.98002   0.00000  Uiso   1.00
C1119  C     0.79920   0.47412   0.97089   0.00000  Uiso   1.00
C1120  C     0.86746   0.52588   0.69578   0.00000  Uiso   1.00
Cu1121 Cu    0.83333   0.50001   0.88022   0.00000  Uiso   1.00
Cu1122 Cu    0.83333   0.49999   0.78645   0.00000  Uiso   1.00
H1123  H     0.99266   0.50396   0.77974   0.00000  Uiso   1.00
H1124  H     0.67401   0.49604   0.88692   0.00000  Uiso   1.00
H1125  H     0.81915   0.36999   0.75786   0.00000  Uiso   1.00
H1126  H     0.84751   0.63001   0.90881   0.00000  Uiso   1.00
H1127  H     0.81897   0.62863   0.75786   0.00000  Uiso   1.00
H1128  H     0.84769   0.37137   0.90881   0.00000  Uiso   1.00
N1129  N     0.83335   0.50001   0.95069   0.00000  Uiso   1.00
N1130  N     0.83332   0.49999   0.71597   0.00000  Uiso   1.00
O1131  O     0.83333   0.43989   0.87291   0.00000  Uiso   1.00
O1132  O     0.83334   0.56011   0.79375   0.00000  Uiso   1.00
O1133  O     0.83333   0.43988   0.79372   0.00000  Uiso   1.00
O1134  O     0.83334   0.56012   0.87294   0.00000  Uiso   1.00
O1135  O     0.75828   0.50000   0.86379   0.00000  Uiso   1.00
O1136  O     0.90839   0.50000   0.80288   0.00000  Uiso   1.00
O1137  O     0.75828   0.49999   0.78460   0.00000  Uiso   1.00
O1138  O     0.90839   0.50001   0.88207   0.00000  Uiso   1.00
N1139  N     0.75847   0.44999   0.70454   0.00000  Uiso   1.00
H1140  H     0.76550   0.43740   0.73691   0.00000  Uiso   1.00
C1141  C     0.70551   0.45965   0.69050   0.00000  Uiso   1.00
H1142  H     0.68928   0.47158   0.72048   0.00000  Uiso   1.00
H1143  H     0.68196   0.43112   0.67772   0.00000  Uiso   1.00
H1144  H     0.70253   0.48299   0.99576   0.00000  Uiso   1.00
N1145  N     0.90820   0.55001   0.96213   0.00000  Uiso   1.00
H1146  H     0.90117   0.56259   0.92975   0.00000  Uiso   1.00
C1147  C     0.96116   0.54034   0.97617   0.00000  Uiso   1.00
H1148  H     0.97738   0.52837   0.94620   0.00000  Uiso   1.00
H1149  H     0.96414   0.51703   0.67095   0.00000  Uiso   1.00
H1150  H     0.98472   0.56889   0.98892   0.00000  Uiso   1.00
I1151  I     0.74978   0.42739   0.93105   0.00000  Uiso   1.00
I1152  I     0.91689   0.57261   0.73562   0.00000  Uiso   1.00
C1153  C     0.16661   0.75417   0.83333   0.00000  Uiso   1.00
C1154  C     0.16672   0.91250   0.83334   0.00000  Uiso   1.00
C1155  C     0.06805   0.83343   0.82126   0.00000  Uiso   1.00
C1156  C     0.26529   0.83323   0.84540   0.00000  Uiso   1.00
C1157  C     0.01269   0.83438   0.81489   0.00000  Uiso   1.00
C1158  C     0.32064   0.83229   0.85178   0.00000  Uiso   1.00
C1159  C     0.15885   0.68761   0.79098   0.00000  Uiso   1.00
C1160  C     0.17449   0.97906   0.87569   0.00000  Uiso   1.00
C1161  C     0.15880   0.97830   0.79097   0.00000  Uiso   1.00
C1162  C     0.17454   0.68836   0.87569   0.00000  Uiso   1.00
C1163  C     0.16667   0.95719   0.83332   0.00000  Uiso   1.00
C1164  C     0.16666   0.70948   0.83335   0.00000  Uiso   1.00
C1165  C     0.13117   0.80846   0.68665   0.00000  Uiso   1.00
C1166  C     0.20216   0.85820   0.98002   0.00000  Uiso   1.00
C1167  C     0.13253   0.80745   0.97089   0.00000  Uiso   1.00
C1168  C     0.20080   0.85921   0.69578   0.00000  Uiso   1.00
Cu1169 Cu    0.16667   0.83334   0.88022   0.00000  Uiso   1.00
Cu1170 Cu    0.16667   0.83333   0.78645   0.00000  Uiso   1.00
H1171  H     0.32599   0.83729   0.77974   0.00000  Uiso   1.00
H1172  H     0.00734   0.82938   0.88692   0.00000  Uiso   1.00
H1173  H     0.15249   0.70332   0.75786   0.00000  Uiso   1.00
H1174  H     0.18085   0.96335   0.90881   0.00000  Uiso   1.00
H1175  H     0.15231   0.96196   0.75786   0.00000  Uiso   1.00
H1176  H     0.18103   0.70471   0.90881   0.00000  Uiso   1.00
N1177  N     0.16668   0.83334   0.95069   0.00000  Uiso   1.00
N1178  N     0.16665   0.83332   0.71597   0.00000  Uiso   1.00
O1179  O     0.16666   0.77322   0.87291   0.00000  Uiso   1.00
O1180  O     0.16667   0.89345   0.79375   0.00000  Uiso   1.00
O1181  O     0.16666   0.77321   0.79372   0.00000  Uiso   1.00
O1182  O     0.16667   0.89346   0.87294   0.00000  Uiso   1.00
O1183  O     0.09161   0.83334   0.86379   0.00000  Uiso   1.00
O1184  O     0.24172   0.83333   0.80288   0.00000  Uiso   1.00
O1185  O     0.09161   0.83333   0.78460   0.00000  Uiso   1.00
O1186  O     0.24172   0.83334   0.88207   0.00000  Uiso   1.00
N1187  N     0.09180   0.78332   0.70454   0.00000  Uiso   1.00
H1188  H     0.09883   0.77073   0.73691   0.00000  Uiso   1.00
C1189  C     0.03884   0.79299   0.69050   0.00000  Uiso   1.00
H1190  H     0.02261   0.80492   0.72048   0.00000  Uiso   1.00
H1191  H     0.01529   0.76445   0.67772   0.00000  Uiso   1.00
H1192  H     0.03586   0.81632   0.99576   0.00000  Uiso   1.00
N1193  N     0.24153   0.88334   0.96213   0.00000  Uiso   1.00
H1194  H     0.23451   0.89592   0.92975   0.00000  Uiso   1.00
C1195  C     0.29450   0.87368   0.97617   0.00000  Uiso   1.00
H1196  H     0.31071   0.86171   0.94620   0.00000  Uiso   1.00
H1197  H     0.29748   0.85036   0.67095   0.00000  Uiso   1.00
H1198  H     0.31805   0.90222   0.98892   0.00000  Uiso   1.00
I1199  I     0.08311   0.76072   0.93105   0.00000  Uiso   1.00
I1200  I     0.25022   0.90595   0.73562   0.00000  Uiso   1.00
C1201  C     0.49995   0.75417   0.83333   0.00000  Uiso   1.00
C1202  C     0.50005   0.91250   0.83334   0.00000  Uiso   1.00
C1203  C     0.40138   0.83343   0.82126   0.00000  Uiso   1.00
C1204  C     0.59862   0.83323   0.84540   0.00000  Uiso   1.00
C1205  C     0.34603   0.83438   0.81489   0.00000  Uiso   1.00
C1206  C     0.65397   0.83229   0.85178   0.00000  Uiso   1.00
C1207  C     0.49218   0.68761   0.79098   0.00000  Uiso   1.00
C1208  C     0.50782   0.97906   0.87569   0.00000  Uiso   1.00
C1209  C     0.49213   0.97830   0.79097   0.00000  Uiso   1.00
C1210  C     0.50787   0.68836   0.87569   0.00000  Uiso   1.00
C1211  C     0.50000   0.95719   0.83332   0.00000  Uiso   1.00
C1212  C     0.50000   0.70948   0.83335   0.00000  Uiso   1.00
C1213  C     0.46450   0.80846   0.68665   0.00000  Uiso   1.00
C1214  C     0.53550   0.85820   0.98002   0.00000  Uiso   1.00
C1215  C     0.46587   0.80745   0.97089   0.00000  Uiso   1.00
C1216  C     0.53413   0.85921   0.69578   0.00000  Uiso   1.00
Cu1217 Cu    0.50000   0.83334   0.88022   0.00000  Uiso   1.00
Cu1218 Cu    0.50000   0.83333   0.78645   0.00000  Uiso   1.00
H1219  H     0.65932   0.83729   0.77974   0.00000  Uiso   1.00
H1220  H     0.34068   0.82938   0.88692   0.00000  Uiso   1.00
H1221  H     0.48582   0.70332   0.75786   0.00000  Uiso   1.00
H1222  H     0.51418   0.96335   0.90881   0.00000  Uiso   1.00
H1223  H     0.48564   0.96196   0.75786   0.00000  Uiso   1.00
H1224  H     0.51436   0.70471   0.90881   0.00000  Uiso   1.00
N1225  N     0.50001   0.83334   0.95069   0.00000  Uiso   1.00
N1226  N     0.49999   0.83332   0.71597   0.00000  Uiso   1.00
O1227  O     0.50000   0.77322   0.87291   0.00000  Uiso   1.00
O1228  O     0.50000   0.89345   0.79375   0.00000  Uiso   1.00
O1229  O     0.50000   0.77321   0.79372   0.00000  Uiso   1.00
O1230  O     0.50000   0.89346   0.87294   0.00000  Uiso   1.00
O1231  O     0.42495   0.83334   0.86379   0.00000  Uiso   1.00
O1232  O     0.57505   0.83333   0.80288   0.00000  Uiso   1.00
O1233  O     0.42494   0.83333   0.78460   0.00000  Uiso   1.00
O1234  O     0.57506   0.83334   0.88207   0.00000  Uiso   1.00
N1235  N     0.42514   0.78332   0.70454   0.00000  Uiso   1.00
H1236  H     0.43217   0.77073   0.73691   0.00000  Uiso   1.00
C1237  C     0.37217   0.79299   0.69050   0.00000  Uiso   1.00
H1238  H     0.35595   0.80492   0.72048   0.00000  Uiso   1.00
H1239  H     0.34862   0.76445   0.67772   0.00000  Uiso   1.00
H1240  H     0.36919   0.81632   0.99576   0.00000  Uiso   1.00
N1241  N     0.57487   0.88334   0.96213   0.00000  Uiso   1.00
H1242  H     0.56784   0.89592   0.92975   0.00000  Uiso   1.00
C1243  C     0.62783   0.87368   0.97617   0.00000  Uiso   1.00
H1244  H     0.64404   0.86171   0.94620   0.00000  Uiso   1.00
H1245  H     0.63081   0.85036   0.67095   0.00000  Uiso   1.00
H1246  H     0.65139   0.90222   0.98892   0.00000  Uiso   1.00
I1247  I     0.41644   0.76072   0.93105   0.00000  Uiso   1.00
I1248  I     0.58356   0.90595   0.73562   0.00000  Uiso   1.00
C1249  C     0.83328   0.75417   0.83333   0.00000  Uiso   1.00
C1250  C     0.83339   0.91250   0.83334   0.00000  Uiso   1.00
C1251  C     0.73471   0.83343   0.82126   0.00000  Uiso   1.00
C1252  C     0.93195   0.83323   0.84540   0.00000  Uiso   1.00
C1253  C     0.67936   0.83438   0.81489   0.00000  Uiso   1.00
C1254  C     0.98731   0.83229   0.85178   0.00000  Uiso   1.00
C1255  C     0.82551   0.68761   0.79098   0.00000  Uiso   1.00
C1256  C     0.84115   0.97906   0.87569   0.00000  Uiso   1.00
C1257  C     0.82546   0.97830   0.79097   0.00000  Uiso   1.00
C1258  C     0.84120   0.68836   0.87569   0.00000  Uiso   1.00
C1259  C     0.83334   0.95719   0.83332   0.00000  Uiso   1.00
C1260  C     0.83333   0.70948   0.83335   0.00000  Uiso   1.00
C1261  C     0.79784   0.80846   0.68665   0.00000  Uiso   1.00
C1262  C     0.86883   0.85820   0.98002   0.00000  Uiso   1.00
C1263  C     0.79920   0.80745   0.97089   0.00000  Uiso   1.00
C1264  C     0.86746   0.85921   0.69578   0.00000  Uiso   1.00
Cu1265 Cu    0.83333   0.83334   0.88022   0.00000  Uiso   1.00
Cu1266 Cu    0.83333   0.83333   0.78645   0.00000  Uiso   1.00
H1267  H     0.99266   0.83729   0.77974   0.00000  Uiso   1.00
H1268  H     0.67401   0.82938   0.88692   0.00000  Uiso   1.00
H1269  H     0.81915   0.70332   0.75786   0.00000  Uiso   1.00
H1270  H     0.84751   0.96335   0.90881   0.00000  Uiso   1.00
H1271  H     0.81897   0.96196   0.75786   0.00000  Uiso   1.00
H1272  H     0.84769   0.70471   0.90881   0.00000  Uiso   1.00
N1273  N     0.83335   0.83334   0.95069   0.00000  Uiso   1.00
N1274  N     0.83332   0.83332   0.71597   0.00000  Uiso   1.00
O1275  O     0.83333   0.77322   0.87291   0.00000  Uiso   1.00
O1276  O     0.83334   0.89345   0.79375   0.00000  Uiso   1.00
O1277  O     0.83333   0.77321   0.79372   0.00000  Uiso   1.00
O1278  O     0.83334   0.89346   0.87294   0.00000  Uiso   1.00
O1279  O     0.75828   0.83334   0.86379   0.00000  Uiso   1.00
O1280  O     0.90839   0.83333   0.80288   0.00000  Uiso   1.00
O1281  O     0.75828   0.83333   0.78460   0.00000  Uiso   1.00
O1282  O     0.90839   0.83334   0.88207   0.00000  Uiso   1.00
N1283  N     0.75847   0.78332   0.70454   0.00000  Uiso   1.00
H1284  H     0.76550   0.77073   0.73691   0.00000  Uiso   1.00
C1285  C     0.70551   0.79299   0.69050   0.00000  Uiso   1.00
H1286  H     0.68928   0.80492   0.72048   0.00000  Uiso   1.00
H1287  H     0.68196   0.76445   0.67772   0.00000  Uiso   1.00
H1288  H     0.70253   0.81632   0.99576   0.00000  Uiso   1.00
N1289  N     0.90820   0.88334   0.96213   0.00000  Uiso   1.00
H1290  H     0.90117   0.89592   0.92975   0.00000  Uiso   1.00
C1291  C     0.96116   0.87368   0.97617   0.00000  Uiso   1.00
H1292  H     0.97738   0.86171   0.94620   0.00000  Uiso   1.00
H1293  H     0.96414   0.85036   0.67095   0.00000  Uiso   1.00
H1294  H     0.98472   0.90222   0.98892   0.00000  Uiso   1.00
I1295  I     0.74978   0.76072   0.93105   0.00000  Uiso   1.00
I1296  I     0.91689   0.90595   0.73562   0.00000  Uiso   1.00
loop_
_geom_bond_atom_site_label_1
_geom_bond_atom_site_label_2
_geom_bond_distance
_geom_bond_site_symmetry_2
_ccdc_geom_bond_type
C1     O29     1.303   .     A
C1     C12     1.450   .     S
C1     O27     1.304   .     A
C2     O30     1.303   .     A
C2     C11     1.450   .     S
C2     O28     1.304   .     A
C3     O31     1.297   .     A
C3     O33     1.305   .     A
C3     C5      1.442   .     S
C4     O32     1.297   .     A
C4     C6      1.442   .     S
C4     O34     1.305   .     A
C5     C102    1.338   1_455 S
C5     H115    1.084   1_455 S
C6     C53     1.338   .     S
C6     H68     1.084   .     S
C7     C12     1.401   .     A
C7     H21     1.083   .     S
C7     C297    1.383   1_545 S
C8     H22     1.083   .     S
C8     C11     1.401   .     A
C8     C154    1.383   .     S
C9     C11     1.401   .     A
C9     H23     1.083   .     S
C9     C151    1.383   .     S
C10    C12     1.401   .     A
C10    H24     1.083   .     S
C10    C296    1.383   1_545 S
C13    N35     1.427   .     S
C13    N26     1.382   .     A
C13    C879    1.429   1_554 S
C14    N41     1.427   .     S
C14    N25     1.382   .     A
C14    C448    1.429   .     S
C15    I47     2.148   .     S
C15    N25     1.377   .     A
C15    C445    1.429   .     S
C16    I48     2.148   .     S
C16    N26     1.377   .     A
C16    C878    1.429   1_554 S
Cu17   N25     2.042   .     S
Cu17   Cu18    2.718   .     S
Cu17   O30     1.962   .     S
Cu17   O31     1.960   .     S
Cu17   O34     1.965   .     S
Cu17   O27     1.963   .     S
Cu18   N26     2.042   .     S
Cu18   O28     1.963   .     S
Cu18   O29     1.962   .     S
Cu18   O33     1.965   .     S
Cu18   O32     1.960   .     S
H19    C53     1.084   .     S
H20    C102    1.084   1_455 S
N35    H36     1.020   .     S
N35    C37     1.448   .     S
C37    H38     1.104   .     S
C37    H39     1.110   .     S
C37    H904    1.109   1_554 S
H40    C469    1.109   .     S
N41    C43     1.448   .     S
N41    H42     1.020   .     S
C43    H44     1.104   .     S
C43    H46     1.110   .     S
C43    H477    1.109   .     S
H45    C907    1.109   1_554 S
C49    O77     1.303   .     A
C49    C60     1.450   .     S
C49    O75     1.304   .     A
C50    O78     1.303   .     A
C50    C59     1.450   .     S
C50    O76     1.304   .     A
C51    O79     1.297   .     A
C51    O81     1.305   .     A
C51    C53     1.442   .     S
C52    O80     1.297   .     A
C52    C54     1.442   .     S
C52    O82     1.305   .     A
C54    C101    1.338   .     S
C54    H116    1.084   .     S
C55    C60     1.401   .     A
C55    H69     1.083   .     S
C55    C345    1.383   1_545 S
C56    H70     1.083   .     S
C56    C59     1.401   .     A
C56    C202    1.383   .     S
C57    C59     1.401   .     A
C57    H71     1.083   .     S
C57    C199    1.383   .     S
C58    C60     1.401   .     A
C58    H72     1.083   .     S
C58    C344    1.383   1_545 S
C61    N83     1.427   .     S
C61    N74     1.382   .     A
C61    C927    1.429   1_554 S
C62    N89     1.427   .     S
C62    N73     1.382   .     A
C62    C496    1.429   .     S
C63    I95     2.148   .     S
C63    N73     1.377   .     A
C63    C493    1.429   .     S
C64    I96     2.148   .     S
C64    N74     1.377   .     A
C64    C926    1.429   1_554 S
Cu65   N73     2.042   .     S
Cu65   Cu66    2.718   .     S
Cu65   O78     1.962   .     S
Cu65   O79     1.960   .     S
Cu65   O82     1.965   .     S
Cu65   O75     1.963   .     S
Cu66   N74     2.042   .     S
Cu66   O76     1.963   .     S
Cu66   O77     1.962   .     S
Cu66   O81     1.965   .     S
Cu66   O80     1.960   .     S
H67    C101    1.084   .     S
N83    H84     1.020   .     S
N83    C85     1.448   .     S
C85    H86     1.104   .     S
C85    H87     1.110   .     S
C85    H952    1.109   1_554 S
H88    C517    1.109   .     S
N89    C91     1.448   .     S
N89    H90     1.020   .     S
C91    H92     1.104   .     S
C91    H94     1.110   .     S
C91    H525    1.109   .     S
H93    C955    1.109   1_554 S
C97    O125    1.303   .     A
C97    C108    1.450   .     S
C97    O123    1.304   .     A
C98    O126    1.303   .     A
C98    C107    1.450   .     S
C98    O124    1.304   .     A
C99    O127    1.297   .     A
C99    O129    1.305   .     A
C99    C101    1.442   .     S
C100   O128    1.297   .     A
C100   C102    1.442   .     S
C100   O130    1.305   .     A
C102   C5      1.338   1_655 S
C102   H20     1.084   1_655 S
C103   C108    1.401   .     A
C103   H117    1.083   .     S
C103   C393    1.383   1_545 S
C104   H118    1.083   .     S
C104   C107    1.401   .     A
C104   C250    1.383   .     S
C105   C107    1.401   .     A
C105   H119    1.083   .     S
C105   C247    1.383   .     S
C106   C108    1.401   .     A
C106   H120    1.083   .     S
C106   C392    1.383   1_545 S
C109   N131    1.427   .     S
C109   N122    1.382   .     A
C109   C975    1.429   1_554 S
C110   N137    1.427   .     S
C110   N121    1.382   .     A
C110   C544    1.429   .     S
C111   I143    2.148   .     S
C111   N121    1.377   .     A
C111   C541    1.429   .     S
C112   I144    2.148   .     S
C112   N122    1.377   .     A
C112   C974    1.429   1_554 S
Cu113  N121    2.042   .     S
Cu113  Cu114   2.718   .     S
Cu113  O126    1.962   .     S
Cu113  O127    1.960   .     S
Cu113  O130    1.965   .     S
Cu113  O123    1.963   .     S
Cu114  N122    2.042   .     S
Cu114  O124    1.963   .     S
Cu114  O125    1.962   .     S
Cu114  O129    1.965   .     S
Cu114  O128    1.960   .     S
H115   C5      1.084   1_655 S
N131   H132    1.020   .     S
N131   C133    1.448   .     S
C133   H134    1.104   .     S
C133   H135    1.110   .     S
C133   H1000   1.109   1_554 S
H136   C565    1.109   .     S
N137   C139    1.448   .     S
N137   H138    1.020   .     S
C139   H140    1.104   .     S
C139   H142    1.110   .     S
C139   H573    1.109   .     S
H141   C1003   1.109   1_554 S
C145   O173    1.303   .     A
C145   C156    1.450   .     S
C145   O171    1.304   .     A
C146   O174    1.303   .     A
C146   C155    1.450   .     S
C146   O172    1.304   .     A
C147   O175    1.297   .     A
C147   O177    1.305   .     A
C147   C149    1.442   .     S
C148   O176    1.297   .     A
C148   C150    1.442   .     S
C148   O178    1.305   .     A
C149   C246    1.338   1_455 S
C149   H259    1.084   1_455 S
C150   C197    1.338   .     S
C150   H212    1.084   .     S
C151   C156    1.401   .     A
C151   H165    1.083   .     S
C152   H166    1.083   .     S
C152   C155    1.401   .     A
C152   C298    1.383   .     S
C153   C155    1.401   .     A
C153   H167    1.083   .     S
C153   C295    1.383   .     S
C154   C156    1.401   .     A
C154   H168    1.083   .     S
C157   N179    1.427   .     S
C157   N170    1.382   .     A
C157   C1023   1.429   1_554 S
C158   N185    1.427   .     S
C158   N169    1.382   .     A
C158   C592    1.429   .     S
C159   I191    2.148   .     S
C159   N169    1.377   .     A
C159   C589    1.429   .     S
C160   I192    2.148   .     S
C160   N170    1.377   .     A
C160   C1022   1.429   1_554 S
Cu161  N169    2.042   .     S
Cu161  Cu162   2.718   .     S
Cu161  O174    1.962   .     S
Cu161  O175    1.960   .     S
Cu161  O178    1.965   .     S
Cu161  O171    1.963   .     S
Cu162  N170    2.042   .     S
Cu162  O172    1.963   .     S
Cu162  O173    1.962   .     S
Cu162  O177    1.965   .     S
Cu162  O176    1.960   .     S
H163   C197    1.084   .     S
H164   C246    1.084   1_455 S
N179   H180    1.020   .     S
N179   C181    1.448   .     S
C181   H182    1.104   .     S
C181   H183    1.110   .     S
C181   H1048   1.109   1_554 S
H184   C613    1.109   .     S
N185   C187    1.448   .     S
N185   H186    1.020   .     S
C187   H188    1.104   .     S
C187   H190    1.110   .     S
C187   H621    1.109   .     S
H189   C1051   1.109   1_554 S
C193   O221    1.303   .     A
C193   C204    1.450   .     S
C193   O219    1.304   .     A
C194   O222    1.303   .     A
C194   C203    1.450   .     S
C194   O220    1.304   .     A
C195   O223    1.297   .     A
C195   O225    1.305   .     A
C195   C197    1.442   .     S
C196   O224    1.297   .     A
C196   C198    1.442   .     S
C196   O226    1.305   .     A
C198   C245    1.338   .     S
C198   H260    1.084   .     S
C199   C204    1.401   .     A
C199   H213    1.083   .     S
C200   H214    1.083   .     S
C200   C203    1.401   .     A
C200   C346    1.383   .     S
C201   C203    1.401   .     A
C201   H215    1.083   .     S
C201   C343    1.383   .     S
C202   C204    1.401   .     A
C202   H216    1.083   .     S
C205   N227    1.427   .     S
C205   N218    1.382   .     A
C205   C1071   1.429   1_554 S
C206   N233    1.427   .     S
C206   N217    1.382   .     A
C206   C640    1.429   .     S
C207   I239    2.148   .     S
C207   N217    1.377   .     A
C207   C637    1.429   .     S
C208   I240    2.148   .     S
C208   N218    1.377   .     A
C208   C1070   1.429   1_554 S
Cu209  N217    2.042   .     S
Cu209  Cu210   2.718   .     S
Cu209  O222    1.962   .     S
Cu209  O223    1.960   .     S
Cu209  O226    1.965   .     S
Cu209  O219    1.963   .     S
Cu210  N218    2.042   .     S
Cu210  O220    1.963   .     S
Cu210  O221    1.962   .     S
Cu210  O225    1.965   .     S
Cu210  O224    1.960   .     S
H211   C245    1.084   .     S
N227   H228    1.020   .     S
N227   C229    1.448   .     S
C229   H230    1.104   .     S
C229   H231    1.110   .     S
C229   H1096   1.109   1_554 S
H232   C661    1.109   .     S
N233   C235    1.448   .     S
N233   H234    1.020   .     S
C235   H236    1.104   .     S
C235   H238    1.110   .     S
C235   H669    1.109   .     S
H237   C1099   1.109   1_554 S
C241   O269    1.303   .     A
C241   C252    1.450   .     S
C241   O267    1.304   .     A
C242   O270    1.303   .     A
C242   C251    1.450   .     S
C242   O268    1.304   .     A
C243   O271    1.297   .     A
C243   O273    1.305   .     A
C243   C245    1.442   .     S
C244   O272    1.297   .     A
C244   C246    1.442   .     S
C244   O274    1.305   .     A
C246   C149    1.338   1_655 S
C246   H164    1.084   1_655 S
C247   C252    1.401   .     A
C247   H261    1.083   .     S
C248   H262    1.083   .     S
C248   C251    1.401   .     A
C248   C394    1.383   .     S
C249   C251    1.401   .     A
C249   H263    1.083   .     S
C249   C391    1.383   .     S
C250   C252    1.401   .     A
C250   H264    1.083   .     S
C253   N275    1.427   .     S
C253   N266    1.382   .     A
C253   C1119   1.429   1_554 S
C254   N281    1.427   .     S
C254   N265    1.382   .     A
C254   C688    1.429   .     S
C255   I287    2.148   .     S
C255   N265    1.377   .     A
C255   C685    1.429   .     S
C256   I288    2.148   .     S
C256   N266    1.377   .     A
C256   C1118   1.429   1_554 S
Cu257  N265    2.042   .     S
Cu257  Cu258   2.718   .     S
Cu257  O270    1.962   .     S
Cu257  O271    1.960   .     S
Cu257  O274    1.965   .     S
Cu257  O267    1.963   .     S
Cu258  N266    2.042   .     S
Cu258  O268    1.963   .     S
Cu258  O269    1.962   .     S
Cu258  O273    1.965   .     S
Cu258  O272    1.960   .     S
H259   C149    1.084   1_655 S
N275   H276    1.020   .     S
N275   C277    1.448   .     S
C277   H278    1.104   .     S
C277   H279    1.110   .     S
C277   H1144   1.109   1_554 S
H280   C709    1.109   .     S
N281   C283    1.448   .     S
N281   H282    1.020   .     S
C283   H284    1.104   .     S
C283   H286    1.110   .     S
C283   H717    1.109   .     S
H285   C1147   1.109   1_554 S
C289   O317    1.303   .     A
C289   C300    1.450   .     S
C289   O315    1.304   .     A
C290   O318    1.303   .     A
C290   C299    1.450   .     S
C290   O316    1.304   .     A
C291   O319    1.297   .     A
C291   O321    1.305   .     A
C291   C293    1.442   .     S
C292   O320    1.297   .     A
C292   C294    1.442   .     S
C292   O322    1.305   .     A
C293   C390    1.338   1_455 S
C293   H403    1.084   1_455 S
C294   C341    1.338   .     S
C294   H356    1.084   .     S
C295   C300    1.401   .     A
C295   H309    1.083   .     S
C296   H310    1.083   .     S
C296   C299    1.401   .     A
C296   C10     1.383   1_565 S
C297   C299    1.401   .     A
C297   H311    1.083   .     S
C297   C7      1.383   1_565 S
C298   C300    1.401   .     A
C298   H312    1.083   .     S
C301   N323    1.427   .     S
C301   N314    1.382   .     A
C301   C1167   1.429   1_554 S
C302   N329    1.427   .     S
C302   N313    1.382   .     A
C302   C736    1.429   .     S
C303   I335    2.148   .     S
C303   N313    1.377   .     A
C303   C733    1.429   .     S
C304   I336    2.148   .     S
C304   N314    1.377   .     A
C304   C1166   1.429   1_554 S
Cu305  N313    2.042   .     S
Cu305  Cu306   2.718   .     S
Cu305  O318    1.962   .     S
Cu305  O319    1.960   .     S
Cu305  O322    1.965   .     S
Cu305  O315    1.963   .     S
Cu306  N314    2.042   .     S
Cu306  O316    1.963   .     S
Cu306  O317    1.962   .     S
Cu306  O321    1.965   .     S
Cu306  O320    1.960   .     S
H307   C341    1.084   .     S
H308   C390    1.084   1_455 S
N323   H324    1.020   .     S
N323   C325    1.448   .     S
C325   H326    1.104   .     S
C325   H327    1.110   .     S
C325   H1192   1.109   1_554 S
H328   C757    1.109   .     S
N329   C331    1.448   .     S
N329   H330    1.020   .     S
C331   H332    1.104   .     S
C331   H334    1.110   .     S
C331   H765    1.109   .     S
H333   C1195   1.109   1_554 S
C337   O365    1.303   .     A
C337   C348    1.450   .     S
C337   O363    1.304   .     A
C338   O366    1.303   .     A
C338   C347    1.450   .     S
C338   O364    1.304   .     A
C339   O367    1.297   .     A
C339   O369    1.305   .     A
C339   C341    1.442   .     S
C340   O368    1.297   .     A
C340   C342    1.442   .     S
C340   O370    1.305   .     A
C342   C389    1.338   .     S
C342   H404    1.084   .     S
C343   C348    1.401   .     A
C343   H357    1.083   .     S
C344   H358    1.083   .     S
C344   C347    1.401   .     A
C344   C58     1.383   1_565 S
C345   C347    1.401   .     A
C345   H359    1.083   .     S
C345   C55     1.383   1_565 S
C346   C348    1.401   .     A
C346   H360    1.083   .     S
C349   N371    1.427   .     S
C349   N362    1.382   .     A
C349   C1215   1.429   1_554 S
C350   N377    1.427   .     S
C350   N361    1.382   .     A
C350   C784    1.429   .     S
C351   I383    2.148   .     S
C351   N361    1.377   .     A
C351   C781    1.429   .     S
C352   I384    2.148   .     S
C352   N362    1.377   .     A
C352   C1214   1.429   1_554 S
Cu353  N361    2.042   .     S
Cu353  Cu354   2.718   .     S
Cu353  O366    1.962   .     S
Cu353  O367    1.960   .     S
Cu353  O370    1.965   .     S
Cu353  O363    1.963   .     S
Cu354  N362    2.042   .     S
Cu354  O364    1.963   .     S
Cu354  O365    1.962   .     S
Cu354  O369    1.965   .     S
Cu354  O368    1.960   .     S
H355   C389    1.084   .     S
N371   H372    1.020   .     S
N371   C373    1.448   .     S
C373   H374    1.104   .     S
C373   H375    1.110   .     S
C373   H1240   1.109   1_554 S
H376   C805    1.109   .     S
N377   C379    1.448   .     S
N377   H378    1.020   .     S
C379   H380    1.104   .     S
C379   H382    1.110   .     S
C379   H813    1.109   .     S
H381   C1243   1.109   1_554 S
C385   O413    1.303   .     A
C385   C396    1.450   .     S
C385   O411    1.304   .     A
C386   O414    1.303   .     A
C386   C395    1.450   .     S
C386   O412    1.304   .     A
C387   O415    1.297   .     A
C387   O417    1.305   .     A
C387   C389    1.442   .     S
C388   O416    1.297   .     A
C388   C390    1.442   .     S
C388   O418    1.305   .     A
C390   C293    1.338   1_655 S
C390   H308    1.084   1_655 S
C391   C396    1.401   .     A
C391   H405    1.083   .     S
C392   H406    1.083   .     S
C392   C395    1.401   .     A
C392   C106    1.383   1_565 S
C393   C395    1.401   .     A
C393   H407    1.083   .     S
C393   C103    1.383   1_565 S
C394   C396    1.401   .     A
C394   H408    1.083   .     S
C397   N419    1.427   .     S
C397   N410    1.382   .     A
C397   C1263   1.429   1_554 S
C398   N425    1.427   .     S
C398   N409    1.382   .     A
C398   C832    1.429   .     S
C399   I431    2.148   .     S
C399   N409    1.377   .     A
C399   C829    1.429   .     S
C400   I432    2.148   .     S
C400   N410    1.377   .     A
C400   C1262   1.429   1_554 S
Cu401  N409    2.042   .     S
Cu401  Cu402   2.718   .     S
Cu401  O414    1.962   .     S
Cu401  O415    1.960   .     S
Cu401  O418    1.965   .     S
Cu401  O411    1.963   .     S
Cu402  N410    2.042   .     S
Cu402  O412    1.963   .     S
Cu402  O413    1.962   .     S
Cu402  O417    1.965   .     S
Cu402  O416    1.960   .     S
H403   C293    1.084   1_655 S
N419   H420    1.020   .     S
N419   C421    1.448   .     S
C421   H422    1.104   .     S
C421   H423    1.110   .     S
C421   H1288   1.109   1_554 S
H424   C853    1.109   .     S
N425   C427    1.448   .     S
N425   H426    1.020   .     S
C427   H428    1.104   .     S
C427   H430    1.110   .     S
C427   H861    1.109   .     S
H429   C1291   1.109   1_554 S
C433   O461    1.303   .     A
C433   C444    1.450   .     S
C433   O459    1.304   .     A
C434   O462    1.303   .     A
C434   C443    1.450   .     S
C434   O460    1.304   .     A
C435   O463    1.297   .     A
C435   O465    1.305   .     A
C435   C437    1.442   .     S
C436   O464    1.297   .     A
C436   C438    1.442   .     S
C436   O466    1.305   .     A
C437   C534    1.338   1_455 S
C437   H547    1.084   1_455 S
C438   C485    1.338   .     S
C438   H500    1.084   .     S
C439   C444    1.401   .     A
C439   H453    1.083   .     S
C439   C729    1.383   1_545 S
C440   H454    1.083   .     S
C440   C443    1.401   .     A
C440   C586    1.383   .     S
C441   C443    1.401   .     A
C441   H455    1.083   .     S
C441   C583    1.383   .     S
C442   C444    1.401   .     A
C442   H456    1.083   .     S
C442   C728    1.383   1_545 S
C445   N467    1.427   .     S
C445   N458    1.382   .     A
C446   N473    1.427   .     S
C446   N457    1.382   .     A
C446   C880    1.429   .     S
C447   I479    2.148   .     S
C447   N457    1.377   .     A
C447   C877    1.429   .     S
C448   I480    2.148   .     S
C448   N458    1.377   .     A
Cu449  N457    2.042   .     S
Cu449  Cu450   2.718   .     S
Cu449  O462    1.962   .     S
Cu449  O463    1.960   .     S
Cu449  O466    1.965   .     S
Cu449  O459    1.963   .     S
Cu450  N458    2.042   .     S
Cu450  O460    1.963   .     S
Cu450  O461    1.962   .     S
Cu450  O465    1.965   .     S
Cu450  O464    1.960   .     S
H451   C485    1.084   .     S
H452   C534    1.084   1_455 S
N467   H468    1.020   .     S
N467   C469    1.448   .     S
C469   H470    1.104   .     S
C469   H471    1.110   .     S
H472   C901    1.109   .     S
N473   C475    1.448   .     S
N473   H474    1.020   .     S
C475   H476    1.104   .     S
C475   H478    1.110   .     S
C475   H909    1.109   .     S
C481   O509    1.303   .     A
C481   C492    1.450   .     S
C481   O507    1.304   .     A
C482   O510    1.303   .     A
C482   C491    1.450   .     S
C482   O508    1.304   .     A
C483   O511    1.297   .     A
C483   O513    1.305   .     A
C483   C485    1.442   .     S
C484   O512    1.297   .     A
C484   C486    1.442   .     S
C484   O514    1.305   .     A
C486   C533    1.338   .     S
C486   H548    1.084   .     S
C487   C492    1.401   .     A
C487   H501    1.083   .     S
C487   C777    1.383   1_545 S
C488   H502    1.083   .     S
C488   C491    1.401   .     A
C488   C634    1.383   .     S
C489   C491    1.401   .     A
C489   H503    1.083   .     S
C489   C631    1.383   .     S
C490   C492    1.401   .     A
C490   H504    1.083   .     S
C490   C776    1.383   1_545 S
C493   N515    1.427   .     S
C493   N506    1.382   .     A
C494   N521    1.427   .     S
C494   N505    1.382   .     A
C494   C928    1.429   .     S
C495   I527    2.148   .     S
C495   N505    1.377   .     A
C495   C925    1.429   .     S
C496   I528    2.148   .     S
C496   N506    1.377   .     A
Cu497  N505    2.042   .     S
Cu497  Cu498   2.718   .     S
Cu497  O510    1.962   .     S
Cu497  O511    1.960   .     S
Cu497  O514    1.965   .     S
Cu497  O507    1.963   .     S
Cu498  N506    2.042   .     S
Cu498  O508    1.963   .     S
Cu498  O509    1.962   .     S
Cu498  O513    1.965   .     S
Cu498  O512    1.960   .     S
H499   C533    1.084   .     S
N515   H516    1.020   .     S
N515   C517    1.448   .     S
C517   H518    1.104   .     S
C517   H519    1.110   .     S
H520   C949    1.109   .     S
N521   C523    1.448   .     S
N521   H522    1.020   .     S
C523   H524    1.104   .     S
C523   H526    1.110   .     S
C523   H957    1.109   .     S
C529   O557    1.303   .     A
C529   C540    1.450   .     S
C529   O555    1.304   .     A
C530   O558    1.303   .     A
C530   C539    1.450   .     S
C530   O556    1.304   .     A
C531   O559    1.297   .     A
C531   O561    1.305   .     A
C531   C533    1.442   .     S
C532   O560    1.297   .     A
C532   C534    1.442   .     S
C532   O562    1.305   .     A
C534   C437    1.338   1_655 S
C534   H452    1.084   1_655 S
C535   C540    1.401   .     A
C535   H549    1.083   .     S
C535   C825    1.383   1_545 S
C536   H550    1.083   .     S
C536   C539    1.401   .     A
C536   C682    1.383   .     S
C537   C539    1.401   .     A
C537   H551    1.083   .     S
C537   C679    1.383   .     S
C538   C540    1.401   .     A
C538   H552    1.083   .     S
C538   C824    1.383   1_545 S
C541   N563    1.427   .     S
C541   N554    1.382   .     A
C542   N569    1.427   .     S
C542   N553    1.382   .     A
C542   C976    1.429   .     S
C543   I575    2.148   .     S
C543   N553    1.377   .     A
C543   C973    1.429   .     S
C544   I576    2.148   .     S
C544   N554    1.377   .     A
Cu545  N553    2.042   .     S
Cu545  Cu546   2.718   .     S
Cu545  O558    1.962   .     S
Cu545  O559    1.960   .     S
Cu545  O562    1.965   .     S
Cu545  O555    1.963   .     S
Cu546  N554    2.042   .     S
Cu546  O556    1.963   .     S
Cu546  O557    1.962   .     S
Cu546  O561    1.965   .     S
Cu546  O560    1.960   .     S
H547   C437    1.084   1_655 S
N563   H564    1.020   .     S
N563   C565    1.448   .     S
C565   H566    1.104   .     S
C565   H567    1.110   .     S
H568   C997    1.109   .     S
N569   C571    1.448   .     S
N569   H570    1.020   .     S
C571   H572    1.104   .     S
C571   H574    1.110   .     S
C571   H1005   1.109   .     S
C577   O605    1.303   .     A
C577   C588    1.450   .     S
C577   O603    1.304   .     A
C578   O606    1.303   .     A
C578   C587    1.450   .     S
C578   O604    1.304   .     A
C579   O607    1.297   .     A
C579   O609    1.305   .     A
C579   C581    1.442   .     S
C580   O608    1.297   .     A
C580   C582    1.442   .     S
C580   O610    1.305   .     A
C581   C678    1.338   1_455 S
C581   H691    1.084   1_455 S
C582   C629    1.338   .     S
C582   H644    1.084   .     S
C583   C588    1.401   .     A
C583   H597    1.083   .     S
C584   H598    1.083   .     S
C584   C587    1.401   .     A
C584   C730    1.383   .     S
C585   C587    1.401   .     A
C585   H599    1.083   .     S
C585   C727    1.383   .     S
C586   C588    1.401   .     A
C586   H600    1.083   .     S
C589   N611    1.427   .     S
C589   N602    1.382   .     A
C590   N617    1.427   .     S
C590   N601    1.382   .     A
C590   C1024   1.429   .     S
C591   I623    2.148   .     S
C591   N601    1.377   .     A
C591   C1021   1.429   .     S
C592   I624    2.148   .     S
C592   N602    1.377   .     A
Cu593  N601    2.042   .     S
Cu593  Cu594   2.718   .     S
Cu593  O606    1.962   .     S
Cu593  O607    1.960   .     S
Cu593  O610    1.965   .     S
Cu593  O603    1.963   .     S
Cu594  N602    2.042   .     S
Cu594  O604    1.963   .     S
Cu594  O605    1.962   .     S
Cu594  O609    1.965   .     S
Cu594  O608    1.960   .     S
H595   C629    1.084   .     S
H596   C678    1.084   1_455 S
N611   H612    1.020   .     S
N611   C613    1.448   .     S
C613   H614    1.104   .     S
C613   H615    1.110   .     S
H616   C1045   1.109   .     S
N617   C619    1.448   .     S
N617   H618    1.020   .     S
C619   H620    1.104   .     S
C619   H622    1.110   .     S
C619   H1053   1.109   .     S
C625   O653    1.303   .     A
C625   C636    1.450   .     S
C625   O651    1.304   .     A
C626   O654    1.303   .     A
C626   C635    1.450   .     S
C626   O652    1.304   .     A
C627   O655    1.297   .     A
C627   O657    1.305   .     A
C627   C629    1.442   .     S
C628   O656    1.297   .     A
C628   C630    1.442   .     S
C628   O658    1.305   .     A
C630   C677    1.338   .     S
C630   H692    1.084   .     S
C631   C636    1.401   .     A
C631   H645    1.083   .     S
C632   H646    1.083   .     S
C632   C635    1.401   .     A
C632   C778    1.383   .     S
C633   C635    1.401   .     A
C633   H647    1.083   .     S
C633   C775    1.383   .     S
C634   C636    1.401   .     A
C634   H648    1.083   .     S
C637   N659    1.427   .     S
C637   N650    1.382   .     A
C638   N665    1.427   .     S
C638   N649    1.382   .     A
C638   C1072   1.429   .     S
C639   I671    2.148   .     S
C639   N649    1.377   .     A
C639   C1069   1.429   .     S
C640   I672    2.148   .     S
C640   N650    1.377   .     A
Cu641  N649    2.042   .     S
Cu641  Cu642   2.718   .     S
Cu641  O654    1.962   .     S
Cu641  O655    1.960   .     S
Cu641  O658    1.965   .     S
Cu641  O651    1.963   .     S
Cu642  N650    2.042   .     S
Cu642  O652    1.963   .     S
Cu642  O653    1.962   .     S
Cu642  O657    1.965   .     S
Cu642  O656    1.960   .     S
H643   C677    1.084   .     S
N659   H660    1.020   .     S
N659   C661    1.448   .     S
C661   H662    1.104   .     S
C661   H663    1.110   .     S
H664   C1093   1.109   .     S
N665   C667    1.448   .     S
N665   H666    1.020   .     S
C667   H668    1.104   .     S
C667   H670    1.110   .     S
C667   H1101   1.109   .     S
C673   O701    1.303   .     A
C673   C684    1.450   .     S
C673   O699    1.304   .     A
C674   O702    1.303   .     A
C674   C683    1.450   .     S
C674   O700    1.304   .     A
C675   O703    1.297   .     A
C675   O705    1.305   .     A
C675   C677    1.442   .     S
C676   O704    1.297   .     A
C676   C678    1.442   .     S
C676   O706    1.305   .     A
C678   C581    1.338   1_655 S
C678   H596    1.084   1_655 S
C679   C684    1.401   .     A
C679   H693    1.083   .     S
C680   H694    1.083   .     S
C680   C683    1.401   .     A
C680   C826    1.383   .     S
C681   C683    1.401   .     A
C681   H695    1.083   .     S
C681   C823    1.383   .     S
C682   C684    1.401   .     A
C682   H696    1.083   .     S
C685   N707    1.427   .     S
C685   N698    1.382   .     A
C686   N713    1.427   .     S
C686   N697    1.382   .     A
C686   C1120   1.429   .     S
C687   I719    2.148   .     S
C687   N697    1.377   .     A
C687   C1117   1.429   .     S
C688   I720    2.148   .     S
C688   N698    1.377   .     A
Cu689  N697    2.042   .     S
Cu689  Cu690   2.718   .     S
Cu689  O702    1.962   .     S
Cu689  O703    1.960   .     S
Cu689  O706    1.965   .     S
Cu689  O699    1.963   .     S
Cu690  N698    2.042   .     S
Cu690  O700    1.963   .     S
Cu690  O701    1.962   .     S
Cu690  O705    1.965   .     S
Cu690  O704    1.960   .     S
H691   C581    1.084   1_655 S
N707   H708    1.020   .     S
N707   C709    1.448   .     S
C709   H710    1.104   .     S
C709   H711    1.110   .     S
H712   C1141   1.109   .     S
N713   C715    1.448   .     S
N713   H714    1.020   .     S
C715   H716    1.104   .     S
C715   H718    1.110   .     S
C715   H1149   1.109   .     S
C721   O749    1.303   .     A
C721   C732    1.450   .     S
C721   O747    1.304   .     A
C722   O750    1.303   .     A
C722   C731    1.450   .     S
C722   O748    1.304   .     A
C723   O751    1.297   .     A
C723   O753    1.305   .     A
C723   C725    1.442   .     S
C724   O752    1.297   .     A
C724   C726    1.442   .     S
C724   O754    1.305   .     A
C725   C822    1.338   1_455 S
C725   H835    1.084   1_455 S
C726   C773    1.338   .     S
C726   H788    1.084   .     S
C727   C732    1.401   .     A
C727   H741    1.083   .     S
C728   H742    1.083   .     S
C728   C731    1.401   .     A
C728   C442    1.383   1_565 S
C729   C731    1.401   .     A
C729   H743    1.083   .     S
C729   C439    1.383   1_565 S
C730   C732    1.401   .     A
C730   H744    1.083   .     S
C733   N755    1.427   .     S
C733   N746    1.382   .     A
C734   N761    1.427   .     S
C734   N745    1.382   .     A
C734   C1168   1.429   .     S
C735   I767    2.148   .     S
C735   N745    1.377   .     A
C735   C1165   1.429   .     S
C736   I768    2.148   .     S
C736   N746    1.377   .     A
Cu737  N745    2.042   .     S
Cu737  Cu738   2.718   .     S
Cu737  O750    1.962   .     S
Cu737  O751    1.960   .     S
Cu737  O754    1.965   .     S
Cu737  O747    1.963   .     S
Cu738  N746    2.042   .     S
Cu738  O748    1.963   .     S
Cu738  O749    1.962   .     S
Cu738  O753    1.965   .     S
Cu738  O752    1.960   .     S
H739   C773    1.084   .     S
H740   C822    1.084   1_455 S
N755   H756    1.020   .     S
N755   C757    1.448   .     S
C757   H758    1.104   .     S
C757   H759    1.110   .     S
H760   C1189   1.109   .     S
N761   C763    1.448   .     S
N761   H762    1.020   .     S
C763   H764    1.104   .     S
C763   H766    1.110   .     S
C763   H1197   1.109   .     S
C769   O797    1.303   .     A
C769   C780    1.450   .     S
C769   O795    1.304   .     A
C770   O798    1.303   .     A
C770   C779    1.450   .     S
C770   O796    1.304   .     A
C771   O799    1.297   .     A
C771   O801    1.305   .     A
C771   C773    1.442   .     S
C772   O800    1.297   .     A
C772   C774    1.442   .     S
C772   O802    1.305   .     A
C774   C821    1.338   .     S
C774   H836    1.084   .     S
C775   C780    1.401   .     A
C775   H789    1.083   .     S
C776   H790    1.083   .     S
C776   C779    1.401   .     A
C776   C490    1.383   1_565 S
C777   C779    1.401   .     A
C777   H791    1.083   .     S
C777   C487    1.383   1_565 S
C778   C780    1.401   .     A
C778   H792    1.083   .     S
C781   N803    1.427   .     S
C781   N794    1.382   .     A
C782   N809    1.427   .     S
C782   N793    1.382   .     A
C782   C1216   1.429   .     S
C783   I815    2.148   .     S
C783   N793    1.377   .     A
C783   C1213   1.429   .     S
C784   I816    2.148   .     S
C784   N794    1.377   .     A
Cu785  N793    2.042   .     S
Cu785  Cu786   2.718   .     S
Cu785  O798    1.962   .     S
Cu785  O799    1.960   .     S
Cu785  O802    1.965   .     S
Cu785  O795    1.963   .     S
Cu786  N794    2.042   .     S
Cu786  O796    1.963   .     S
Cu786  O797    1.962   .     S
Cu786  O801    1.965   .     S
Cu786  O800    1.960   .     S
H787   C821    1.084   .     S
N803   H804    1.020   .     S
N803   C805    1.448   .     S
C805   H806    1.104   .     S
C805   H807    1.110   .     S
H808   C1237   1.109   .     S
N809   C811    1.448   .     S
N809   H810    1.020   .     S
C811   H812    1.104   .     S
C811   H814    1.110   .     S
C811   H1245   1.109   .     S
C817   O845    1.303   .     A
C817   C828    1.450   .     S
C817   O843    1.304   .     A
C818   O846    1.303   .     A
C818   C827    1.450   .     S
C818   O844    1.304   .     A
C819   O847    1.297   .     A
C819   O849    1.305   .     A
C819   C821    1.442   .     S
C820   O848    1.297   .     A
C820   C822    1.442   .     S
C820   O850    1.305   .     A
C822   C725    1.338   1_655 S
C822   H740    1.084   1_655 S
C823   C828    1.401   .     A
C823   H837    1.083   .     S
C824   H838    1.083   .     S
C824   C827    1.401   .     A
C824   C538    1.383   1_565 S
C825   C827    1.401   .     A
C825   H839    1.083   .     S
C825   C535    1.383   1_565 S
C826   C828    1.401   .     A
C826   H840    1.083   .     S
C829   N851    1.427   .     S
C829   N842    1.382   .     A
C830   N857    1.427   .     S
C830   N841    1.382   .     A
C830   C1264   1.429   .     S
C831   I863    2.148   .     S
C831   N841    1.377   .     A
C831   C1261   1.429   .     S
C832   I864    2.148   .     S
C832   N842    1.377   .     A
Cu833  N841    2.042   .     S
Cu833  Cu834   2.718   .     S
Cu833  O846    1.962   .     S
Cu833  O847    1.960   .     S
Cu833  O850    1.965   .     S
Cu833  O843    1.963   .     S
Cu834  N842    2.042   .     S
Cu834  O844    1.963   .     S
Cu834  O845    1.962   .     S
Cu834  O849    1.965   .     S
Cu834  O848    1.960   .     S
H835   C725    1.084   1_655 S
N851   H852    1.020   .     S
N851   C853    1.448   .     S
C853   H854    1.104   .     S
C853   H855    1.110   .     S
H856   C1285   1.109   .     S
N857   C859    1.448   .     S
N857   H858    1.020   .     S
C859   H860    1.104   .     S
C859   H862    1.110   .     S
C859   H1293   1.109   .     S
C865   O893    1.303   .     A
C865   C876    1.450   .     S
C865   O891    1.304   .     A
C866   O894    1.303   .     A
C866   C875    1.450   .     S
C866   O892    1.304   .     A
C867   O895    1.297   .     A
C867   O897    1.305   .     A
C867   C869    1.442   .     S
C868   O896    1.297   .     A
C868   C870    1.442   .     S
C868   O898    1.305   .     A
C869   C966    1.338   1_455 S
C869   H979    1.084   1_455 S
C870   C917    1.338   .     S
C870   H932    1.084   .     S
C871   C876    1.401   .     A
C871   H885    1.083   .     S
C871   C1161   1.383   1_545 S
C872   H886    1.083   .     S
C872   C875    1.401   .     A
C872   C1018   1.383   .     S
C873   C875    1.401   .     A
C873   H887    1.083   .     S
C873   C1015   1.383   .     S
C874   C876    1.401   .     A
C874   H888    1.083   .     S
C874   C1160   1.383   1_545 S
C877   N899    1.427   .     S
C877   N890    1.382   .     A
C878   N905    1.427   .     S
C878   N889    1.382   .     A
C878   C16     1.429   1_556 S
C879   I911    2.148   .     S
C879   N889    1.377   .     A
C879   C13     1.429   1_556 S
C880   I912    2.148   .     S
C880   N890    1.377   .     A
Cu881  N889    2.042   .     S
Cu881  Cu882   2.718   .     S
Cu881  O894    1.962   .     S
Cu881  O895    1.960   .     S
Cu881  O898    1.965   .     S
Cu881  O891    1.963   .     S
Cu882  N890    2.042   .     S
Cu882  O892    1.963   .     S
Cu882  O893    1.962   .     S
Cu882  O897    1.965   .     S
Cu882  O896    1.960   .     S
H883   C917    1.084   .     S
H884   C966    1.084   1_455 S
N899   H900    1.020   .     S
N899   C901    1.448   .     S
C901   H902    1.104   .     S
C901   H903    1.110   .     S
H904   C37     1.109   1_556 S
N905   C907    1.448   .     S
N905   H906    1.020   .     S
C907   H908    1.104   .     S
C907   H910    1.110   .     S
C907   H45     1.109   1_556 S
C913   O941    1.303   .     A
C913   C924    1.450   .     S
C913   O939    1.304   .     A
C914   O942    1.303   .     A
C914   C923    1.450   .     S
C914   O940    1.304   .     A
C915   O943    1.297   .     A
C915   O945    1.305   .     A
C915   C917    1.442   .     S
C916   O944    1.297   .     A
C916   C918    1.442   .     S
C916   O946    1.305   .     A
C918   C965    1.338   .     S
C918   H980    1.084   .     S
C919   C924    1.401   .     A
C919   H933    1.083   .     S
C919   C1209   1.383   1_545 S
C920   H934    1.083   .     S
C920   C923    1.401   .     A
C920   C1066   1.383   .     S
C921   C923    1.401   .     A
C921   H935    1.083   .     S
C921   C1063   1.383   .     S
C922   C924    1.401   .     A
C922   H936    1.083   .     S
C922   C1208   1.383   1_545 S
C925   N947    1.427   .     S
C925   N938    1.382   .     A
C926   N953    1.427   .     S
C926   N937    1.382   .     A
C926   C64     1.429   1_556 S
C927   I959    2.148   .     S
C927   N937    1.377   .     A
C927   C61     1.429   1_556 S
C928   I960    2.148   .     S
C928   N938    1.377   .     A
Cu929  N937    2.042   .     S
Cu929  Cu930   2.718   .     S
Cu929  O942    1.962   .     S
Cu929  O943    1.960   .     S
Cu929  O946    1.965   .     S
Cu929  O939    1.963   .     S
Cu930  N938    2.042   .     S
Cu930  O940    1.963   .     S
Cu930  O941    1.962   .     S
Cu930  O945    1.965   .     S
Cu930  O944    1.960   .     S
H931   C965    1.084   .     S
N947   H948    1.020   .     S
N947   C949    1.448   .     S
C949   H950    1.104   .     S
C949   H951    1.110   .     S
H952   C85     1.109   1_556 S
N953   C955    1.448   .     S
N953   H954    1.020   .     S
C955   H956    1.104   .     S
C955   H958    1.110   .     S
C955   H93     1.109   1_556 S
C961   O989    1.303   .     A
C961   C972    1.450   .     S
C961   O987    1.304   .     A
C962   O990    1.303   .     A
C962   C971    1.450   .     S
C962   O988    1.304   .     A
C963   O991    1.297   .     A
C963   O993    1.305   .     A
C963   C965    1.442   .     S
C964   O992    1.297   .     A
C964   C966    1.442   .     S
C964   O994    1.305   .     A
C966   C869    1.338   1_655 S
C966   H884    1.084   1_655 S
C967   C972    1.401   .     A
C967   H981    1.083   .     S
C967   C1257   1.383   1_545 S
C968   H982    1.083   .     S
C968   C971    1.401   .     A
C968   C1114   1.383   .     S
C969   C971    1.401   .     A
C969   H983    1.083   .     S
C969   C1111   1.383   .     S
C970   C972    1.401   .     A
C970   H984    1.083   .     S
C970   C1256   1.383   1_545 S
C973   N995    1.427   .     S
C973   N986    1.382   .     A
C974   N1001   1.427   .     S
C974   N985    1.382   .     A
C974   C112    1.429   1_556 S
C975   I1007   2.148   .     S
C975   N985    1.377   .     A
C975   C109    1.429   1_556 S
C976   I1008   2.148   .     S
C976   N986    1.377   .     A
Cu977  N985    2.042   .     S
Cu977  Cu978   2.718   .     S
Cu977  O990    1.962   .     S
Cu977  O991    1.960   .     S
Cu977  O994    1.965   .     S
Cu977  O987    1.963   .     S
Cu978  N986    2.042   .     S
Cu978  O988    1.963   .     S
Cu978  O989    1.962   .     S
Cu978  O993    1.965   .     S
Cu978  O992    1.960   .     S
H979   C869    1.084   1_655 S
N995   H996    1.020   .     S
N995   C997    1.448   .     S
C997   H998    1.104   .     S
C997   H999    1.110   .     S
H1000  C133    1.109   1_556 S
N1001  C1003   1.448   .     S
N1001  H1002   1.020   .     S
C1003  H1004   1.104   .     S
C1003  H1006   1.110   .     S
C1003  H141    1.109   1_556 S
C1009  O1037   1.303   .     A
C1009  C1020   1.450   .     S
C1009  O1035   1.304   .     A
C1010  O1038   1.303   .     A
C1010  C1019   1.450   .     S
C1010  O1036   1.304   .     A
C1011  O1039   1.297   .     A
C1011  O1041   1.305   .     A
C1011  C1013   1.442   .     S
C1012  O1040   1.297   .     A
C1012  C1014   1.442   .     S
C1012  O1042   1.305   .     A
C1013  C1110   1.338   1_455 S
C1013  H1123   1.084   1_455 S
C1014  C1061   1.338   .     S
C1014  H1076   1.084   .     S
C1015  C1020   1.401   .     A
C1015  H1029   1.083   .     S
C1016  H1030   1.083   .     S
C1016  C1019   1.401   .     A
C1016  C1162   1.383   .     S
C1017  C1019   1.401   .     A
C1017  H1031   1.083   .     S
C1017  C1159   1.383   .     S
C1018  C1020   1.401   .     A
C1018  H1032   1.083   .     S
C1021  N1043   1.427   .     S
C1021  N1034   1.382   .     A
C1022  N1049   1.427   .     S
C1022  N1033   1.382   .     A
C1022  C160    1.429   1_556 S
C1023  I1055   2.148   .     S
C1023  N1033   1.377   .     A
C1023  C157    1.429   1_556 S
C1024  I1056   2.148   .     S
C1024  N1034   1.377   .     A
Cu1025 N1033   2.042   .     S
Cu1025 Cu1026  2.718   .     S
Cu1025 O1038   1.962   .     S
Cu1025 O1039   1.960   .     S
Cu1025 O1042   1.965   .     S
Cu1025 O1035   1.963   .     S
Cu1026 N1034   2.042   .     S
Cu1026 O1036   1.963   .     S
Cu1026 O1037   1.962   .     S
Cu1026 O1041   1.965   .     S
Cu1026 O1040   1.960   .     S
H1027  C1061   1.084   .     S
H1028  C1110   1.084   1_455 S
N1043  H1044   1.020   .     S
N1043  C1045   1.448   .     S
C1045  H1046   1.104   .     S
C1045  H1047   1.110   .     S
H1048  C181    1.109   1_556 S
N1049  C1051   1.448   .     S
N1049  H1050   1.020   .     S
C1051  H1052   1.104   .     S
C1051  H1054   1.110   .     S
C1051  H189    1.109   1_556 S
C1057  O1085   1.303   .     A
C1057  C1068   1.450   .     S
C1057  O1083   1.304   .     A
C1058  O1086   1.303   .     A
C1058  C1067   1.450   .     S
C1058  O1084   1.304   .     A
C1059  O1087   1.297   .     A
C1059  O1089   1.305   .     A
C1059  C1061   1.442   .     S
C1060  O1088   1.297   .     A
C1060  C1062   1.442   .     S
C1060  O1090   1.305   .     A
C1062  C1109   1.338   .     S
C1062  H1124   1.084   .     S
C1063  C1068   1.401   .     A
C1063  H1077   1.083   .     S
C1064  H1078   1.083   .     S
C1064  C1067   1.401   .     A
C1064  C1210   1.383   .     S
C1065  C1067   1.401   .     A
C1065  H1079   1.083   .     S
C1065  C1207   1.383   .     S
C1066  C1068   1.401   .     A
C1066  H1080   1.083   .     S
C1069  N1091   1.427   .     S
C1069  N1082   1.382   .     A
C1070  N1097   1.427   .     S
C1070  N1081   1.382   .     A
C1070  C208    1.429   1_556 S
C1071  I1103   2.148   .     S
C1071  N1081   1.377   .     A
C1071  C205    1.429   1_556 S
C1072  I1104   2.148   .     S
C1072  N1082   1.377   .     A
Cu1073 N1081   2.042   .     S
Cu1073 Cu1074  2.718   .     S
Cu1073 O1086   1.962   .     S
Cu1073 O1087   1.960   .     S
Cu1073 O1090   1.965   .     S
Cu1073 O1083   1.963   .     S
Cu1074 N1082   2.042   .     S
Cu1074 O1084   1.963   .     S
Cu1074 O1085   1.962   .     S
Cu1074 O1089   1.965   .     S
Cu1074 O1088   1.960   .     S
H1075  C1109   1.084   .     S
N1091  H1092   1.020   .     S
N1091  C1093   1.448   .     S
C1093  H1094   1.104   .     S
C1093  H1095   1.110   .     S
H1096  C229    1.109   1_556 S
N1097  C1099   1.448   .     S
N1097  H1098   1.020   .     S
C1099  H1100   1.104   .     S
C1099  H1102   1.110   .     S
C1099  H237    1.109   1_556 S
C1105  O1133   1.303   .     A
C1105  C1116   1.450   .     S
C1105  O1131   1.304   .     A
C1106  O1134   1.303   .     A
C1106  C1115   1.450   .     S
C1106  O1132   1.304   .     A
C1107  O1135   1.297   .     A
C1107  O1137   1.305   .     A
C1107  C1109   1.442   .     S
C1108  O1136   1.297   .     A
C1108  C1110   1.442   .     S
C1108  O1138   1.305   .     A
C1110  C1013   1.338   1_655 S
C1110  H1028   1.084   1_655 S
C1111  C1116   1.401   .     A
C1111  H1125   1.083   .     S
C1112  H1126   1.083   .     S
C1112  C1115   1.401   .     A
C1112  C1258   1.383   .     S
C1113  C1115   1.401   .     A
C1113  H1127   1.083   .     S
C1113  C1255   1.383   .     S
C1114  C1116   1.401   .     A
C1114  H1128   1.083   .     S
C1117  N1139   1.427   .     S
C1117  N1130   1.382   .     A
C1118  N1145   1.427   .     S
C1118  N1129   1.382   .     A
C1118  C256    1.429   1_556 S
C1119  I1151   2.148   .     S
C1119  N1129   1.377   .     A
C1119  C253    1.429   1_556 S
C1120  I1152   2.148   .     S
C1120  N1130   1.377   .     A
Cu1121 N1129   2.042   .     S
Cu1121 Cu1122  2.718   .     S
Cu1121 O1134   1.962   .     S
Cu1121 O1135   1.960   .     S
Cu1121 O1138   1.965   .     S
Cu1121 O1131   1.963   .     S
Cu1122 N1130   2.042   .     S
Cu1122 O1132   1.963   .     S
Cu1122 O1133   1.962   .     S
Cu1122 O1137   1.965   .     S
Cu1122 O1136   1.960   .     S
H1123  C1013   1.084   1_655 S
N1139  H1140   1.020   .     S
N1139  C1141   1.448   .     S
C1141  H1142   1.104   .     S
C1141  H1143   1.110   .     S
H1144  C277    1.109   1_556 S
N1145  C1147   1.448   .     S
N1145  H1146   1.020   .     S
C1147  H1148   1.104   .     S
C1147  H1150   1.110   .     S
C1147  H285    1.109   1_556 S
C1153  O1181   1.303   .     A
C1153  C1164   1.450   .     S
C1153  O1179   1.304   .     A
C1154  O1182   1.303   .     A
C1154  C1163   1.450   .     S
C1154  O1180   1.304   .     A
C1155  O1183   1.297   .     A
C1155  O1185   1.305   .     A
C1155  C1157   1.442   .     S
C1156  O1184   1.297   .     A
C1156  C1158   1.442   .     S
C1156  O1186   1.305   .     A
C1157  C1254   1.338   1_455 S
C1157  H1267   1.084   1_455 S
C1158  C1205   1.338   .     S
C1158  H1220   1.084   .     S
C1159  C1164   1.401   .     A
C1159  H1173   1.083   .     S
C1160  H1174   1.083   .     S
C1160  C1163   1.401   .     A
C1160  C874    1.383   1_565 S
C1161  C1163   1.401   .     A
C1161  H1175   1.083   .     S
C1161  C871    1.383   1_565 S
C1162  C1164   1.401   .     A
C1162  H1176   1.083   .     S
C1165  N1187   1.427   .     S
C1165  N1178   1.382   .     A
C1166  N1193   1.427   .     S
C1166  N1177   1.382   .     A
C1166  C304    1.429   1_556 S
C1167  I1199   2.148   .     S
C1167  N1177   1.377   .     A
C1167  C301    1.429   1_556 S
C1168  I1200   2.148   .     S
C1168  N1178   1.377   .     A
Cu1169 N1177   2.042   .     S
Cu1169 Cu1170  2.718   .     S
Cu1169 O1182   1.962   .     S
Cu1169 O1183   1.960   .     S
Cu1169 O1186   1.965   .     S
Cu1169 O1179   1.963   .     S
Cu1170 N1178   2.042   .     S
Cu1170 O1180   1.963   .     S
Cu1170 O1181   1.962   .     S
Cu1170 O1185   1.965   .     S
Cu1170 O1184   1.960   .     S
H1171  C1205   1.084   .     S
H1172  C1254   1.084   1_455 S
N1187  H1188   1.020   .     S
N1187  C1189   1.448   .     S
C1189  H1190   1.104   .     S
C1189  H1191   1.110   .     S
H1192  C325    1.109   1_556 S
N1193  C1195   1.448   .     S
N1193  H1194   1.020   .     S
C1195  H1196   1.104   .     S
C1195  H1198   1.110   .     S
C1195  H333    1.109   1_556 S
C1201  O1229   1.303   .     A
C1201  C1212   1.450   .     S
C1201  O1227   1.304   .     A
C1202  O1230   1.303   .     A
C1202  C1211   1.450   .     S
C1202  O1228   1.304   .     A
C1203  O1231   1.297   .     A
C1203  O1233   1.305   .     A
C1203  C1205   1.442   .     S
C1204  O1232   1.297   .     A
C1204  C1206   1.442   .     S
C1204  O1234   1.305   .     A
C1206  C1253   1.338   .     S
C1206  H1268   1.084   .     S
C1207  C1212   1.401   .     A
C1207  H1221   1.083   .     S
C1208  H1222   1.083   .     S
C1208  C1211   1.401   .     A
C1208  C922    1.383   1_565 S
C1209  C1211   1.401   .     A
C1209  H1223   1.083   .     S
C1209  C919    1.383   1_565 S
C1210  C1212   1.401   .     A
C1210  H1224   1.083   .     S
C1213  N1235   1.427   .     S
C1213  N1226   1.382   .     A
C1214  N1241   1.427   .     S
C1214  N1225   1.382   .     A
C1214  C352    1.429   1_556 S
C1215  I1247   2.148   .     S
C1215  N1225   1.377   .     A
C1215  C349    1.429   1_556 S
C1216  I1248   2.148   .     S
C1216  N1226   1.377   .     A
Cu1217 N1225   2.042   .     S
Cu1217 Cu1218  2.718   .     S
Cu1217 O1230   1.962   .     S
Cu1217 O1231   1.960   .     S
Cu1217 O1234   1.965   .     S
Cu1217 O1227   1.963   .     S
Cu1218 N1226   2.042   .     S
Cu1218 O1228   1.963   .     S
Cu1218 O1229   1.962   .     S
Cu1218 O1233   1.965   .     S
Cu1218 O1232   1.960   .     S
H1219  C1253   1.084   .     S
N1235  H1236   1.020   .     S
N1235  C1237   1.448   .     S
C1237  H1238   1.104   .     S
C1237  H1239   1.110   .     S
H1240  C373    1.109   1_556 S
N1241  C1243   1.448   .     S
N1241  H1242   1.020   .     S
C1243  H1244   1.104   .     S
C1243  H1246   1.110   .     S
C1243  H381    1.109   1_556 S
C1249  O1277   1.303   .     A
C1249  C1260   1.450   .     S
C1249  O1275   1.304   .     A
C1250  O1278   1.303   .     A
C1250  C1259   1.450   .     S
C1250  O1276   1.304   .     A
C1251  O1279   1.297   .     A
C1251  O1281   1.305   .     A
C1251  C1253   1.442   .     S
C1252  O1280   1.297   .     A
C1252  C1254   1.442   .     S
C1252  O1282   1.305   .     A
C1254  C1157   1.338   1_655 S
C1254  H1172   1.084   1_655 S
C1255  C1260   1.401   .     A
C1255  H1269   1.083   .     S
C1256  H1270   1.083   .     S
C1256  C1259   1.401   .     A
C1256  C970    1.383   1_565 S
C1257  C1259   1.401   .     A
C1257  H1271   1.083   .     S
C1257  C967    1.383   1_565 S
C1258  C1260   1.401   .     A
C1258  H1272   1.083   .     S
C1261  N1283   1.427   .     S
C1261  N1274   1.382   .     A
C1262  N1289   1.427   .     S
C1262  N1273   1.382   .     A
C1262  C400    1.429   1_556 S
C1263  I1295   2.148   .     S
C1263  N1273   1.377   .     A
C1263  C397    1.429   1_556 S
C1264  I1296   2.148   .     S
C1264  N1274   1.377   .     A
Cu1265 N1273   2.042   .     S
Cu1265 Cu1266  2.718   .     S
Cu1265 O1278   1.962   .     S
Cu1265 O1279   1.960   .     S
Cu1265 O1282   1.965   .     S
Cu1265 O1275   1.963   .     S
Cu1266 N1274   2.042   .     S
Cu1266 O1276   1.963   .     S
Cu1266 O1277   1.962   .     S
Cu1266 O1281   1.965   .     S
Cu1266 O1280   1.960   .     S
H1267  C1157   1.084   1_655 S
N1283  H1284   1.020   .     S
N1283  C1285   1.448   .     S
C1285  H1286   1.104   .     S
C1285  H1287   1.110   .     S
H1288  C421    1.109   1_556 S
N1289  C1291   1.448   .     S
N1289  H1290   1.020   .     S
C1291  H1292   1.104   .     S
C1291  H1294   1.110   .     S
C1291  H429    1.109   1_556 S
