data_str_m3_o10_o17_pcu_sym.151
_audit_creation_date              2020-01-03
_audit_creation_method            'Materials Studio'
_symmetry_space_group_name_H-M    'P1'
_symmetry_Int_Tables_number       1
_symmetry_cell_setting            triclinic
loop_
_symmetry_equiv_pos_as_xyz
  x,y,z
_cell_length_a                    23.3122
_cell_length_b                    25.6586
_cell_length_c                    29.8342
_cell_angle_alpha                 90.8099
_cell_angle_beta                  85.8453
_cell_angle_gamma                 93.7878
loop_
_atom_site_label
_atom_site_type_symbol
_atom_site_fract_x
_atom_site_fract_y
_atom_site_fract_z
_atom_site_U_iso_or_equiv
_atom_site_adp_type
_atom_site_occupancy
C1     C     0.18196   0.26491   0.24912   0.00000  Uiso   1.00
C2     C     0.18553   0.20928   0.40528   0.00000  Uiso   1.00
C3     C     0.16502   0.17001   0.11620   0.00000  Uiso   1.00
C4     C     0.16832   0.16333   0.38380   0.00000  Uiso   1.00
C5     C     0.18065   0.21644   0.09285   0.00000  Uiso   1.00
C6     C     0.15270   0.11690   0.40715   0.00000  Uiso   1.00
C7     C     0.18213   0.21492   0.04575   0.00000  Uiso   1.00
C8     C     0.15123   0.11842   0.45425   0.00000  Uiso   1.00
C9     C     0.16513   0.16767   0.02353   0.00000  Uiso   1.00
C10    C     0.16822   0.16567   0.47647   0.00000  Uiso   1.00
C11    C     0.14535   0.12238   0.04840   0.00000  Uiso   1.00
C12    C     0.15137   0.06842   0.25089   0.00000  Uiso   1.00
C13    C     0.18800   0.21096   0.45160   0.00000  Uiso   1.00
C14    C     0.20304   0.25877   0.02045   0.00000  Uiso   1.00
C15    C     0.13033   0.07456   0.47954   0.00000  Uiso   1.00
C16    C     0.19488   0.26606   0.11741   0.00000  Uiso   1.00
C17    C     0.13848   0.06728   0.38258   0.00000  Uiso   1.00
C18    C     0.23451   0.30450   0.45063   0.00000  Uiso   1.00
C19    C     0.09884   0.02884   0.04936   0.00000  Uiso   1.00
C20    C     0.20740   0.25717   0.47382   0.00000  Uiso   1.00
C21    C     0.12595   0.07616   0.02617   0.00000  Uiso   1.00
C22    C     0.19000   0.31946   0.24840   0.00000  Uiso   1.00
C23    C     0.14334   0.01387   0.25161   0.00000  Uiso   1.00
C24    C     0.16715   0.16537   0.33628   0.00000  Uiso   1.00
C25    C     0.16618   0.16797   0.16372   0.00000  Uiso   1.00
C26    C     0.14780   0.12406   0.09471   0.00000  Uiso   1.00
H27    H     0.13802   0.08948   0.11489   0.00000  Uiso   1.00
H28    H     0.15599   0.03128   0.39226   0.00000  Uiso   1.00
H29    H     0.22981   0.00933   0.46611   0.00000  Uiso   1.00
H30    H     0.10355   0.32401   0.03388   0.00000  Uiso   1.00
H31    H     0.19531   0.24386   0.38511   0.00000  Uiso   1.00
H32    H     0.21859   0.29439   0.03674   0.00000  Uiso   1.00
H33    H     0.11478   0.03894   0.46326   0.00000  Uiso   1.00
H34    H     0.23403   0.00325   0.24512   0.00000  Uiso   1.00
H35    H     0.09930   0.33009   0.25490   0.00000  Uiso   1.00
H36    H     0.00460   0.12760   0.21613   0.00000  Uiso   1.00
H37    H     0.32873   0.20573   0.28387   0.00000  Uiso   1.00
H38    H     0.17747   0.30208   0.10768   0.00000  Uiso   1.00
N39    N     0.31678   0.15265   0.23783   0.00000  Uiso   1.00
N40    N     0.01656   0.18068   0.26217   0.00000  Uiso   1.00
O41    O     0.12975   0.24619   0.25298   0.00000  Uiso   1.00
O42    O     0.10583   0.06590   0.35237   0.00000  Uiso   1.00
O43    O     0.26543   0.30140   0.41601   0.00000  Uiso   1.00
O44    O     0.06791   0.03194   0.08398   0.00000  Uiso   1.00
O45    O     0.20358   0.08714   0.24701   0.00000  Uiso   1.00
O46    O     0.22613   0.23721   0.24518   0.00000  Uiso   1.00
O47    O     0.10720   0.09613   0.25481   0.00000  Uiso   1.00
O48    O     0.11847   0.17117   0.31997   0.00000  Uiso   1.00
O49    O     0.21486   0.16216   0.18002   0.00000  Uiso   1.00
O50    O     0.21485   0.16219   0.31217   0.00000  Uiso   1.00
O51    O     0.11848   0.17115   0.18782   0.00000  Uiso   1.00
O52    O     0.22745   0.26741   0.14768   0.00000  Uiso   1.00
Zn53   Zn    0.10231   0.17266   0.25521   0.00000  Uiso   1.00
Zn54   Zn    0.23102   0.16067   0.24479   0.00000  Uiso   1.00
C55    C     0.51529   0.26491   0.24912   0.00000  Uiso   1.00
C56    C     0.51886   0.20928   0.40528   0.00000  Uiso   1.00
C57    C     0.49835   0.17001   0.11620   0.00000  Uiso   1.00
C58    C     0.50165   0.16333   0.38380   0.00000  Uiso   1.00
C59    C     0.51398   0.21644   0.09285   0.00000  Uiso   1.00
C60    C     0.48604   0.11690   0.40715   0.00000  Uiso   1.00
C61    C     0.51546   0.21492   0.04575   0.00000  Uiso   1.00
C62    C     0.48456   0.11842   0.45425   0.00000  Uiso   1.00
C63    C     0.49846   0.16767   0.02353   0.00000  Uiso   1.00
C64    C     0.50156   0.16567   0.47647   0.00000  Uiso   1.00
C65    C     0.47868   0.12238   0.04840   0.00000  Uiso   1.00
C66    C     0.48471   0.06842   0.25089   0.00000  Uiso   1.00
C67    C     0.52133   0.21096   0.45160   0.00000  Uiso   1.00
C68    C     0.53637   0.25877   0.02045   0.00000  Uiso   1.00
C69    C     0.46366   0.07456   0.47954   0.00000  Uiso   1.00
C70    C     0.52821   0.26606   0.11741   0.00000  Uiso   1.00
C71    C     0.47182   0.06728   0.38258   0.00000  Uiso   1.00
C72    C     0.56784   0.30450   0.45063   0.00000  Uiso   1.00
C73    C     0.43218   0.02884   0.04936   0.00000  Uiso   1.00
C74    C     0.54073   0.25717   0.47382   0.00000  Uiso   1.00
C75    C     0.45929   0.07616   0.02617   0.00000  Uiso   1.00
C76    C     0.52333   0.31946   0.24840   0.00000  Uiso   1.00
C77    C     0.47667   0.01387   0.25161   0.00000  Uiso   1.00
C78    C     0.50048   0.16537   0.33628   0.00000  Uiso   1.00
C79    C     0.49952   0.16797   0.16372   0.00000  Uiso   1.00
C80    C     0.48114   0.12406   0.09471   0.00000  Uiso   1.00
H81    H     0.47135   0.08948   0.11489   0.00000  Uiso   1.00
H82    H     0.48932   0.03128   0.39226   0.00000  Uiso   1.00
H83    H     0.56314   0.00933   0.46611   0.00000  Uiso   1.00
H84    H     0.43689   0.32401   0.03388   0.00000  Uiso   1.00
H85    H     0.52864   0.24386   0.38511   0.00000  Uiso   1.00
H86    H     0.55193   0.29439   0.03674   0.00000  Uiso   1.00
H87    H     0.44812   0.03894   0.46326   0.00000  Uiso   1.00
H88    H     0.56736   0.00325   0.24512   0.00000  Uiso   1.00
H89    H     0.43264   0.33009   0.25490   0.00000  Uiso   1.00
H90    H     0.33794   0.12760   0.21613   0.00000  Uiso   1.00
H91    H     0.66206   0.20573   0.28387   0.00000  Uiso   1.00
H92    H     0.51080   0.30208   0.10768   0.00000  Uiso   1.00
N93    N     0.65011   0.15265   0.23783   0.00000  Uiso   1.00
N94    N     0.34989   0.18068   0.26217   0.00000  Uiso   1.00
O95    O     0.46308   0.24619   0.25298   0.00000  Uiso   1.00
O96    O     0.43916   0.06590   0.35237   0.00000  Uiso   1.00
O97    O     0.59876   0.30140   0.41601   0.00000  Uiso   1.00
O98    O     0.40125   0.03194   0.08398   0.00000  Uiso   1.00
O99    O     0.53692   0.08714   0.24701   0.00000  Uiso   1.00
O100   O     0.55946   0.23721   0.24518   0.00000  Uiso   1.00
O101   O     0.44054   0.09613   0.25481   0.00000  Uiso   1.00
O102   O     0.45181   0.17117   0.31997   0.00000  Uiso   1.00
O103   O     0.54819   0.16216   0.18002   0.00000  Uiso   1.00
O104   O     0.54819   0.16219   0.31217   0.00000  Uiso   1.00
O105   O     0.45181   0.17115   0.18782   0.00000  Uiso   1.00
O106   O     0.56078   0.26741   0.14768   0.00000  Uiso   1.00
Zn107  Zn    0.43565   0.17266   0.25521   0.00000  Uiso   1.00
Zn108  Zn    0.56435   0.16067   0.24479   0.00000  Uiso   1.00
C109   C     0.84863   0.26491   0.24912   0.00000  Uiso   1.00
C110   C     0.85220   0.20928   0.40528   0.00000  Uiso   1.00
C111   C     0.83168   0.17001   0.11620   0.00000  Uiso   1.00
C112   C     0.83499   0.16333   0.38380   0.00000  Uiso   1.00
C113   C     0.84731   0.21644   0.09285   0.00000  Uiso   1.00
C114   C     0.81937   0.11690   0.40715   0.00000  Uiso   1.00
C115   C     0.84879   0.21492   0.04575   0.00000  Uiso   1.00
C116   C     0.81789   0.11842   0.45425   0.00000  Uiso   1.00
C117   C     0.83179   0.16767   0.02353   0.00000  Uiso   1.00
C118   C     0.83489   0.16567   0.47647   0.00000  Uiso   1.00
C119   C     0.81202   0.12238   0.04840   0.00000  Uiso   1.00
C120   C     0.81804   0.06842   0.25089   0.00000  Uiso   1.00
C121   C     0.85466   0.21096   0.45160   0.00000  Uiso   1.00
C122   C     0.86970   0.25877   0.02045   0.00000  Uiso   1.00
C123   C     0.79700   0.07456   0.47954   0.00000  Uiso   1.00
C124   C     0.86154   0.26606   0.11741   0.00000  Uiso   1.00
C125   C     0.80515   0.06728   0.38258   0.00000  Uiso   1.00
C126   C     0.90118   0.30450   0.45063   0.00000  Uiso   1.00
C127   C     0.76551   0.02884   0.04936   0.00000  Uiso   1.00
C128   C     0.87407   0.25717   0.47382   0.00000  Uiso   1.00
C129   C     0.79262   0.07616   0.02617   0.00000  Uiso   1.00
C130   C     0.85666   0.31946   0.24840   0.00000  Uiso   1.00
C131   C     0.81000   0.01387   0.25161   0.00000  Uiso   1.00
C132   C     0.83382   0.16537   0.33628   0.00000  Uiso   1.00
C133   C     0.83285   0.16797   0.16372   0.00000  Uiso   1.00
C134   C     0.81447   0.12406   0.09471   0.00000  Uiso   1.00
H135   H     0.80468   0.08948   0.11489   0.00000  Uiso   1.00
H136   H     0.82265   0.03128   0.39226   0.00000  Uiso   1.00
H137   H     0.89648   0.00933   0.46611   0.00000  Uiso   1.00
H138   H     0.77022   0.32401   0.03388   0.00000  Uiso   1.00
H139   H     0.86197   0.24386   0.38511   0.00000  Uiso   1.00
H140   H     0.88526   0.29439   0.03674   0.00000  Uiso   1.00
H141   H     0.78145   0.03894   0.46326   0.00000  Uiso   1.00
H142   H     0.90070   0.00325   0.24512   0.00000  Uiso   1.00
H143   H     0.76597   0.33009   0.25490   0.00000  Uiso   1.00
H144   H     0.67127   0.12760   0.21613   0.00000  Uiso   1.00
H145   H     0.99539   0.20573   0.28387   0.00000  Uiso   1.00
H146   H     0.84413   0.30208   0.10768   0.00000  Uiso   1.00
N147   N     0.98344   0.15265   0.23783   0.00000  Uiso   1.00
N148   N     0.68322   0.18068   0.26217   0.00000  Uiso   1.00
O149   O     0.79642   0.24619   0.25298   0.00000  Uiso   1.00
O150   O     0.77250   0.06590   0.35237   0.00000  Uiso   1.00
O151   O     0.93209   0.30140   0.41601   0.00000  Uiso   1.00
O152   O     0.73458   0.03194   0.08398   0.00000  Uiso   1.00
O153   O     0.87025   0.08714   0.24701   0.00000  Uiso   1.00
O154   O     0.89280   0.23721   0.24518   0.00000  Uiso   1.00
O155   O     0.77387   0.09613   0.25481   0.00000  Uiso   1.00
O156   O     0.78514   0.17117   0.31997   0.00000  Uiso   1.00
O157   O     0.88153   0.16216   0.18002   0.00000  Uiso   1.00
O158   O     0.88152   0.16219   0.31217   0.00000  Uiso   1.00
O159   O     0.78515   0.17115   0.18782   0.00000  Uiso   1.00
O160   O     0.89411   0.26741   0.14768   0.00000  Uiso   1.00
Zn161  Zn    0.76898   0.17266   0.25521   0.00000  Uiso   1.00
Zn162  Zn    0.89769   0.16067   0.24479   0.00000  Uiso   1.00
C163   C     0.18196   0.59825   0.24912   0.00000  Uiso   1.00
C164   C     0.18553   0.54261   0.40528   0.00000  Uiso   1.00
C165   C     0.16502   0.50334   0.11620   0.00000  Uiso   1.00
C166   C     0.16832   0.49666   0.38380   0.00000  Uiso   1.00
C167   C     0.18065   0.54977   0.09285   0.00000  Uiso   1.00
C168   C     0.15270   0.45023   0.40715   0.00000  Uiso   1.00
C169   C     0.18213   0.54825   0.04575   0.00000  Uiso   1.00
C170   C     0.15123   0.45175   0.45425   0.00000  Uiso   1.00
C171   C     0.16513   0.50100   0.02353   0.00000  Uiso   1.00
C172   C     0.16822   0.49900   0.47647   0.00000  Uiso   1.00
C173   C     0.14535   0.45572   0.04840   0.00000  Uiso   1.00
C174   C     0.15137   0.40175   0.25089   0.00000  Uiso   1.00
C175   C     0.18800   0.54429   0.45160   0.00000  Uiso   1.00
C176   C     0.20304   0.59211   0.02045   0.00000  Uiso   1.00
C177   C     0.13033   0.40789   0.47954   0.00000  Uiso   1.00
C178   C     0.19488   0.59939   0.11741   0.00000  Uiso   1.00
C179   C     0.13848   0.40061   0.38258   0.00000  Uiso   1.00
C180   C     0.23451   0.63783   0.45063   0.00000  Uiso   1.00
C181   C     0.09884   0.36217   0.04936   0.00000  Uiso   1.00
C182   C     0.20740   0.59051   0.47382   0.00000  Uiso   1.00
C183   C     0.12595   0.40950   0.02617   0.00000  Uiso   1.00
C184   C     0.19000   0.65279   0.24840   0.00000  Uiso   1.00
C185   C     0.14334   0.34721   0.25161   0.00000  Uiso   1.00
C186   C     0.16715   0.49870   0.33628   0.00000  Uiso   1.00
C187   C     0.16618   0.50130   0.16372   0.00000  Uiso   1.00
C188   C     0.14780   0.45740   0.09471   0.00000  Uiso   1.00
H189   H     0.13802   0.42282   0.11489   0.00000  Uiso   1.00
H190   H     0.15599   0.36462   0.39226   0.00000  Uiso   1.00
H191   H     0.22981   0.34266   0.46611   0.00000  Uiso   1.00
H192   H     0.10355   0.65734   0.03388   0.00000  Uiso   1.00
H193   H     0.19531   0.57719   0.38511   0.00000  Uiso   1.00
H194   H     0.21859   0.62772   0.03674   0.00000  Uiso   1.00
H195   H     0.11478   0.37228   0.46326   0.00000  Uiso   1.00
H196   H     0.23403   0.33658   0.24512   0.00000  Uiso   1.00
H197   H     0.09930   0.66342   0.25490   0.00000  Uiso   1.00
H198   H     0.00460   0.46094   0.21613   0.00000  Uiso   1.00
H199   H     0.32873   0.53906   0.28387   0.00000  Uiso   1.00
H200   H     0.17747   0.63541   0.10768   0.00000  Uiso   1.00
N201   N     0.31678   0.48598   0.23783   0.00000  Uiso   1.00
N202   N     0.01656   0.51402   0.26217   0.00000  Uiso   1.00
O203   O     0.12975   0.57952   0.25298   0.00000  Uiso   1.00
O204   O     0.10583   0.39923   0.35237   0.00000  Uiso   1.00
O205   O     0.26543   0.63473   0.41601   0.00000  Uiso   1.00
O206   O     0.06791   0.36527   0.08398   0.00000  Uiso   1.00
O207   O     0.20358   0.42048   0.24701   0.00000  Uiso   1.00
O208   O     0.22613   0.57054   0.24518   0.00000  Uiso   1.00
O209   O     0.10720   0.42946   0.25481   0.00000  Uiso   1.00
O210   O     0.11847   0.50450   0.31997   0.00000  Uiso   1.00
O211   O     0.21486   0.49550   0.18002   0.00000  Uiso   1.00
O212   O     0.21485   0.49552   0.31217   0.00000  Uiso   1.00
O213   O     0.11848   0.50448   0.18782   0.00000  Uiso   1.00
O214   O     0.22745   0.60075   0.14768   0.00000  Uiso   1.00
Zn215  Zn    0.10231   0.50600   0.25521   0.00000  Uiso   1.00
Zn216  Zn    0.23102   0.49400   0.24479   0.00000  Uiso   1.00
C217   C     0.51529   0.59825   0.24912   0.00000  Uiso   1.00
C218   C     0.51886   0.54261   0.40528   0.00000  Uiso   1.00
C219   C     0.49835   0.50334   0.11620   0.00000  Uiso   1.00
C220   C     0.50165   0.49666   0.38380   0.00000  Uiso   1.00
C221   C     0.51398   0.54977   0.09285   0.00000  Uiso   1.00
C222   C     0.48604   0.45023   0.40715   0.00000  Uiso   1.00
C223   C     0.51546   0.54825   0.04575   0.00000  Uiso   1.00
C224   C     0.48456   0.45175   0.45425   0.00000  Uiso   1.00
C225   C     0.49846   0.50100   0.02353   0.00000  Uiso   1.00
C226   C     0.50156   0.49900   0.47647   0.00000  Uiso   1.00
C227   C     0.47868   0.45572   0.04840   0.00000  Uiso   1.00
C228   C     0.48471   0.40175   0.25089   0.00000  Uiso   1.00
C229   C     0.52133   0.54429   0.45160   0.00000  Uiso   1.00
C230   C     0.53637   0.59211   0.02045   0.00000  Uiso   1.00
C231   C     0.46366   0.40789   0.47954   0.00000  Uiso   1.00
C232   C     0.52821   0.59939   0.11741   0.00000  Uiso   1.00
C233   C     0.47182   0.40061   0.38258   0.00000  Uiso   1.00
C234   C     0.56784   0.63783   0.45063   0.00000  Uiso   1.00
C235   C     0.43218   0.36217   0.04936   0.00000  Uiso   1.00
C236   C     0.54073   0.59051   0.47382   0.00000  Uiso   1.00
C237   C     0.45929   0.40950   0.02617   0.00000  Uiso   1.00
C238   C     0.52333   0.65279   0.24840   0.00000  Uiso   1.00
C239   C     0.47667   0.34721   0.25161   0.00000  Uiso   1.00
C240   C     0.50048   0.49870   0.33628   0.00000  Uiso   1.00
C241   C     0.49952   0.50130   0.16372   0.00000  Uiso   1.00
C242   C     0.48114   0.45740   0.09471   0.00000  Uiso   1.00
H243   H     0.47135   0.42282   0.11489   0.00000  Uiso   1.00
H244   H     0.48932   0.36462   0.39226   0.00000  Uiso   1.00
H245   H     0.56314   0.34266   0.46611   0.00000  Uiso   1.00
H246   H     0.43689   0.65734   0.03388   0.00000  Uiso   1.00
H247   H     0.52864   0.57719   0.38511   0.00000  Uiso   1.00
H248   H     0.55193   0.62772   0.03674   0.00000  Uiso   1.00
H249   H     0.44812   0.37228   0.46326   0.00000  Uiso   1.00
H250   H     0.56736   0.33658   0.24512   0.00000  Uiso   1.00
H251   H     0.43264   0.66342   0.25490   0.00000  Uiso   1.00
H252   H     0.33794   0.46094   0.21613   0.00000  Uiso   1.00
H253   H     0.66206   0.53906   0.28387   0.00000  Uiso   1.00
H254   H     0.51080   0.63541   0.10768   0.00000  Uiso   1.00
N255   N     0.65011   0.48598   0.23783   0.00000  Uiso   1.00
N256   N     0.34989   0.51402   0.26217   0.00000  Uiso   1.00
O257   O     0.46308   0.57952   0.25298   0.00000  Uiso   1.00
O258   O     0.43916   0.39923   0.35237   0.00000  Uiso   1.00
O259   O     0.59876   0.63473   0.41601   0.00000  Uiso   1.00
O260   O     0.40125   0.36527   0.08398   0.00000  Uiso   1.00
O261   O     0.53692   0.42048   0.24701   0.00000  Uiso   1.00
O262   O     0.55946   0.57054   0.24518   0.00000  Uiso   1.00
O263   O     0.44054   0.42946   0.25481   0.00000  Uiso   1.00
O264   O     0.45181   0.50450   0.31997   0.00000  Uiso   1.00
O265   O     0.54819   0.49550   0.18002   0.00000  Uiso   1.00
O266   O     0.54819   0.49552   0.31217   0.00000  Uiso   1.00
O267   O     0.45181   0.50448   0.18782   0.00000  Uiso   1.00
O268   O     0.56078   0.60075   0.14768   0.00000  Uiso   1.00
Zn269  Zn    0.43565   0.50600   0.25521   0.00000  Uiso   1.00
Zn270  Zn    0.56435   0.49400   0.24479   0.00000  Uiso   1.00
C271   C     0.84863   0.59825   0.24912   0.00000  Uiso   1.00
C272   C     0.85220   0.54261   0.40528   0.00000  Uiso   1.00
C273   C     0.83168   0.50334   0.11620   0.00000  Uiso   1.00
C274   C     0.83499   0.49666   0.38380   0.00000  Uiso   1.00
C275   C     0.84731   0.54977   0.09285   0.00000  Uiso   1.00
C276   C     0.81937   0.45023   0.40715   0.00000  Uiso   1.00
C277   C     0.84879   0.54825   0.04575   0.00000  Uiso   1.00
C278   C     0.81789   0.45175   0.45425   0.00000  Uiso   1.00
C279   C     0.83179   0.50100   0.02353   0.00000  Uiso   1.00
C280   C     0.83489   0.49900   0.47647   0.00000  Uiso   1.00
C281   C     0.81202   0.45572   0.04840   0.00000  Uiso   1.00
C282   C     0.81804   0.40175   0.25089   0.00000  Uiso   1.00
C283   C     0.85466   0.54429   0.45160   0.00000  Uiso   1.00
C284   C     0.86970   0.59211   0.02045   0.00000  Uiso   1.00
C285   C     0.79700   0.40789   0.47954   0.00000  Uiso   1.00
C286   C     0.86154   0.59939   0.11741   0.00000  Uiso   1.00
C287   C     0.80515   0.40061   0.38258   0.00000  Uiso   1.00
C288   C     0.90118   0.63783   0.45063   0.00000  Uiso   1.00
C289   C     0.76551   0.36217   0.04936   0.00000  Uiso   1.00
C290   C     0.87407   0.59051   0.47382   0.00000  Uiso   1.00
C291   C     0.79262   0.40950   0.02617   0.00000  Uiso   1.00
C292   C     0.85666   0.65279   0.24840   0.00000  Uiso   1.00
C293   C     0.81000   0.34721   0.25161   0.00000  Uiso   1.00
C294   C     0.83382   0.49870   0.33628   0.00000  Uiso   1.00
C295   C     0.83285   0.50130   0.16372   0.00000  Uiso   1.00
C296   C     0.81447   0.45740   0.09471   0.00000  Uiso   1.00
H297   H     0.80468   0.42282   0.11489   0.00000  Uiso   1.00
H298   H     0.82265   0.36462   0.39226   0.00000  Uiso   1.00
H299   H     0.89648   0.34266   0.46611   0.00000  Uiso   1.00
H300   H     0.77022   0.65734   0.03388   0.00000  Uiso   1.00
H301   H     0.86197   0.57719   0.38511   0.00000  Uiso   1.00
H302   H     0.88526   0.62772   0.03674   0.00000  Uiso   1.00
H303   H     0.78145   0.37228   0.46326   0.00000  Uiso   1.00
H304   H     0.90070   0.33658   0.24512   0.00000  Uiso   1.00
H305   H     0.76597   0.66342   0.25490   0.00000  Uiso   1.00
H306   H     0.67127   0.46094   0.21613   0.00000  Uiso   1.00
H307   H     0.99539   0.53906   0.28387   0.00000  Uiso   1.00
H308   H     0.84413   0.63541   0.10768   0.00000  Uiso   1.00
N309   N     0.98344   0.48598   0.23783   0.00000  Uiso   1.00
N310   N     0.68322   0.51402   0.26217   0.00000  Uiso   1.00
O311   O     0.79642   0.57952   0.25298   0.00000  Uiso   1.00
O312   O     0.77250   0.39923   0.35237   0.00000  Uiso   1.00
O313   O     0.93209   0.63473   0.41601   0.00000  Uiso   1.00
O314   O     0.73458   0.36527   0.08398   0.00000  Uiso   1.00
O315   O     0.87025   0.42048   0.24701   0.00000  Uiso   1.00
O316   O     0.89280   0.57054   0.24518   0.00000  Uiso   1.00
O317   O     0.77387   0.42946   0.25481   0.00000  Uiso   1.00
O318   O     0.78514   0.50450   0.31997   0.00000  Uiso   1.00
O319   O     0.88153   0.49550   0.18002   0.00000  Uiso   1.00
O320   O     0.88152   0.49552   0.31217   0.00000  Uiso   1.00
O321   O     0.78515   0.50448   0.18782   0.00000  Uiso   1.00
O322   O     0.89411   0.60075   0.14768   0.00000  Uiso   1.00
Zn323  Zn    0.76898   0.50600   0.25521   0.00000  Uiso   1.00
Zn324  Zn    0.89769   0.49400   0.24479   0.00000  Uiso   1.00
C325   C     0.18196   0.93158   0.24912   0.00000  Uiso   1.00
C326   C     0.18553   0.87594   0.40528   0.00000  Uiso   1.00
C327   C     0.16502   0.83668   0.11620   0.00000  Uiso   1.00
C328   C     0.16832   0.83000   0.38380   0.00000  Uiso   1.00
C329   C     0.18065   0.88311   0.09285   0.00000  Uiso   1.00
C330   C     0.15270   0.78357   0.40715   0.00000  Uiso   1.00
C331   C     0.18213   0.88158   0.04575   0.00000  Uiso   1.00
C332   C     0.15123   0.78509   0.45425   0.00000  Uiso   1.00
C333   C     0.16513   0.83433   0.02353   0.00000  Uiso   1.00
C334   C     0.16822   0.83234   0.47647   0.00000  Uiso   1.00
C335   C     0.14535   0.78905   0.04840   0.00000  Uiso   1.00
C336   C     0.15137   0.73509   0.25089   0.00000  Uiso   1.00
C337   C     0.18800   0.87762   0.45160   0.00000  Uiso   1.00
C338   C     0.20304   0.92544   0.02045   0.00000  Uiso   1.00
C339   C     0.13033   0.74123   0.47954   0.00000  Uiso   1.00
C340   C     0.19488   0.93273   0.11741   0.00000  Uiso   1.00
C341   C     0.13848   0.73394   0.38258   0.00000  Uiso   1.00
C342   C     0.23451   0.97117   0.45063   0.00000  Uiso   1.00
C343   C     0.09884   0.69550   0.04936   0.00000  Uiso   1.00
C344   C     0.20740   0.92384   0.47382   0.00000  Uiso   1.00
C345   C     0.12595   0.74283   0.02617   0.00000  Uiso   1.00
C346   C     0.19000   0.98613   0.24840   0.00000  Uiso   1.00
C347   C     0.14334   0.68054   0.25161   0.00000  Uiso   1.00
C348   C     0.16715   0.83204   0.33628   0.00000  Uiso   1.00
C349   C     0.16618   0.83464   0.16372   0.00000  Uiso   1.00
C350   C     0.14780   0.79073   0.09471   0.00000  Uiso   1.00
H351   H     0.13802   0.75615   0.11489   0.00000  Uiso   1.00
H352   H     0.15599   0.69795   0.39226   0.00000  Uiso   1.00
H353   H     0.22981   0.67600   0.46611   0.00000  Uiso   1.00
H354   H     0.10355   0.99067   0.03388   0.00000  Uiso   1.00
H355   H     0.19531   0.91053   0.38511   0.00000  Uiso   1.00
H356   H     0.21859   0.96106   0.03674   0.00000  Uiso   1.00
H357   H     0.11478   0.70561   0.46326   0.00000  Uiso   1.00
H358   H     0.23403   0.66991   0.24512   0.00000  Uiso   1.00
H359   H     0.09930   0.99675   0.25490   0.00000  Uiso   1.00
H360   H     0.00460   0.79427   0.21613   0.00000  Uiso   1.00
H361   H     0.32873   0.87240   0.28387   0.00000  Uiso   1.00
H362   H     0.17747   0.96875   0.10768   0.00000  Uiso   1.00
N363   N     0.31678   0.81932   0.23783   0.00000  Uiso   1.00
N364   N     0.01656   0.84735   0.26217   0.00000  Uiso   1.00
O365   O     0.12975   0.91286   0.25298   0.00000  Uiso   1.00
O366   O     0.10583   0.73256   0.35237   0.00000  Uiso   1.00
O367   O     0.26543   0.96806   0.41601   0.00000  Uiso   1.00
O368   O     0.06791   0.69861   0.08398   0.00000  Uiso   1.00
O369   O     0.20358   0.75381   0.24701   0.00000  Uiso   1.00
O370   O     0.22613   0.90387   0.24518   0.00000  Uiso   1.00
O371   O     0.10720   0.76279   0.25481   0.00000  Uiso   1.00
O372   O     0.11847   0.83784   0.31997   0.00000  Uiso   1.00
O373   O     0.21486   0.82883   0.18002   0.00000  Uiso   1.00
O374   O     0.21485   0.82885   0.31217   0.00000  Uiso   1.00
O375   O     0.11848   0.83781   0.18782   0.00000  Uiso   1.00
O376   O     0.22745   0.93408   0.14768   0.00000  Uiso   1.00
Zn377  Zn    0.10231   0.83933   0.25521   0.00000  Uiso   1.00
Zn378  Zn    0.23102   0.82734   0.24479   0.00000  Uiso   1.00
C379   C     0.51529   0.93158   0.24912   0.00000  Uiso   1.00
C380   C     0.51886   0.87594   0.40528   0.00000  Uiso   1.00
C381   C     0.49835   0.83668   0.11620   0.00000  Uiso   1.00
C382   C     0.50165   0.83000   0.38380   0.00000  Uiso   1.00
C383   C     0.51398   0.88311   0.09285   0.00000  Uiso   1.00
C384   C     0.48604   0.78357   0.40715   0.00000  Uiso   1.00
C385   C     0.51546   0.88158   0.04575   0.00000  Uiso   1.00
C386   C     0.48456   0.78509   0.45425   0.00000  Uiso   1.00
C387   C     0.49846   0.83433   0.02353   0.00000  Uiso   1.00
C388   C     0.50156   0.83234   0.47647   0.00000  Uiso   1.00
C389   C     0.47868   0.78905   0.04840   0.00000  Uiso   1.00
C390   C     0.48471   0.73509   0.25089   0.00000  Uiso   1.00
C391   C     0.52133   0.87762   0.45160   0.00000  Uiso   1.00
C392   C     0.53637   0.92544   0.02045   0.00000  Uiso   1.00
C393   C     0.46366   0.74123   0.47954   0.00000  Uiso   1.00
C394   C     0.52821   0.93273   0.11741   0.00000  Uiso   1.00
C395   C     0.47182   0.73394   0.38258   0.00000  Uiso   1.00
C396   C     0.56784   0.97117   0.45063   0.00000  Uiso   1.00
C397   C     0.43218   0.69550   0.04936   0.00000  Uiso   1.00
C398   C     0.54073   0.92384   0.47382   0.00000  Uiso   1.00
C399   C     0.45929   0.74283   0.02617   0.00000  Uiso   1.00
C400   C     0.52333   0.98613   0.24840   0.00000  Uiso   1.00
C401   C     0.47667   0.68054   0.25161   0.00000  Uiso   1.00
C402   C     0.50048   0.83204   0.33628   0.00000  Uiso   1.00
C403   C     0.49952   0.83464   0.16372   0.00000  Uiso   1.00
C404   C     0.48114   0.79073   0.09471   0.00000  Uiso   1.00
H405   H     0.47135   0.75615   0.11489   0.00000  Uiso   1.00
H406   H     0.48932   0.69795   0.39226   0.00000  Uiso   1.00
H407   H     0.56314   0.67600   0.46611   0.00000  Uiso   1.00
H408   H     0.43689   0.99067   0.03388   0.00000  Uiso   1.00
H409   H     0.52864   0.91053   0.38511   0.00000  Uiso   1.00
H410   H     0.55193   0.96106   0.03674   0.00000  Uiso   1.00
H411   H     0.44812   0.70561   0.46326   0.00000  Uiso   1.00
H412   H     0.56736   0.66991   0.24512   0.00000  Uiso   1.00
H413   H     0.43264   0.99675   0.25490   0.00000  Uiso   1.00
H414   H     0.33794   0.79427   0.21613   0.00000  Uiso   1.00
H415   H     0.66206   0.87240   0.28387   0.00000  Uiso   1.00
H416   H     0.51080   0.96875   0.10768   0.00000  Uiso   1.00
N417   N     0.65011   0.81932   0.23783   0.00000  Uiso   1.00
N418   N     0.34989   0.84735   0.26217   0.00000  Uiso   1.00
O419   O     0.46308   0.91286   0.25298   0.00000  Uiso   1.00
O420   O     0.43916   0.73256   0.35237   0.00000  Uiso   1.00
O421   O     0.59876   0.96806   0.41601   0.00000  Uiso   1.00
O422   O     0.40125   0.69861   0.08398   0.00000  Uiso   1.00
O423   O     0.53692   0.75381   0.24701   0.00000  Uiso   1.00
O424   O     0.55946   0.90387   0.24518   0.00000  Uiso   1.00
O425   O     0.44054   0.76279   0.25481   0.00000  Uiso   1.00
O426   O     0.45181   0.83784   0.31997   0.00000  Uiso   1.00
O427   O     0.54819   0.82883   0.18002   0.00000  Uiso   1.00
O428   O     0.54819   0.82885   0.31217   0.00000  Uiso   1.00
O429   O     0.45181   0.83781   0.18782   0.00000  Uiso   1.00
O430   O     0.56078   0.93408   0.14768   0.00000  Uiso   1.00
Zn431  Zn    0.43565   0.83933   0.25521   0.00000  Uiso   1.00
Zn432  Zn    0.56435   0.82734   0.24479   0.00000  Uiso   1.00
C433   C     0.84863   0.93158   0.24912   0.00000  Uiso   1.00
C434   C     0.85220   0.87594   0.40528   0.00000  Uiso   1.00
C435   C     0.83168   0.83668   0.11620   0.00000  Uiso   1.00
C436   C     0.83499   0.83000   0.38380   0.00000  Uiso   1.00
C437   C     0.84731   0.88311   0.09285   0.00000  Uiso   1.00
C438   C     0.81937   0.78357   0.40715   0.00000  Uiso   1.00
C439   C     0.84879   0.88158   0.04575   0.00000  Uiso   1.00
C440   C     0.81789   0.78509   0.45425   0.00000  Uiso   1.00
C441   C     0.83179   0.83433   0.02353   0.00000  Uiso   1.00
C442   C     0.83489   0.83234   0.47647   0.00000  Uiso   1.00
C443   C     0.81202   0.78905   0.04840   0.00000  Uiso   1.00
C444   C     0.81804   0.73509   0.25089   0.00000  Uiso   1.00
C445   C     0.85466   0.87762   0.45160   0.00000  Uiso   1.00
C446   C     0.86970   0.92544   0.02045   0.00000  Uiso   1.00
C447   C     0.79700   0.74123   0.47954   0.00000  Uiso   1.00
C448   C     0.86154   0.93273   0.11741   0.00000  Uiso   1.00
C449   C     0.80515   0.73394   0.38258   0.00000  Uiso   1.00
C450   C     0.90118   0.97117   0.45063   0.00000  Uiso   1.00
C451   C     0.76551   0.69550   0.04936   0.00000  Uiso   1.00
C452   C     0.87407   0.92384   0.47382   0.00000  Uiso   1.00
C453   C     0.79262   0.74283   0.02617   0.00000  Uiso   1.00
C454   C     0.85666   0.98613   0.24840   0.00000  Uiso   1.00
C455   C     0.81000   0.68054   0.25161   0.00000  Uiso   1.00
C456   C     0.83382   0.83204   0.33628   0.00000  Uiso   1.00
C457   C     0.83285   0.83464   0.16372   0.00000  Uiso   1.00
C458   C     0.81447   0.79073   0.09471   0.00000  Uiso   1.00
H459   H     0.80468   0.75615   0.11489   0.00000  Uiso   1.00
H460   H     0.82265   0.69795   0.39226   0.00000  Uiso   1.00
H461   H     0.89648   0.67600   0.46611   0.00000  Uiso   1.00
H462   H     0.77022   0.99067   0.03388   0.00000  Uiso   1.00
H463   H     0.86197   0.91053   0.38511   0.00000  Uiso   1.00
H464   H     0.88526   0.96106   0.03674   0.00000  Uiso   1.00
H465   H     0.78145   0.70561   0.46326   0.00000  Uiso   1.00
H466   H     0.90070   0.66991   0.24512   0.00000  Uiso   1.00
H467   H     0.76597   0.99675   0.25490   0.00000  Uiso   1.00
H468   H     0.67127   0.79427   0.21613   0.00000  Uiso   1.00
H469   H     0.99539   0.87240   0.28387   0.00000  Uiso   1.00
H470   H     0.84413   0.96875   0.10768   0.00000  Uiso   1.00
N471   N     0.98344   0.81932   0.23783   0.00000  Uiso   1.00
N472   N     0.68322   0.84735   0.26217   0.00000  Uiso   1.00
O473   O     0.79642   0.91286   0.25298   0.00000  Uiso   1.00
O474   O     0.77250   0.73256   0.35237   0.00000  Uiso   1.00
O475   O     0.93209   0.96806   0.41601   0.00000  Uiso   1.00
O476   O     0.73458   0.69861   0.08398   0.00000  Uiso   1.00
O477   O     0.87025   0.75381   0.24701   0.00000  Uiso   1.00
O478   O     0.89280   0.90387   0.24518   0.00000  Uiso   1.00
O479   O     0.77387   0.76279   0.25481   0.00000  Uiso   1.00
O480   O     0.78514   0.83784   0.31997   0.00000  Uiso   1.00
O481   O     0.88153   0.82883   0.18002   0.00000  Uiso   1.00
O482   O     0.88152   0.82885   0.31217   0.00000  Uiso   1.00
O483   O     0.78515   0.83781   0.18782   0.00000  Uiso   1.00
O484   O     0.89411   0.93408   0.14768   0.00000  Uiso   1.00
Zn485  Zn    0.76898   0.83933   0.25521   0.00000  Uiso   1.00
Zn486  Zn    0.89769   0.82734   0.24479   0.00000  Uiso   1.00
C487   C     0.18196   0.26491   0.74912   0.00000  Uiso   1.00
C488   C     0.18553   0.20928   0.90528   0.00000  Uiso   1.00
C489   C     0.16502   0.17001   0.61620   0.00000  Uiso   1.00
C490   C     0.16832   0.16333   0.88380   0.00000  Uiso   1.00
C491   C     0.18065   0.21644   0.59285   0.00000  Uiso   1.00
C492   C     0.15270   0.11690   0.90715   0.00000  Uiso   1.00
C493   C     0.18213   0.21492   0.54575   0.00000  Uiso   1.00
C494   C     0.15123   0.11842   0.95425   0.00000  Uiso   1.00
C495   C     0.16513   0.16767   0.52353   0.00000  Uiso   1.00
C496   C     0.16822   0.16567   0.97647   0.00000  Uiso   1.00
C497   C     0.14535   0.12238   0.54840   0.00000  Uiso   1.00
C498   C     0.15137   0.06842   0.75089   0.00000  Uiso   1.00
C499   C     0.18800   0.21096   0.95160   0.00000  Uiso   1.00
C500   C     0.20304   0.25877   0.52045   0.00000  Uiso   1.00
C501   C     0.13033   0.07456   0.97954   0.00000  Uiso   1.00
C502   C     0.19488   0.26606   0.61741   0.00000  Uiso   1.00
C503   C     0.13848   0.06728   0.88258   0.00000  Uiso   1.00
C504   C     0.23451   0.30450   0.95063   0.00000  Uiso   1.00
C505   C     0.09884   0.02884   0.54936   0.00000  Uiso   1.00
C506   C     0.20740   0.25717   0.97382   0.00000  Uiso   1.00
C507   C     0.12595   0.07616   0.52617   0.00000  Uiso   1.00
C508   C     0.19000   0.31946   0.74840   0.00000  Uiso   1.00
C509   C     0.14334   0.01387   0.75161   0.00000  Uiso   1.00
C510   C     0.16715   0.16537   0.83628   0.00000  Uiso   1.00
C511   C     0.16618   0.16797   0.66372   0.00000  Uiso   1.00
C512   C     0.14780   0.12406   0.59471   0.00000  Uiso   1.00
H513   H     0.13802   0.08948   0.61489   0.00000  Uiso   1.00
H514   H     0.15599   0.03128   0.89226   0.00000  Uiso   1.00
H515   H     0.22981   0.00933   0.96611   0.00000  Uiso   1.00
H516   H     0.10355   0.32401   0.53388   0.00000  Uiso   1.00
H517   H     0.19531   0.24386   0.88511   0.00000  Uiso   1.00
H518   H     0.21859   0.29439   0.53674   0.00000  Uiso   1.00
H519   H     0.11478   0.03894   0.96326   0.00000  Uiso   1.00
H520   H     0.23403   0.00325   0.74512   0.00000  Uiso   1.00
H521   H     0.09930   0.33009   0.75490   0.00000  Uiso   1.00
H522   H     0.00460   0.12760   0.71613   0.00000  Uiso   1.00
H523   H     0.32873   0.20573   0.78387   0.00000  Uiso   1.00
H524   H     0.17747   0.30208   0.60768   0.00000  Uiso   1.00
N525   N     0.31678   0.15265   0.73783   0.00000  Uiso   1.00
N526   N     0.01656   0.18068   0.76217   0.00000  Uiso   1.00
O527   O     0.12975   0.24619   0.75298   0.00000  Uiso   1.00
O528   O     0.10583   0.06590   0.85237   0.00000  Uiso   1.00
O529   O     0.26543   0.30140   0.91601   0.00000  Uiso   1.00
O530   O     0.06791   0.03194   0.58398   0.00000  Uiso   1.00
O531   O     0.20358   0.08714   0.74701   0.00000  Uiso   1.00
O532   O     0.22613   0.23721   0.74518   0.00000  Uiso   1.00
O533   O     0.10720   0.09613   0.75481   0.00000  Uiso   1.00
O534   O     0.11847   0.17117   0.81997   0.00000  Uiso   1.00
O535   O     0.21486   0.16216   0.68002   0.00000  Uiso   1.00
O536   O     0.21485   0.16219   0.81217   0.00000  Uiso   1.00
O537   O     0.11848   0.17115   0.68782   0.00000  Uiso   1.00
O538   O     0.22745   0.26741   0.64768   0.00000  Uiso   1.00
Zn539  Zn    0.10231   0.17266   0.75521   0.00000  Uiso   1.00
Zn540  Zn    0.23102   0.16067   0.74479   0.00000  Uiso   1.00
C541   C     0.51529   0.26491   0.74912   0.00000  Uiso   1.00
C542   C     0.51886   0.20928   0.90528   0.00000  Uiso   1.00
C543   C     0.49835   0.17001   0.61620   0.00000  Uiso   1.00
C544   C     0.50165   0.16333   0.88380   0.00000  Uiso   1.00
C545   C     0.51398   0.21644   0.59285   0.00000  Uiso   1.00
C546   C     0.48604   0.11690   0.90715   0.00000  Uiso   1.00
C547   C     0.51546   0.21492   0.54575   0.00000  Uiso   1.00
C548   C     0.48456   0.11842   0.95425   0.00000  Uiso   1.00
C549   C     0.49846   0.16767   0.52353   0.00000  Uiso   1.00
C550   C     0.50156   0.16567   0.97647   0.00000  Uiso   1.00
C551   C     0.47868   0.12238   0.54840   0.00000  Uiso   1.00
C552   C     0.48471   0.06842   0.75089   0.00000  Uiso   1.00
C553   C     0.52133   0.21096   0.95160   0.00000  Uiso   1.00
C554   C     0.53637   0.25877   0.52045   0.00000  Uiso   1.00
C555   C     0.46366   0.07456   0.97954   0.00000  Uiso   1.00
C556   C     0.52821   0.26606   0.61741   0.00000  Uiso   1.00
C557   C     0.47182   0.06728   0.88258   0.00000  Uiso   1.00
C558   C     0.56784   0.30450   0.95063   0.00000  Uiso   1.00
C559   C     0.43218   0.02884   0.54936   0.00000  Uiso   1.00
C560   C     0.54073   0.25717   0.97382   0.00000  Uiso   1.00
C561   C     0.45929   0.07616   0.52617   0.00000  Uiso   1.00
C562   C     0.52333   0.31946   0.74840   0.00000  Uiso   1.00
C563   C     0.47667   0.01387   0.75161   0.00000  Uiso   1.00
C564   C     0.50048   0.16537   0.83628   0.00000  Uiso   1.00
C565   C     0.49952   0.16797   0.66372   0.00000  Uiso   1.00
C566   C     0.48114   0.12406   0.59471   0.00000  Uiso   1.00
H567   H     0.47135   0.08948   0.61489   0.00000  Uiso   1.00
H568   H     0.48932   0.03128   0.89226   0.00000  Uiso   1.00
H569   H     0.56314   0.00933   0.96611   0.00000  Uiso   1.00
H570   H     0.43689   0.32401   0.53388   0.00000  Uiso   1.00
H571   H     0.52864   0.24386   0.88511   0.00000  Uiso   1.00
H572   H     0.55193   0.29439   0.53674   0.00000  Uiso   1.00
H573   H     0.44812   0.03894   0.96326   0.00000  Uiso   1.00
H574   H     0.56736   0.00325   0.74512   0.00000  Uiso   1.00
H575   H     0.43264   0.33009   0.75490   0.00000  Uiso   1.00
H576   H     0.33794   0.12760   0.71613   0.00000  Uiso   1.00
H577   H     0.66206   0.20573   0.78387   0.00000  Uiso   1.00
H578   H     0.51080   0.30208   0.60768   0.00000  Uiso   1.00
N579   N     0.65011   0.15265   0.73783   0.00000  Uiso   1.00
N580   N     0.34989   0.18068   0.76217   0.00000  Uiso   1.00
O581   O     0.46308   0.24619   0.75298   0.00000  Uiso   1.00
O582   O     0.43916   0.06590   0.85237   0.00000  Uiso   1.00
O583   O     0.59876   0.30140   0.91601   0.00000  Uiso   1.00
O584   O     0.40125   0.03194   0.58398   0.00000  Uiso   1.00
O585   O     0.53692   0.08714   0.74701   0.00000  Uiso   1.00
O586   O     0.55946   0.23721   0.74518   0.00000  Uiso   1.00
O587   O     0.44054   0.09613   0.75481   0.00000  Uiso   1.00
O588   O     0.45181   0.17117   0.81997   0.00000  Uiso   1.00
O589   O     0.54819   0.16216   0.68002   0.00000  Uiso   1.00
O590   O     0.54819   0.16219   0.81217   0.00000  Uiso   1.00
O591   O     0.45181   0.17115   0.68782   0.00000  Uiso   1.00
O592   O     0.56078   0.26741   0.64768   0.00000  Uiso   1.00
Zn593  Zn    0.43565   0.17266   0.75521   0.00000  Uiso   1.00
Zn594  Zn    0.56435   0.16067   0.74479   0.00000  Uiso   1.00
C595   C     0.84863   0.26491   0.74912   0.00000  Uiso   1.00
C596   C     0.85220   0.20928   0.90528   0.00000  Uiso   1.00
C597   C     0.83168   0.17001   0.61620   0.00000  Uiso   1.00
C598   C     0.83499   0.16333   0.88380   0.00000  Uiso   1.00
C599   C     0.84731   0.21644   0.59285   0.00000  Uiso   1.00
C600   C     0.81937   0.11690   0.90715   0.00000  Uiso   1.00
C601   C     0.84879   0.21492   0.54575   0.00000  Uiso   1.00
C602   C     0.81789   0.11842   0.95425   0.00000  Uiso   1.00
C603   C     0.83179   0.16767   0.52353   0.00000  Uiso   1.00
C604   C     0.83489   0.16567   0.97647   0.00000  Uiso   1.00
C605   C     0.81202   0.12238   0.54840   0.00000  Uiso   1.00
C606   C     0.81804   0.06842   0.75089   0.00000  Uiso   1.00
C607   C     0.85466   0.21096   0.95160   0.00000  Uiso   1.00
C608   C     0.86970   0.25877   0.52045   0.00000  Uiso   1.00
C609   C     0.79700   0.07456   0.97954   0.00000  Uiso   1.00
C610   C     0.86154   0.26606   0.61741   0.00000  Uiso   1.00
C611   C     0.80515   0.06728   0.88258   0.00000  Uiso   1.00
C612   C     0.90118   0.30450   0.95063   0.00000  Uiso   1.00
C613   C     0.76551   0.02884   0.54936   0.00000  Uiso   1.00
C614   C     0.87407   0.25717   0.97382   0.00000  Uiso   1.00
C615   C     0.79262   0.07616   0.52617   0.00000  Uiso   1.00
C616   C     0.85666   0.31946   0.74840   0.00000  Uiso   1.00
C617   C     0.81000   0.01387   0.75161   0.00000  Uiso   1.00
C618   C     0.83382   0.16537   0.83628   0.00000  Uiso   1.00
C619   C     0.83285   0.16797   0.66372   0.00000  Uiso   1.00
C620   C     0.81447   0.12406   0.59471   0.00000  Uiso   1.00
H621   H     0.80468   0.08948   0.61489   0.00000  Uiso   1.00
H622   H     0.82265   0.03128   0.89226   0.00000  Uiso   1.00
H623   H     0.89648   0.00933   0.96611   0.00000  Uiso   1.00
H624   H     0.77022   0.32401   0.53388   0.00000  Uiso   1.00
H625   H     0.86197   0.24386   0.88511   0.00000  Uiso   1.00
H626   H     0.88526   0.29439   0.53674   0.00000  Uiso   1.00
H627   H     0.78145   0.03894   0.96326   0.00000  Uiso   1.00
H628   H     0.90070   0.00325   0.74512   0.00000  Uiso   1.00
H629   H     0.76597   0.33009   0.75490   0.00000  Uiso   1.00
H630   H     0.67127   0.12760   0.71613   0.00000  Uiso   1.00
H631   H     0.99539   0.20573   0.78387   0.00000  Uiso   1.00
H632   H     0.84413   0.30208   0.60768   0.00000  Uiso   1.00
N633   N     0.98344   0.15265   0.73783   0.00000  Uiso   1.00
N634   N     0.68322   0.18068   0.76217   0.00000  Uiso   1.00
O635   O     0.79642   0.24619   0.75298   0.00000  Uiso   1.00
O636   O     0.77250   0.06590   0.85237   0.00000  Uiso   1.00
O637   O     0.93209   0.30140   0.91601   0.00000  Uiso   1.00
O638   O     0.73458   0.03194   0.58398   0.00000  Uiso   1.00
O639   O     0.87025   0.08714   0.74701   0.00000  Uiso   1.00
O640   O     0.89280   0.23721   0.74518   0.00000  Uiso   1.00
O641   O     0.77387   0.09613   0.75481   0.00000  Uiso   1.00
O642   O     0.78514   0.17117   0.81997   0.00000  Uiso   1.00
O643   O     0.88153   0.16216   0.68002   0.00000  Uiso   1.00
O644   O     0.88152   0.16219   0.81217   0.00000  Uiso   1.00
O645   O     0.78515   0.17115   0.68782   0.00000  Uiso   1.00
O646   O     0.89411   0.26741   0.64768   0.00000  Uiso   1.00
Zn647  Zn    0.76898   0.17266   0.75521   0.00000  Uiso   1.00
Zn648  Zn    0.89769   0.16067   0.74479   0.00000  Uiso   1.00
C649   C     0.18196   0.59825   0.74912   0.00000  Uiso   1.00
C650   C     0.18553   0.54261   0.90528   0.00000  Uiso   1.00
C651   C     0.16502   0.50334   0.61620   0.00000  Uiso   1.00
C652   C     0.16832   0.49666   0.88380   0.00000  Uiso   1.00
C653   C     0.18065   0.54977   0.59285   0.00000  Uiso   1.00
C654   C     0.15270   0.45023   0.90715   0.00000  Uiso   1.00
C655   C     0.18213   0.54825   0.54575   0.00000  Uiso   1.00
C656   C     0.15123   0.45175   0.95425   0.00000  Uiso   1.00
C657   C     0.16513   0.50100   0.52353   0.00000  Uiso   1.00
C658   C     0.16822   0.49900   0.97647   0.00000  Uiso   1.00
C659   C     0.14535   0.45572   0.54840   0.00000  Uiso   1.00
C660   C     0.15137   0.40175   0.75089   0.00000  Uiso   1.00
C661   C     0.18800   0.54429   0.95160   0.00000  Uiso   1.00
C662   C     0.20304   0.59211   0.52045   0.00000  Uiso   1.00
C663   C     0.13033   0.40789   0.97954   0.00000  Uiso   1.00
C664   C     0.19488   0.59939   0.61741   0.00000  Uiso   1.00
C665   C     0.13848   0.40061   0.88258   0.00000  Uiso   1.00
C666   C     0.23451   0.63783   0.95063   0.00000  Uiso   1.00
C667   C     0.09884   0.36217   0.54936   0.00000  Uiso   1.00
C668   C     0.20740   0.59051   0.97382   0.00000  Uiso   1.00
C669   C     0.12595   0.40950   0.52617   0.00000  Uiso   1.00
C670   C     0.19000   0.65279   0.74840   0.00000  Uiso   1.00
C671   C     0.14334   0.34721   0.75161   0.00000  Uiso   1.00
C672   C     0.16715   0.49870   0.83628   0.00000  Uiso   1.00
C673   C     0.16618   0.50130   0.66372   0.00000  Uiso   1.00
C674   C     0.14780   0.45740   0.59471   0.00000  Uiso   1.00
H675   H     0.13802   0.42282   0.61489   0.00000  Uiso   1.00
H676   H     0.15599   0.36462   0.89226   0.00000  Uiso   1.00
H677   H     0.22981   0.34266   0.96611   0.00000  Uiso   1.00
H678   H     0.10355   0.65734   0.53388   0.00000  Uiso   1.00
H679   H     0.19531   0.57719   0.88511   0.00000  Uiso   1.00
H680   H     0.21859   0.62772   0.53674   0.00000  Uiso   1.00
H681   H     0.11478   0.37228   0.96326   0.00000  Uiso   1.00
H682   H     0.23403   0.33658   0.74512   0.00000  Uiso   1.00
H683   H     0.09930   0.66342   0.75490   0.00000  Uiso   1.00
H684   H     0.00460   0.46094   0.71613   0.00000  Uiso   1.00
H685   H     0.32873   0.53906   0.78387   0.00000  Uiso   1.00
H686   H     0.17747   0.63541   0.60768   0.00000  Uiso   1.00
N687   N     0.31678   0.48598   0.73783   0.00000  Uiso   1.00
N688   N     0.01656   0.51402   0.76217   0.00000  Uiso   1.00
O689   O     0.12975   0.57952   0.75298   0.00000  Uiso   1.00
O690   O     0.10583   0.39923   0.85237   0.00000  Uiso   1.00
O691   O     0.26543   0.63473   0.91601   0.00000  Uiso   1.00
O692   O     0.06791   0.36527   0.58398   0.00000  Uiso   1.00
O693   O     0.20358   0.42048   0.74701   0.00000  Uiso   1.00
O694   O     0.22613   0.57054   0.74518   0.00000  Uiso   1.00
O695   O     0.10720   0.42946   0.75481   0.00000  Uiso   1.00
O696   O     0.11847   0.50450   0.81997   0.00000  Uiso   1.00
O697   O     0.21486   0.49550   0.68002   0.00000  Uiso   1.00
O698   O     0.21485   0.49552   0.81217   0.00000  Uiso   1.00
O699   O     0.11848   0.50448   0.68782   0.00000  Uiso   1.00
O700   O     0.22745   0.60075   0.64768   0.00000  Uiso   1.00
Zn701  Zn    0.10231   0.50600   0.75521   0.00000  Uiso   1.00
Zn702  Zn    0.23102   0.49400   0.74479   0.00000  Uiso   1.00
C703   C     0.51529   0.59825   0.74912   0.00000  Uiso   1.00
C704   C     0.51886   0.54261   0.90528   0.00000  Uiso   1.00
C705   C     0.49835   0.50334   0.61620   0.00000  Uiso   1.00
C706   C     0.50165   0.49666   0.88380   0.00000  Uiso   1.00
C707   C     0.51398   0.54977   0.59285   0.00000  Uiso   1.00
C708   C     0.48604   0.45023   0.90715   0.00000  Uiso   1.00
C709   C     0.51546   0.54825   0.54575   0.00000  Uiso   1.00
C710   C     0.48456   0.45175   0.95425   0.00000  Uiso   1.00
C711   C     0.49846   0.50100   0.52353   0.00000  Uiso   1.00
C712   C     0.50156   0.49900   0.97647   0.00000  Uiso   1.00
C713   C     0.47868   0.45572   0.54840   0.00000  Uiso   1.00
C714   C     0.48471   0.40175   0.75089   0.00000  Uiso   1.00
C715   C     0.52133   0.54429   0.95160   0.00000  Uiso   1.00
C716   C     0.53637   0.59211   0.52045   0.00000  Uiso   1.00
C717   C     0.46366   0.40789   0.97954   0.00000  Uiso   1.00
C718   C     0.52821   0.59939   0.61741   0.00000  Uiso   1.00
C719   C     0.47182   0.40061   0.88258   0.00000  Uiso   1.00
C720   C     0.56784   0.63783   0.95063   0.00000  Uiso   1.00
C721   C     0.43218   0.36217   0.54936   0.00000  Uiso   1.00
C722   C     0.54073   0.59051   0.97382   0.00000  Uiso   1.00
C723   C     0.45929   0.40950   0.52617   0.00000  Uiso   1.00
C724   C     0.52333   0.65279   0.74840   0.00000  Uiso   1.00
C725   C     0.47667   0.34721   0.75161   0.00000  Uiso   1.00
C726   C     0.50048   0.49870   0.83628   0.00000  Uiso   1.00
C727   C     0.49952   0.50130   0.66372   0.00000  Uiso   1.00
C728   C     0.48114   0.45740   0.59471   0.00000  Uiso   1.00
H729   H     0.47135   0.42282   0.61489   0.00000  Uiso   1.00
H730   H     0.48932   0.36462   0.89226   0.00000  Uiso   1.00
H731   H     0.56314   0.34266   0.96611   0.00000  Uiso   1.00
H732   H     0.43689   0.65734   0.53388   0.00000  Uiso   1.00
H733   H     0.52864   0.57719   0.88511   0.00000  Uiso   1.00
H734   H     0.55193   0.62772   0.53674   0.00000  Uiso   1.00
H735   H     0.44812   0.37228   0.96326   0.00000  Uiso   1.00
H736   H     0.56736   0.33658   0.74512   0.00000  Uiso   1.00
H737   H     0.43264   0.66342   0.75490   0.00000  Uiso   1.00
H738   H     0.33794   0.46094   0.71613   0.00000  Uiso   1.00
H739   H     0.66206   0.53906   0.78387   0.00000  Uiso   1.00
H740   H     0.51080   0.63541   0.60768   0.00000  Uiso   1.00
N741   N     0.65011   0.48598   0.73783   0.00000  Uiso   1.00
N742   N     0.34989   0.51402   0.76217   0.00000  Uiso   1.00
O743   O     0.46308   0.57952   0.75298   0.00000  Uiso   1.00
O744   O     0.43916   0.39923   0.85237   0.00000  Uiso   1.00
O745   O     0.59876   0.63473   0.91601   0.00000  Uiso   1.00
O746   O     0.40125   0.36527   0.58398   0.00000  Uiso   1.00
O747   O     0.53692   0.42048   0.74701   0.00000  Uiso   1.00
O748   O     0.55946   0.57054   0.74518   0.00000  Uiso   1.00
O749   O     0.44054   0.42946   0.75481   0.00000  Uiso   1.00
O750   O     0.45181   0.50450   0.81997   0.00000  Uiso   1.00
O751   O     0.54819   0.49550   0.68002   0.00000  Uiso   1.00
O752   O     0.54819   0.49552   0.81217   0.00000  Uiso   1.00
O753   O     0.45181   0.50448   0.68782   0.00000  Uiso   1.00
O754   O     0.56078   0.60075   0.64768   0.00000  Uiso   1.00
Zn755  Zn    0.43565   0.50600   0.75521   0.00000  Uiso   1.00
Zn756  Zn    0.56435   0.49400   0.74479   0.00000  Uiso   1.00
C757   C     0.84863   0.59825   0.74912   0.00000  Uiso   1.00
C758   C     0.85220   0.54261   0.90528   0.00000  Uiso   1.00
C759   C     0.83168   0.50334   0.61620   0.00000  Uiso   1.00
C760   C     0.83499   0.49666   0.88380   0.00000  Uiso   1.00
C761   C     0.84731   0.54977   0.59285   0.00000  Uiso   1.00
C762   C     0.81937   0.45023   0.90715   0.00000  Uiso   1.00
C763   C     0.84879   0.54825   0.54575   0.00000  Uiso   1.00
C764   C     0.81789   0.45175   0.95425   0.00000  Uiso   1.00
C765   C     0.83179   0.50100   0.52353   0.00000  Uiso   1.00
C766   C     0.83489   0.49900   0.97647   0.00000  Uiso   1.00
C767   C     0.81202   0.45572   0.54840   0.00000  Uiso   1.00
C768   C     0.81804   0.40175   0.75089   0.00000  Uiso   1.00
C769   C     0.85466   0.54429   0.95160   0.00000  Uiso   1.00
C770   C     0.86970   0.59211   0.52045   0.00000  Uiso   1.00
C771   C     0.79700   0.40789   0.97954   0.00000  Uiso   1.00
C772   C     0.86154   0.59939   0.61741   0.00000  Uiso   1.00
C773   C     0.80515   0.40061   0.88258   0.00000  Uiso   1.00
C774   C     0.90118   0.63783   0.95063   0.00000  Uiso   1.00
C775   C     0.76551   0.36217   0.54936   0.00000  Uiso   1.00
C776   C     0.87407   0.59051   0.97382   0.00000  Uiso   1.00
C777   C     0.79262   0.40950   0.52617   0.00000  Uiso   1.00
C778   C     0.85666   0.65279   0.74840   0.00000  Uiso   1.00
C779   C     0.81000   0.34721   0.75161   0.00000  Uiso   1.00
C780   C     0.83382   0.49870   0.83628   0.00000  Uiso   1.00
C781   C     0.83285   0.50130   0.66372   0.00000  Uiso   1.00
C782   C     0.81447   0.45740   0.59471   0.00000  Uiso   1.00
H783   H     0.80468   0.42282   0.61489   0.00000  Uiso   1.00
H784   H     0.82265   0.36462   0.89226   0.00000  Uiso   1.00
H785   H     0.89648   0.34266   0.96611   0.00000  Uiso   1.00
H786   H     0.77022   0.65734   0.53388   0.00000  Uiso   1.00
H787   H     0.86197   0.57719   0.88511   0.00000  Uiso   1.00
H788   H     0.88526   0.62772   0.53674   0.00000  Uiso   1.00
H789   H     0.78145   0.37228   0.96326   0.00000  Uiso   1.00
H790   H     0.90070   0.33658   0.74512   0.00000  Uiso   1.00
H791   H     0.76597   0.66342   0.75490   0.00000  Uiso   1.00
H792   H     0.67127   0.46094   0.71613   0.00000  Uiso   1.00
H793   H     0.99539   0.53906   0.78387   0.00000  Uiso   1.00
H794   H     0.84413   0.63541   0.60768   0.00000  Uiso   1.00
N795   N     0.98344   0.48598   0.73783   0.00000  Uiso   1.00
N796   N     0.68322   0.51402   0.76217   0.00000  Uiso   1.00
O797   O     0.79642   0.57952   0.75298   0.00000  Uiso   1.00
O798   O     0.77250   0.39923   0.85237   0.00000  Uiso   1.00
O799   O     0.93209   0.63473   0.91601   0.00000  Uiso   1.00
O800   O     0.73458   0.36527   0.58398   0.00000  Uiso   1.00
O801   O     0.87025   0.42048   0.74701   0.00000  Uiso   1.00
O802   O     0.89280   0.57054   0.74518   0.00000  Uiso   1.00
O803   O     0.77387   0.42946   0.75481   0.00000  Uiso   1.00
O804   O     0.78514   0.50450   0.81997   0.00000  Uiso   1.00
O805   O     0.88153   0.49550   0.68002   0.00000  Uiso   1.00
O806   O     0.88152   0.49552   0.81217   0.00000  Uiso   1.00
O807   O     0.78515   0.50448   0.68782   0.00000  Uiso   1.00
O808   O     0.89411   0.60075   0.64768   0.00000  Uiso   1.00
Zn809  Zn    0.76898   0.50600   0.75521   0.00000  Uiso   1.00
Zn810  Zn    0.89769   0.49400   0.74479   0.00000  Uiso   1.00
C811   C     0.18196   0.93158   0.74912   0.00000  Uiso   1.00
C812   C     0.18553   0.87594   0.90528   0.00000  Uiso   1.00
C813   C     0.16502   0.83668   0.61620   0.00000  Uiso   1.00
C814   C     0.16832   0.83000   0.88380   0.00000  Uiso   1.00
C815   C     0.18065   0.88311   0.59285   0.00000  Uiso   1.00
C816   C     0.15270   0.78357   0.90715   0.00000  Uiso   1.00
C817   C     0.18213   0.88158   0.54575   0.00000  Uiso   1.00
C818   C     0.15123   0.78509   0.95425   0.00000  Uiso   1.00
C819   C     0.16513   0.83433   0.52353   0.00000  Uiso   1.00
C820   C     0.16822   0.83234   0.97647   0.00000  Uiso   1.00
C821   C     0.14535   0.78905   0.54840   0.00000  Uiso   1.00
C822   C     0.15137   0.73509   0.75089   0.00000  Uiso   1.00
C823   C     0.18800   0.87762   0.95160   0.00000  Uiso   1.00
C824   C     0.20304   0.92544   0.52045   0.00000  Uiso   1.00
C825   C     0.13033   0.74123   0.97954   0.00000  Uiso   1.00
C826   C     0.19488   0.93273   0.61741   0.00000  Uiso   1.00
C827   C     0.13848   0.73394   0.88258   0.00000  Uiso   1.00
C828   C     0.23451   0.97117   0.95063   0.00000  Uiso   1.00
C829   C     0.09884   0.69550   0.54936   0.00000  Uiso   1.00
C830   C     0.20740   0.92384   0.97382   0.00000  Uiso   1.00
C831   C     0.12595   0.74283   0.52617   0.00000  Uiso   1.00
C832   C     0.19000   0.98613   0.74840   0.00000  Uiso   1.00
C833   C     0.14334   0.68054   0.75161   0.00000  Uiso   1.00
C834   C     0.16715   0.83204   0.83628   0.00000  Uiso   1.00
C835   C     0.16618   0.83464   0.66372   0.00000  Uiso   1.00
C836   C     0.14780   0.79073   0.59471   0.00000  Uiso   1.00
H837   H     0.13802   0.75615   0.61489   0.00000  Uiso   1.00
H838   H     0.15599   0.69795   0.89226   0.00000  Uiso   1.00
H839   H     0.22981   0.67600   0.96611   0.00000  Uiso   1.00
H840   H     0.10355   0.99067   0.53388   0.00000  Uiso   1.00
H841   H     0.19531   0.91053   0.88511   0.00000  Uiso   1.00
H842   H     0.21859   0.96106   0.53674   0.00000  Uiso   1.00
H843   H     0.11478   0.70561   0.96326   0.00000  Uiso   1.00
H844   H     0.23403   0.66991   0.74512   0.00000  Uiso   1.00
H845   H     0.09930   0.99675   0.75490   0.00000  Uiso   1.00
H846   H     0.00460   0.79427   0.71613   0.00000  Uiso   1.00
H847   H     0.32873   0.87240   0.78387   0.00000  Uiso   1.00
H848   H     0.17747   0.96875   0.60768   0.00000  Uiso   1.00
N849   N     0.31678   0.81932   0.73783   0.00000  Uiso   1.00
N850   N     0.01656   0.84735   0.76217   0.00000  Uiso   1.00
O851   O     0.12975   0.91286   0.75298   0.00000  Uiso   1.00
O852   O     0.10583   0.73256   0.85237   0.00000  Uiso   1.00
O853   O     0.26543   0.96806   0.91601   0.00000  Uiso   1.00
O854   O     0.06791   0.69861   0.58398   0.00000  Uiso   1.00
O855   O     0.20358   0.75381   0.74701   0.00000  Uiso   1.00
O856   O     0.22613   0.90387   0.74518   0.00000  Uiso   1.00
O857   O     0.10720   0.76279   0.75481   0.00000  Uiso   1.00
O858   O     0.11847   0.83784   0.81997   0.00000  Uiso   1.00
O859   O     0.21486   0.82883   0.68002   0.00000  Uiso   1.00
O860   O     0.21485   0.82885   0.81217   0.00000  Uiso   1.00
O861   O     0.11848   0.83781   0.68782   0.00000  Uiso   1.00
O862   O     0.22745   0.93408   0.64768   0.00000  Uiso   1.00
Zn863  Zn    0.10231   0.83933   0.75521   0.00000  Uiso   1.00
Zn864  Zn    0.23102   0.82734   0.74479   0.00000  Uiso   1.00
C865   C     0.51529   0.93158   0.74912   0.00000  Uiso   1.00
C866   C     0.51886   0.87594   0.90528   0.00000  Uiso   1.00
C867   C     0.49835   0.83668   0.61620   0.00000  Uiso   1.00
C868   C     0.50165   0.83000   0.88380   0.00000  Uiso   1.00
C869   C     0.51398   0.88311   0.59285   0.00000  Uiso   1.00
C870   C     0.48604   0.78357   0.90715   0.00000  Uiso   1.00
C871   C     0.51546   0.88158   0.54575   0.00000  Uiso   1.00
C872   C     0.48456   0.78509   0.95425   0.00000  Uiso   1.00
C873   C     0.49846   0.83433   0.52353   0.00000  Uiso   1.00
C874   C     0.50156   0.83234   0.97647   0.00000  Uiso   1.00
C875   C     0.47868   0.78905   0.54840   0.00000  Uiso   1.00
C876   C     0.48471   0.73509   0.75089   0.00000  Uiso   1.00
C877   C     0.52133   0.87762   0.95160   0.00000  Uiso   1.00
C878   C     0.53637   0.92544   0.52045   0.00000  Uiso   1.00
C879   C     0.46366   0.74123   0.97954   0.00000  Uiso   1.00
C880   C     0.52821   0.93273   0.61741   0.00000  Uiso   1.00
C881   C     0.47182   0.73394   0.88258   0.00000  Uiso   1.00
C882   C     0.56784   0.97117   0.95063   0.00000  Uiso   1.00
C883   C     0.43218   0.69550   0.54936   0.00000  Uiso   1.00
C884   C     0.54073   0.92384   0.97382   0.00000  Uiso   1.00
C885   C     0.45929   0.74283   0.52617   0.00000  Uiso   1.00
C886   C     0.52333   0.98613   0.74840   0.00000  Uiso   1.00
C887   C     0.47667   0.68054   0.75161   0.00000  Uiso   1.00
C888   C     0.50048   0.83204   0.83628   0.00000  Uiso   1.00
C889   C     0.49952   0.83464   0.66372   0.00000  Uiso   1.00
C890   C     0.48114   0.79073   0.59471   0.00000  Uiso   1.00
H891   H     0.47135   0.75615   0.61489   0.00000  Uiso   1.00
H892   H     0.48932   0.69795   0.89226   0.00000  Uiso   1.00
H893   H     0.56314   0.67600   0.96611   0.00000  Uiso   1.00
H894   H     0.43689   0.99067   0.53388   0.00000  Uiso   1.00
H895   H     0.52864   0.91053   0.88511   0.00000  Uiso   1.00
H896   H     0.55193   0.96106   0.53674   0.00000  Uiso   1.00
H897   H     0.44812   0.70561   0.96326   0.00000  Uiso   1.00
H898   H     0.56736   0.66991   0.74512   0.00000  Uiso   1.00
H899   H     0.43264   0.99675   0.75490   0.00000  Uiso   1.00
H900   H     0.33794   0.79427   0.71613   0.00000  Uiso   1.00
H901   H     0.66206   0.87240   0.78387   0.00000  Uiso   1.00
H902   H     0.51080   0.96875   0.60768   0.00000  Uiso   1.00
N903   N     0.65011   0.81932   0.73783   0.00000  Uiso   1.00
N904   N     0.34989   0.84735   0.76217   0.00000  Uiso   1.00
O905   O     0.46308   0.91286   0.75298   0.00000  Uiso   1.00
O906   O     0.43916   0.73256   0.85237   0.00000  Uiso   1.00
O907   O     0.59876   0.96806   0.91601   0.00000  Uiso   1.00
O908   O     0.40125   0.69861   0.58398   0.00000  Uiso   1.00
O909   O     0.53692   0.75381   0.74701   0.00000  Uiso   1.00
O910   O     0.55946   0.90387   0.74518   0.00000  Uiso   1.00
O911   O     0.44054   0.76279   0.75481   0.00000  Uiso   1.00
O912   O     0.45181   0.83784   0.81997   0.00000  Uiso   1.00
O913   O     0.54819   0.82883   0.68002   0.00000  Uiso   1.00
O914   O     0.54819   0.82885   0.81217   0.00000  Uiso   1.00
O915   O     0.45181   0.83781   0.68782   0.00000  Uiso   1.00
O916   O     0.56078   0.93408   0.64768   0.00000  Uiso   1.00
Zn917  Zn    0.43565   0.83933   0.75521   0.00000  Uiso   1.00
Zn918  Zn    0.56435   0.82734   0.74479   0.00000  Uiso   1.00
C919   C     0.84863   0.93158   0.74912   0.00000  Uiso   1.00
C920   C     0.85220   0.87594   0.90528   0.00000  Uiso   1.00
C921   C     0.83168   0.83668   0.61620   0.00000  Uiso   1.00
C922   C     0.83499   0.83000   0.88380   0.00000  Uiso   1.00
C923   C     0.84731   0.88311   0.59285   0.00000  Uiso   1.00
C924   C     0.81937   0.78357   0.90715   0.00000  Uiso   1.00
C925   C     0.84879   0.88158   0.54575   0.00000  Uiso   1.00
C926   C     0.81789   0.78509   0.95425   0.00000  Uiso   1.00
C927   C     0.83179   0.83433   0.52353   0.00000  Uiso   1.00
C928   C     0.83489   0.83234   0.97647   0.00000  Uiso   1.00
C929   C     0.81202   0.78905   0.54840   0.00000  Uiso   1.00
C930   C     0.81804   0.73509   0.75089   0.00000  Uiso   1.00
C931   C     0.85466   0.87762   0.95160   0.00000  Uiso   1.00
C932   C     0.86970   0.92544   0.52045   0.00000  Uiso   1.00
C933   C     0.79700   0.74123   0.97954   0.00000  Uiso   1.00
C934   C     0.86154   0.93273   0.61741   0.00000  Uiso   1.00
C935   C     0.80515   0.73394   0.88258   0.00000  Uiso   1.00
C936   C     0.90118   0.97117   0.95063   0.00000  Uiso   1.00
C937   C     0.76551   0.69550   0.54936   0.00000  Uiso   1.00
C938   C     0.87407   0.92384   0.97382   0.00000  Uiso   1.00
C939   C     0.79262   0.74283   0.52617   0.00000  Uiso   1.00
C940   C     0.85666   0.98613   0.74840   0.00000  Uiso   1.00
C941   C     0.81000   0.68054   0.75161   0.00000  Uiso   1.00
C942   C     0.83382   0.83204   0.83628   0.00000  Uiso   1.00
C943   C     0.83285   0.83464   0.66372   0.00000  Uiso   1.00
C944   C     0.81447   0.79073   0.59471   0.00000  Uiso   1.00
H945   H     0.80468   0.75615   0.61489   0.00000  Uiso   1.00
H946   H     0.82265   0.69795   0.89226   0.00000  Uiso   1.00
H947   H     0.89648   0.67600   0.96611   0.00000  Uiso   1.00
H948   H     0.77022   0.99067   0.53388   0.00000  Uiso   1.00
H949   H     0.86197   0.91053   0.88511   0.00000  Uiso   1.00
H950   H     0.88526   0.96106   0.53674   0.00000  Uiso   1.00
H951   H     0.78145   0.70561   0.96326   0.00000  Uiso   1.00
H952   H     0.90070   0.66991   0.74512   0.00000  Uiso   1.00
H953   H     0.76597   0.99675   0.75490   0.00000  Uiso   1.00
H954   H     0.67127   0.79427   0.71613   0.00000  Uiso   1.00
H955   H     0.99539   0.87240   0.78387   0.00000  Uiso   1.00
H956   H     0.84413   0.96875   0.60768   0.00000  Uiso   1.00
N957   N     0.98344   0.81932   0.73783   0.00000  Uiso   1.00
N958   N     0.68322   0.84735   0.76217   0.00000  Uiso   1.00
O959   O     0.79642   0.91286   0.75298   0.00000  Uiso   1.00
O960   O     0.77250   0.73256   0.85237   0.00000  Uiso   1.00
O961   O     0.93209   0.96806   0.91601   0.00000  Uiso   1.00
O962   O     0.73458   0.69861   0.58398   0.00000  Uiso   1.00
O963   O     0.87025   0.75381   0.74701   0.00000  Uiso   1.00
O964   O     0.89280   0.90387   0.74518   0.00000  Uiso   1.00
O965   O     0.77387   0.76279   0.75481   0.00000  Uiso   1.00
O966   O     0.78514   0.83784   0.81997   0.00000  Uiso   1.00
O967   O     0.88153   0.82883   0.68002   0.00000  Uiso   1.00
O968   O     0.88152   0.82885   0.81217   0.00000  Uiso   1.00
O969   O     0.78515   0.83781   0.68782   0.00000  Uiso   1.00
O970   O     0.89411   0.93408   0.64768   0.00000  Uiso   1.00
Zn971  Zn    0.76898   0.83933   0.75521   0.00000  Uiso   1.00
Zn972  Zn    0.89769   0.82734   0.74479   0.00000  Uiso   1.00
loop_
_geom_bond_atom_site_label_1
_geom_bond_atom_site_label_2
_geom_bond_distance
_geom_bond_site_symmetry_2
_ccdc_geom_bond_type
C1     C22     1.400   .     S
C1     O41     1.277   .     A
C1     O46     1.287   .     A
C2     C4      1.384   .     A
C2     C13     1.387   .     A
C2     H31     1.082   .     S
C3     C26     1.384   .     A
C3     C5      1.402   .     A
C3     C25     1.422   .     S
C4     C24     1.422   .     S
C4     C6      1.402   .     A
C5     C7      1.403   .     A
C5     C16     1.490   .     S
C6     C17     1.490   .     S
C6     C8      1.403   .     A
C7     C14     1.404   .     A
C7     C9      1.421   .     A
C8     C15     1.404   .     A
C8     C10     1.421   .     A
C9     C11     1.420   .     A
C9     C496    1.401   1_554 S
C10    C13     1.420   .     A
C10    C495    1.401   .     S
C11    C26     1.387   .     A
C11    C21     1.415   .     A
C12    C23     1.400   .     S
C12    O47     1.287   .     A
C12    O45     1.277   .     A
C13    C20     1.415   .     A
C14    H32     1.082   .     S
C14    C506    1.388   1_554 S
C15    H33     1.082   .     S
C15    C507    1.388   .     S
C16    O52     1.220   .     D
C16    H38     1.085   .     S
C17    O42     1.220   .     D
C17    H28     1.085   .     S
C18    O43     1.221   .     D
C18    C20     1.487   .     S
C18    H191    1.086   .     S
C19    C21     1.487   .     S
C19    O44     1.221   .     D
C19    H354    1.086   1_545 S
C20    C500    1.388   .     S
C21    C501    1.388   1_554 S
C22    C185    1.336   .     S
C22    H196    1.088   .     S
C23    C346    1.336   1_545 S
C23    H359    1.088   1_545 S
C24    O50     1.286   .     A
C24    O48     1.285   .     A
C25    O51     1.286   .     A
C25    O49     1.285   .     A
C26    H27     1.082   .     S
H29    C342    1.086   1_545 S
H30    C181    1.086   .     S
H34    C346    1.088   1_545 S
H35    C185    1.088   .     S
H36    N147    1.029   1_455 S
H37    N94     1.029   .     S
N39    Zn54    2.019   .     S
N39    H90     1.029   .     S
N39    N94     1.278   .     S
N40    Zn53    2.019   .     S
N40    N147    1.278   1_455 S
N40    H145    1.029   1_455 S
O41    Zn53    1.952   .     S
O45    Zn54    1.952   .     S
O46    Zn54    1.974   .     S
O47    Zn53    1.974   .     S
O48    Zn53    1.997   .     S
O49    Zn54    1.997   .     S
O50    Zn54    2.019   .     S
O51    Zn53    2.019   .     S
C55    C76     1.400   .     S
C55    O95     1.277   .     A
C55    O100    1.287   .     A
C56    C58     1.384   .     A
C56    C67     1.387   .     A
C56    H85     1.082   .     S
C57    C80     1.384   .     A
C57    C59     1.402   .     A
C57    C79     1.422   .     S
C58    C78     1.422   .     S
C58    C60     1.402   .     A
C59    C61     1.403   .     A
C59    C70     1.490   .     S
C60    C71     1.490   .     S
C60    C62     1.403   .     A
C61    C68     1.404   .     A
C61    C63     1.421   .     A
C62    C69     1.404   .     A
C62    C64     1.421   .     A
C63    C65     1.420   .     A
C63    C550    1.401   1_554 S
C64    C67     1.420   .     A
C64    C549    1.401   .     S
C65    C80     1.387   .     A
C65    C75     1.415   .     A
C66    C77     1.400   .     S
C66    O101    1.287   .     A
C66    O99     1.277   .     A
C67    C74     1.415   .     A
C68    H86     1.082   .     S
C68    C560    1.388   1_554 S
C69    H87     1.082   .     S
C69    C561    1.388   .     S
C70    O106    1.220   .     D
C70    H92     1.085   .     S
C71    O96     1.220   .     D
C71    H82     1.085   .     S
C72    O97     1.221   .     D
C72    C74     1.487   .     S
C72    H245    1.086   .     S
C73    C75     1.487   .     S
C73    O98     1.221   .     D
C73    H408    1.086   1_545 S
C74    C554    1.388   .     S
C75    C555    1.388   1_554 S
C76    C239    1.336   .     S
C76    H250    1.088   .     S
C77    C400    1.336   1_545 S
C77    H413    1.088   1_545 S
C78    O104    1.286   .     A
C78    O102    1.285   .     A
C79    O105    1.286   .     A
C79    O103    1.285   .     A
C80    H81     1.082   .     S
H83    C396    1.086   1_545 S
H84    C235    1.086   .     S
H88    C400    1.088   1_545 S
H89    C239    1.088   .     S
H91    N148    1.029   .     S
N93    Zn108   2.019   .     S
N93    H144    1.029   .     S
N93    N148    1.278   .     S
N94    Zn107   2.019   .     S
O95    Zn107   1.952   .     S
O99    Zn108   1.952   .     S
O100   Zn108   1.974   .     S
O101   Zn107   1.974   .     S
O102   Zn107   1.997   .     S
O103   Zn108   1.997   .     S
O104   Zn108   2.019   .     S
O105   Zn107   2.019   .     S
C109   C130    1.400   .     S
C109   O149    1.277   .     A
C109   O154    1.287   .     A
C110   C112    1.384   .     A
C110   C121    1.387   .     A
C110   H139    1.082   .     S
C111   C134    1.384   .     A
C111   C113    1.402   .     A
C111   C133    1.422   .     S
C112   C132    1.422   .     S
C112   C114    1.402   .     A
C113   C115    1.403   .     A
C113   C124    1.490   .     S
C114   C125    1.490   .     S
C114   C116    1.403   .     A
C115   C122    1.404   .     A
C115   C117    1.421   .     A
C116   C123    1.404   .     A
C116   C118    1.421   .     A
C117   C119    1.420   .     A
C117   C604    1.401   1_554 S
C118   C121    1.420   .     A
C118   C603    1.401   .     S
C119   C134    1.387   .     A
C119   C129    1.415   .     A
C120   C131    1.400   .     S
C120   O155    1.287   .     A
C120   O153    1.277   .     A
C121   C128    1.415   .     A
C122   H140    1.082   .     S
C122   C614    1.388   1_554 S
C123   H141    1.082   .     S
C123   C615    1.388   .     S
C124   O160    1.220   .     D
C124   H146    1.085   .     S
C125   O150    1.220   .     D
C125   H136    1.085   .     S
C126   O151    1.221   .     D
C126   C128    1.487   .     S
C126   H299    1.086   .     S
C127   C129    1.487   .     S
C127   O152    1.221   .     D
C127   H462    1.086   1_545 S
C128   C608    1.388   .     S
C129   C609    1.388   1_554 S
C130   C293    1.336   .     S
C130   H304    1.088   .     S
C131   C454    1.336   1_545 S
C131   H467    1.088   1_545 S
C132   O158    1.286   .     A
C132   O156    1.285   .     A
C133   O159    1.286   .     A
C133   O157    1.285   .     A
C134   H135    1.082   .     S
H137   C450    1.086   1_545 S
H138   C289    1.086   .     S
H142   C454    1.088   1_545 S
H143   C293    1.088   .     S
H145   N40     1.029   1_655 S
N147   Zn162   2.019   .     S
N147   H36     1.029   1_655 S
N147   N40     1.278   1_655 S
N148   Zn161   2.019   .     S
O149   Zn161   1.952   .     S
O153   Zn162   1.952   .     S
O154   Zn162   1.974   .     S
O155   Zn161   1.974   .     S
O156   Zn161   1.997   .     S
O157   Zn162   1.997   .     S
O158   Zn162   2.019   .     S
O159   Zn161   2.019   .     S
C163   C184    1.400   .     S
C163   O203    1.277   .     A
C163   O208    1.287   .     A
C164   C166    1.384   .     A
C164   C175    1.387   .     A
C164   H193    1.082   .     S
C165   C188    1.384   .     A
C165   C167    1.402   .     A
C165   C187    1.422   .     S
C166   C186    1.422   .     S
C166   C168    1.402   .     A
C167   C169    1.403   .     A
C167   C178    1.490   .     S
C168   C179    1.490   .     S
C168   C170    1.403   .     A
C169   C176    1.404   .     A
C169   C171    1.421   .     A
C170   C177    1.404   .     A
C170   C172    1.421   .     A
C171   C173    1.420   .     A
C171   C658    1.401   1_554 S
C172   C175    1.420   .     A
C172   C657    1.401   .     S
C173   C188    1.387   .     A
C173   C183    1.415   .     A
C174   C185    1.400   .     S
C174   O209    1.287   .     A
C174   O207    1.277   .     A
C175   C182    1.415   .     A
C176   H194    1.082   .     S
C176   C668    1.388   1_554 S
C177   H195    1.082   .     S
C177   C669    1.388   .     S
C178   O214    1.220   .     D
C178   H200    1.085   .     S
C179   O204    1.220   .     D
C179   H190    1.085   .     S
C180   O205    1.221   .     D
C180   C182    1.487   .     S
C180   H353    1.086   .     S
C181   C183    1.487   .     S
C181   O206    1.221   .     D
C182   C662    1.388   .     S
C183   C663    1.388   1_554 S
C184   C347    1.336   .     S
C184   H358    1.088   .     S
C186   O212    1.286   .     A
C186   O210    1.285   .     A
C187   O213    1.286   .     A
C187   O211    1.285   .     A
C188   H189    1.082   .     S
H192   C343    1.086   .     S
H197   C347    1.088   .     S
H198   N309    1.029   1_455 S
H199   N256    1.029   .     S
N201   Zn216   2.019   .     S
N201   H252    1.029   .     S
N201   N256    1.278   .     S
N202   Zn215   2.019   .     S
N202   N309    1.278   1_455 S
N202   H307    1.029   1_455 S
O203   Zn215   1.952   .     S
O207   Zn216   1.952   .     S
O208   Zn216   1.974   .     S
O209   Zn215   1.974   .     S
O210   Zn215   1.997   .     S
O211   Zn216   1.997   .     S
O212   Zn216   2.019   .     S
O213   Zn215   2.019   .     S
C217   C238    1.400   .     S
C217   O257    1.277   .     A
C217   O262    1.287   .     A
C218   C220    1.384   .     A
C218   C229    1.387   .     A
C218   H247    1.082   .     S
C219   C242    1.384   .     A
C219   C221    1.402   .     A
C219   C241    1.422   .     S
C220   C240    1.422   .     S
C220   C222    1.402   .     A
C221   C223    1.403   .     A
C221   C232    1.490   .     S
C222   C233    1.490   .     S
C222   C224    1.403   .     A
C223   C230    1.404   .     A
C223   C225    1.421   .     A
C224   C231    1.404   .     A
C224   C226    1.421   .     A
C225   C227    1.420   .     A
C225   C712    1.401   1_554 S
C226   C229    1.420   .     A
C226   C711    1.401   .     S
C227   C242    1.387   .     A
C227   C237    1.415   .     A
C228   C239    1.400   .     S
C228   O263    1.287   .     A
C228   O261    1.277   .     A
C229   C236    1.415   .     A
C230   H248    1.082   .     S
C230   C722    1.388   1_554 S
C231   H249    1.082   .     S
C231   C723    1.388   .     S
C232   O268    1.220   .     D
C232   H254    1.085   .     S
C233   O258    1.220   .     D
C233   H244    1.085   .     S
C234   O259    1.221   .     D
C234   C236    1.487   .     S
C234   H407    1.086   .     S
C235   C237    1.487   .     S
C235   O260    1.221   .     D
C236   C716    1.388   .     S
C237   C717    1.388   1_554 S
C238   C401    1.336   .     S
C238   H412    1.088   .     S
C240   O266    1.286   .     A
C240   O264    1.285   .     A
C241   O267    1.286   .     A
C241   O265    1.285   .     A
C242   H243    1.082   .     S
H246   C397    1.086   .     S
H251   C401    1.088   .     S
H253   N310    1.029   .     S
N255   Zn270   2.019   .     S
N255   H306    1.029   .     S
N255   N310    1.278   .     S
N256   Zn269   2.019   .     S
O257   Zn269   1.952   .     S
O261   Zn270   1.952   .     S
O262   Zn270   1.974   .     S
O263   Zn269   1.974   .     S
O264   Zn269   1.997   .     S
O265   Zn270   1.997   .     S
O266   Zn270   2.019   .     S
O267   Zn269   2.019   .     S
C271   C292    1.400   .     S
C271   O311    1.277   .     A
C271   O316    1.287   .     A
C272   C274    1.384   .     A
C272   C283    1.387   .     A
C272   H301    1.082   .     S
C273   C296    1.384   .     A
C273   C275    1.402   .     A
C273   C295    1.422   .     S
C274   C294    1.422   .     S
C274   C276    1.402   .     A
C275   C277    1.403   .     A
C275   C286    1.490   .     S
C276   C287    1.490   .     S
C276   C278    1.403   .     A
C277   C284    1.404   .     A
C277   C279    1.421   .     A
C278   C285    1.404   .     A
C278   C280    1.421   .     A
C279   C281    1.420   .     A
C279   C766    1.401   1_554 S
C280   C283    1.420   .     A
C280   C765    1.401   .     S
C281   C296    1.387   .     A
C281   C291    1.415   .     A
C282   C293    1.400   .     S
C282   O317    1.287   .     A
C282   O315    1.277   .     A
C283   C290    1.415   .     A
C284   H302    1.082   .     S
C284   C776    1.388   1_554 S
C285   H303    1.082   .     S
C285   C777    1.388   .     S
C286   O322    1.220   .     D
C286   H308    1.085   .     S
C287   O312    1.220   .     D
C287   H298    1.085   .     S
C288   O313    1.221   .     D
C288   C290    1.487   .     S
C288   H461    1.086   .     S
C289   C291    1.487   .     S
C289   O314    1.221   .     D
C290   C770    1.388   .     S
C291   C771    1.388   1_554 S
C292   C455    1.336   .     S
C292   H466    1.088   .     S
C294   O320    1.286   .     A
C294   O318    1.285   .     A
C295   O321    1.286   .     A
C295   O319    1.285   .     A
C296   H297    1.082   .     S
H300   C451    1.086   .     S
H305   C455    1.088   .     S
H307   N202    1.029   1_655 S
N309   Zn324   2.019   .     S
N309   H198    1.029   1_655 S
N309   N202    1.278   1_655 S
N310   Zn323   2.019   .     S
O311   Zn323   1.952   .     S
O315   Zn324   1.952   .     S
O316   Zn324   1.974   .     S
O317   Zn323   1.974   .     S
O318   Zn323   1.997   .     S
O319   Zn324   1.997   .     S
O320   Zn324   2.019   .     S
O321   Zn323   2.019   .     S
C325   C346    1.400   .     S
C325   O365    1.277   .     A
C325   O370    1.287   .     A
C326   C328    1.384   .     A
C326   C337    1.387   .     A
C326   H355    1.082   .     S
C327   C350    1.384   .     A
C327   C329    1.402   .     A
C327   C349    1.422   .     S
C328   C348    1.422   .     S
C328   C330    1.402   .     A
C329   C331    1.403   .     A
C329   C340    1.490   .     S
C330   C341    1.490   .     S
C330   C332    1.403   .     A
C331   C338    1.404   .     A
C331   C333    1.421   .     A
C332   C339    1.404   .     A
C332   C334    1.421   .     A
C333   C335    1.420   .     A
C333   C820    1.401   1_554 S
C334   C337    1.420   .     A
C334   C819    1.401   .     S
C335   C350    1.387   .     A
C335   C345    1.415   .     A
C336   C347    1.400   .     S
C336   O371    1.287   .     A
C336   O369    1.277   .     A
C337   C344    1.415   .     A
C338   H356    1.082   .     S
C338   C830    1.388   1_554 S
C339   H357    1.082   .     S
C339   C831    1.388   .     S
C340   O376    1.220   .     D
C340   H362    1.085   .     S
C341   O366    1.220   .     D
C341   H352    1.085   .     S
C342   O367    1.221   .     D
C342   C344    1.487   .     S
C342   H29     1.086   1_565 S
C343   C345    1.487   .     S
C343   O368    1.221   .     D
C344   C824    1.388   .     S
C345   C825    1.388   1_554 S
C346   C23     1.336   1_565 S
C346   H34     1.088   1_565 S
C348   O374    1.286   .     A
C348   O372    1.285   .     A
C349   O375    1.286   .     A
C349   O373    1.285   .     A
C350   H351    1.082   .     S
H354   C19     1.086   1_565 S
H359   C23     1.088   1_565 S
H360   N471    1.029   1_455 S
H361   N418    1.029   .     S
N363   Zn378   2.019   .     S
N363   H414    1.029   .     S
N363   N418    1.278   .     S
N364   Zn377   2.019   .     S
N364   N471    1.278   1_455 S
N364   H469    1.029   1_455 S
O365   Zn377   1.952   .     S
O369   Zn378   1.952   .     S
O370   Zn378   1.974   .     S
O371   Zn377   1.974   .     S
O372   Zn377   1.997   .     S
O373   Zn378   1.997   .     S
O374   Zn378   2.019   .     S
O375   Zn377   2.019   .     S
C379   C400    1.400   .     S
C379   O419    1.277   .     A
C379   O424    1.287   .     A
C380   C382    1.384   .     A
C380   C391    1.387   .     A
C380   H409    1.082   .     S
C381   C404    1.384   .     A
C381   C383    1.402   .     A
C381   C403    1.422   .     S
C382   C402    1.422   .     S
C382   C384    1.402   .     A
C383   C385    1.403   .     A
C383   C394    1.490   .     S
C384   C395    1.490   .     S
C384   C386    1.403   .     A
C385   C392    1.404   .     A
C385   C387    1.421   .     A
C386   C393    1.404   .     A
C386   C388    1.421   .     A
C387   C389    1.420   .     A
C387   C874    1.401   1_554 S
C388   C391    1.420   .     A
C388   C873    1.401   .     S
C389   C404    1.387   .     A
C389   C399    1.415   .     A
C390   C401    1.400   .     S
C390   O425    1.287   .     A
C390   O423    1.277   .     A
C391   C398    1.415   .     A
C392   H410    1.082   .     S
C392   C884    1.388   1_554 S
C393   H411    1.082   .     S
C393   C885    1.388   .     S
C394   O430    1.220   .     D
C394   H416    1.085   .     S
C395   O420    1.220   .     D
C395   H406    1.085   .     S
C396   O421    1.221   .     D
C396   C398    1.487   .     S
C396   H83     1.086   1_565 S
C397   C399    1.487   .     S
C397   O422    1.221   .     D
C398   C878    1.388   .     S
C399   C879    1.388   1_554 S
C400   C77     1.336   1_565 S
C400   H88     1.088   1_565 S
C402   O428    1.286   .     A
C402   O426    1.285   .     A
C403   O429    1.286   .     A
C403   O427    1.285   .     A
C404   H405    1.082   .     S
H408   C73     1.086   1_565 S
H413   C77     1.088   1_565 S
H415   N472    1.029   .     S
N417   Zn432   2.019   .     S
N417   H468    1.029   .     S
N417   N472    1.278   .     S
N418   Zn431   2.019   .     S
O419   Zn431   1.952   .     S
O423   Zn432   1.952   .     S
O424   Zn432   1.974   .     S
O425   Zn431   1.974   .     S
O426   Zn431   1.997   .     S
O427   Zn432   1.997   .     S
O428   Zn432   2.019   .     S
O429   Zn431   2.019   .     S
C433   C454    1.400   .     S
C433   O473    1.277   .     A
C433   O478    1.287   .     A
C434   C436    1.384   .     A
C434   C445    1.387   .     A
C434   H463    1.082   .     S
C435   C458    1.384   .     A
C435   C437    1.402   .     A
C435   C457    1.422   .     S
C436   C456    1.422   .     S
C436   C438    1.402   .     A
C437   C439    1.403   .     A
C437   C448    1.490   .     S
C438   C449    1.490   .     S
C438   C440    1.403   .     A
C439   C446    1.404   .     A
C439   C441    1.421   .     A
C440   C447    1.404   .     A
C440   C442    1.421   .     A
C441   C443    1.420   .     A
C441   C928    1.401   1_554 S
C442   C445    1.420   .     A
C442   C927    1.401   .     S
C443   C458    1.387   .     A
C443   C453    1.415   .     A
C444   C455    1.400   .     S
C444   O479    1.287   .     A
C444   O477    1.277   .     A
C445   C452    1.415   .     A
C446   H464    1.082   .     S
C446   C938    1.388   1_554 S
C447   H465    1.082   .     S
C447   C939    1.388   .     S
C448   O484    1.220   .     D
C448   H470    1.085   .     S
C449   O474    1.220   .     D
C449   H460    1.085   .     S
C450   O475    1.221   .     D
C450   C452    1.487   .     S
C450   H137    1.086   1_565 S
C451   C453    1.487   .     S
C451   O476    1.221   .     D
C452   C932    1.388   .     S
C453   C933    1.388   1_554 S
C454   C131    1.336   1_565 S
C454   H142    1.088   1_565 S
C456   O482    1.286   .     A
C456   O480    1.285   .     A
C457   O483    1.286   .     A
C457   O481    1.285   .     A
C458   H459    1.082   .     S
H462   C127    1.086   1_565 S
H467   C131    1.088   1_565 S
H469   N364    1.029   1_655 S
N471   Zn486   2.019   .     S
N471   H360    1.029   1_655 S
N471   N364    1.278   1_655 S
N472   Zn485   2.019   .     S
O473   Zn485   1.952   .     S
O477   Zn486   1.952   .     S
O478   Zn486   1.974   .     S
O479   Zn485   1.974   .     S
O480   Zn485   1.997   .     S
O481   Zn486   1.997   .     S
O482   Zn486   2.019   .     S
O483   Zn485   2.019   .     S
C487   C508    1.400   .     S
C487   O527    1.277   .     A
C487   O532    1.287   .     A
C488   C490    1.384   .     A
C488   C499    1.387   .     A
C488   H517    1.082   .     S
C489   C512    1.384   .     A
C489   C491    1.402   .     A
C489   C511    1.422   .     S
C490   C510    1.422   .     S
C490   C492    1.402   .     A
C491   C493    1.403   .     A
C491   C502    1.490   .     S
C492   C503    1.490   .     S
C492   C494    1.403   .     A
C493   C500    1.404   .     A
C493   C495    1.421   .     A
C494   C501    1.404   .     A
C494   C496    1.421   .     A
C495   C497    1.420   .     A
C496   C499    1.420   .     A
C496   C9      1.401   1_556 S
C497   C512    1.387   .     A
C497   C507    1.415   .     A
C498   C509    1.400   .     S
C498   O533    1.287   .     A
C498   O531    1.277   .     A
C499   C506    1.415   .     A
C500   H518    1.082   .     S
C501   H519    1.082   .     S
C501   C21     1.388   1_556 S
C502   O538    1.220   .     D
C502   H524    1.085   .     S
C503   O528    1.220   .     D
C503   H514    1.085   .     S
C504   O529    1.221   .     D
C504   C506    1.487   .     S
C504   H677    1.086   .     S
C505   C507    1.487   .     S
C505   O530    1.221   .     D
C505   H840    1.086   1_545 S
C506   C14     1.388   1_556 S
C508   C671    1.336   .     S
C508   H682    1.088   .     S
C509   C832    1.336   1_545 S
C509   H845    1.088   1_545 S
C510   O536    1.286   .     A
C510   O534    1.285   .     A
C511   O537    1.286   .     A
C511   O535    1.285   .     A
C512   H513    1.082   .     S
H515   C828    1.086   1_545 S
H516   C667    1.086   .     S
H520   C832    1.088   1_545 S
H521   C671    1.088   .     S
H522   N633    1.029   1_455 S
H523   N580    1.029   .     S
N525   Zn540   2.019   .     S
N525   H576    1.029   .     S
N525   N580    1.278   .     S
N526   Zn539   2.019   .     S
N526   N633    1.278   1_455 S
N526   H631    1.029   1_455 S
O527   Zn539   1.952   .     S
O531   Zn540   1.952   .     S
O532   Zn540   1.974   .     S
O533   Zn539   1.974   .     S
O534   Zn539   1.997   .     S
O535   Zn540   1.997   .     S
O536   Zn540   2.019   .     S
O537   Zn539   2.019   .     S
C541   C562    1.400   .     S
C541   O581    1.277   .     A
C541   O586    1.287   .     A
C542   C544    1.384   .     A
C542   C553    1.387   .     A
C542   H571    1.082   .     S
C543   C566    1.384   .     A
C543   C545    1.402   .     A
C543   C565    1.422   .     S
C544   C564    1.422   .     S
C544   C546    1.402   .     A
C545   C547    1.403   .     A
C545   C556    1.490   .     S
C546   C557    1.490   .     S
C546   C548    1.403   .     A
C547   C554    1.404   .     A
C547   C549    1.421   .     A
C548   C555    1.404   .     A
C548   C550    1.421   .     A
C549   C551    1.420   .     A
C550   C553    1.420   .     A
C550   C63     1.401   1_556 S
C551   C566    1.387   .     A
C551   C561    1.415   .     A
C552   C563    1.400   .     S
C552   O587    1.287   .     A
C552   O585    1.277   .     A
C553   C560    1.415   .     A
C554   H572    1.082   .     S
C555   H573    1.082   .     S
C555   C75     1.388   1_556 S
C556   O592    1.220   .     D
C556   H578    1.085   .     S
C557   O582    1.220   .     D
C557   H568    1.085   .     S
C558   O583    1.221   .     D
C558   C560    1.487   .     S
C558   H731    1.086   .     S
C559   C561    1.487   .     S
C559   O584    1.221   .     D
C559   H894    1.086   1_545 S
C560   C68     1.388   1_556 S
C562   C725    1.336   .     S
C562   H736    1.088   .     S
C563   C886    1.336   1_545 S
C563   H899    1.088   1_545 S
C564   O590    1.286   .     A
C564   O588    1.285   .     A
C565   O591    1.286   .     A
C565   O589    1.285   .     A
C566   H567    1.082   .     S
H569   C882    1.086   1_545 S
H570   C721    1.086   .     S
H574   C886    1.088   1_545 S
H575   C725    1.088   .     S
H577   N634    1.029   .     S
N579   Zn594   2.019   .     S
N579   H630    1.029   .     S
N579   N634    1.278   .     S
N580   Zn593   2.019   .     S
O581   Zn593   1.952   .     S
O585   Zn594   1.952   .     S
O586   Zn594   1.974   .     S
O587   Zn593   1.974   .     S
O588   Zn593   1.997   .     S
O589   Zn594   1.997   .     S
O590   Zn594   2.019   .     S
O591   Zn593   2.019   .     S
C595   C616    1.400   .     S
C595   O635    1.277   .     A
C595   O640    1.287   .     A
C596   C598    1.384   .     A
C596   C607    1.387   .     A
C596   H625    1.082   .     S
C597   C620    1.384   .     A
C597   C599    1.402   .     A
C597   C619    1.422   .     S
C598   C618    1.422   .     S
C598   C600    1.402   .     A
C599   C601    1.403   .     A
C599   C610    1.490   .     S
C600   C611    1.490   .     S
C600   C602    1.403   .     A
C601   C608    1.404   .     A
C601   C603    1.421   .     A
C602   C609    1.404   .     A
C602   C604    1.421   .     A
C603   C605    1.420   .     A
C604   C607    1.420   .     A
C604   C117    1.401   1_556 S
C605   C620    1.387   .     A
C605   C615    1.415   .     A
C606   C617    1.400   .     S
C606   O641    1.287   .     A
C606   O639    1.277   .     A
C607   C614    1.415   .     A
C608   H626    1.082   .     S
C609   H627    1.082   .     S
C609   C129    1.388   1_556 S
C610   O646    1.220   .     D
C610   H632    1.085   .     S
C611   O636    1.220   .     D
C611   H622    1.085   .     S
C612   O637    1.221   .     D
C612   C614    1.487   .     S
C612   H785    1.086   .     S
C613   C615    1.487   .     S
C613   O638    1.221   .     D
C613   H948    1.086   1_545 S
C614   C122    1.388   1_556 S
C616   C779    1.336   .     S
C616   H790    1.088   .     S
C617   C940    1.336   1_545 S
C617   H953    1.088   1_545 S
C618   O644    1.286   .     A
C618   O642    1.285   .     A
C619   O645    1.286   .     A
C619   O643    1.285   .     A
C620   H621    1.082   .     S
H623   C936    1.086   1_545 S
H624   C775    1.086   .     S
H628   C940    1.088   1_545 S
H629   C779    1.088   .     S
H631   N526    1.029   1_655 S
N633   Zn648   2.019   .     S
N633   H522    1.029   1_655 S
N633   N526    1.278   1_655 S
N634   Zn647   2.019   .     S
O635   Zn647   1.952   .     S
O639   Zn648   1.952   .     S
O640   Zn648   1.974   .     S
O641   Zn647   1.974   .     S
O642   Zn647   1.997   .     S
O643   Zn648   1.997   .     S
O644   Zn648   2.019   .     S
O645   Zn647   2.019   .     S
C649   C670    1.400   .     S
C649   O689    1.277   .     A
C649   O694    1.287   .     A
C650   C652    1.384   .     A
C650   C661    1.387   .     A
C650   H679    1.082   .     S
C651   C674    1.384   .     A
C651   C653    1.402   .     A
C651   C673    1.422   .     S
C652   C672    1.422   .     S
C652   C654    1.402   .     A
C653   C655    1.403   .     A
C653   C664    1.490   .     S
C654   C665    1.490   .     S
C654   C656    1.403   .     A
C655   C662    1.404   .     A
C655   C657    1.421   .     A
C656   C663    1.404   .     A
C656   C658    1.421   .     A
C657   C659    1.420   .     A
C658   C661    1.420   .     A
C658   C171    1.401   1_556 S
C659   C674    1.387   .     A
C659   C669    1.415   .     A
C660   C671    1.400   .     S
C660   O695    1.287   .     A
C660   O693    1.277   .     A
C661   C668    1.415   .     A
C662   H680    1.082   .     S
C663   H681    1.082   .     S
C663   C183    1.388   1_556 S
C664   O700    1.220   .     D
C664   H686    1.085   .     S
C665   O690    1.220   .     D
C665   H676    1.085   .     S
C666   O691    1.221   .     D
C666   C668    1.487   .     S
C666   H839    1.086   .     S
C667   C669    1.487   .     S
C667   O692    1.221   .     D
C668   C176    1.388   1_556 S
C670   C833    1.336   .     S
C670   H844    1.088   .     S
C672   O698    1.286   .     A
C672   O696    1.285   .     A
C673   O699    1.286   .     A
C673   O697    1.285   .     A
C674   H675    1.082   .     S
H678   C829    1.086   .     S
H683   C833    1.088   .     S
H684   N795    1.029   1_455 S
H685   N742    1.029   .     S
N687   Zn702   2.019   .     S
N687   H738    1.029   .     S
N687   N742    1.278   .     S
N688   Zn701   2.019   .     S
N688   N795    1.278   1_455 S
N688   H793    1.029   1_455 S
O689   Zn701   1.952   .     S
O693   Zn702   1.952   .     S
O694   Zn702   1.974   .     S
O695   Zn701   1.974   .     S
O696   Zn701   1.997   .     S
O697   Zn702   1.997   .     S
O698   Zn702   2.019   .     S
O699   Zn701   2.019   .     S
C703   C724    1.400   .     S
C703   O743    1.277   .     A
C703   O748    1.287   .     A
C704   C706    1.384   .     A
C704   C715    1.387   .     A
C704   H733    1.082   .     S
C705   C728    1.384   .     A
C705   C707    1.402   .     A
C705   C727    1.422   .     S
C706   C726    1.422   .     S
C706   C708    1.402   .     A
C707   C709    1.403   .     A
C707   C718    1.490   .     S
C708   C719    1.490   .     S
C708   C710    1.403   .     A
C709   C716    1.404   .     A
C709   C711    1.421   .     A
C710   C717    1.404   .     A
C710   C712    1.421   .     A
C711   C713    1.420   .     A
C712   C715    1.420   .     A
C712   C225    1.401   1_556 S
C713   C728    1.387   .     A
C713   C723    1.415   .     A
C714   C725    1.400   .     S
C714   O749    1.287   .     A
C714   O747    1.277   .     A
C715   C722    1.415   .     A
C716   H734    1.082   .     S
C717   H735    1.082   .     S
C717   C237    1.388   1_556 S
C718   O754    1.220   .     D
C718   H740    1.085   .     S
C719   O744    1.220   .     D
C719   H730    1.085   .     S
C720   O745    1.221   .     D
C720   C722    1.487   .     S
C720   H893    1.086   .     S
C721   C723    1.487   .     S
C721   O746    1.221   .     D
C722   C230    1.388   1_556 S
C724   C887    1.336   .     S
C724   H898    1.088   .     S
C726   O752    1.286   .     A
C726   O750    1.285   .     A
C727   O753    1.286   .     A
C727   O751    1.285   .     A
C728   H729    1.082   .     S
H732   C883    1.086   .     S
H737   C887    1.088   .     S
H739   N796    1.029   .     S
N741   Zn756   2.019   .     S
N741   H792    1.029   .     S
N741   N796    1.278   .     S
N742   Zn755   2.019   .     S
O743   Zn755   1.952   .     S
O747   Zn756   1.952   .     S
O748   Zn756   1.974   .     S
O749   Zn755   1.974   .     S
O750   Zn755   1.997   .     S
O751   Zn756   1.997   .     S
O752   Zn756   2.019   .     S
O753   Zn755   2.019   .     S
C757   C778    1.400   .     S
C757   O797    1.277   .     A
C757   O802    1.287   .     A
C758   C760    1.384   .     A
C758   C769    1.387   .     A
C758   H787    1.082   .     S
C759   C782    1.384   .     A
C759   C761    1.402   .     A
C759   C781    1.422   .     S
C760   C780    1.422   .     S
C760   C762    1.402   .     A
C761   C763    1.403   .     A
C761   C772    1.490   .     S
C762   C773    1.490   .     S
C762   C764    1.403   .     A
C763   C770    1.404   .     A
C763   C765    1.421   .     A
C764   C771    1.404   .     A
C764   C766    1.421   .     A
C765   C767    1.420   .     A
C766   C769    1.420   .     A
C766   C279    1.401   1_556 S
C767   C782    1.387   .     A
C767   C777    1.415   .     A
C768   C779    1.400   .     S
C768   O803    1.287   .     A
C768   O801    1.277   .     A
C769   C776    1.415   .     A
C770   H788    1.082   .     S
C771   H789    1.082   .     S
C771   C291    1.388   1_556 S
C772   O808    1.220   .     D
C772   H794    1.085   .     S
C773   O798    1.220   .     D
C773   H784    1.085   .     S
C774   O799    1.221   .     D
C774   C776    1.487   .     S
C774   H947    1.086   .     S
C775   C777    1.487   .     S
C775   O800    1.221   .     D
C776   C284    1.388   1_556 S
C778   C941    1.336   .     S
C778   H952    1.088   .     S
C780   O806    1.286   .     A
C780   O804    1.285   .     A
C781   O807    1.286   .     A
C781   O805    1.285   .     A
C782   H783    1.082   .     S
H786   C937    1.086   .     S
H791   C941    1.088   .     S
H793   N688    1.029   1_655 S
N795   Zn810   2.019   .     S
N795   H684    1.029   1_655 S
N795   N688    1.278   1_655 S
N796   Zn809   2.019   .     S
O797   Zn809   1.952   .     S
O801   Zn810   1.952   .     S
O802   Zn810   1.974   .     S
O803   Zn809   1.974   .     S
O804   Zn809   1.997   .     S
O805   Zn810   1.997   .     S
O806   Zn810   2.019   .     S
O807   Zn809   2.019   .     S
C811   C832    1.400   .     S
C811   O851    1.277   .     A
C811   O856    1.287   .     A
C812   C814    1.384   .     A
C812   C823    1.387   .     A
C812   H841    1.082   .     S
C813   C836    1.384   .     A
C813   C815    1.402   .     A
C813   C835    1.422   .     S
C814   C834    1.422   .     S
C814   C816    1.402   .     A
C815   C817    1.403   .     A
C815   C826    1.490   .     S
C816   C827    1.490   .     S
C816   C818    1.403   .     A
C817   C824    1.404   .     A
C817   C819    1.421   .     A
C818   C825    1.404   .     A
C818   C820    1.421   .     A
C819   C821    1.420   .     A
C820   C823    1.420   .     A
C820   C333    1.401   1_556 S
C821   C836    1.387   .     A
C821   C831    1.415   .     A
C822   C833    1.400   .     S
C822   O857    1.287   .     A
C822   O855    1.277   .     A
C823   C830    1.415   .     A
C824   H842    1.082   .     S
C825   H843    1.082   .     S
C825   C345    1.388   1_556 S
C826   O862    1.220   .     D
C826   H848    1.085   .     S
C827   O852    1.220   .     D
C827   H838    1.085   .     S
C828   O853    1.221   .     D
C828   C830    1.487   .     S
C828   H515    1.086   1_565 S
C829   C831    1.487   .     S
C829   O854    1.221   .     D
C830   C338    1.388   1_556 S
C832   C509    1.336   1_565 S
C832   H520    1.088   1_565 S
C834   O860    1.286   .     A
C834   O858    1.285   .     A
C835   O861    1.286   .     A
C835   O859    1.285   .     A
C836   H837    1.082   .     S
H840   C505    1.086   1_565 S
H845   C509    1.088   1_565 S
H846   N957    1.029   1_455 S
H847   N904    1.029   .     S
N849   Zn864   2.019   .     S
N849   H900    1.029   .     S
N849   N904    1.278   .     S
N850   Zn863   2.019   .     S
N850   N957    1.278   1_455 S
N850   H955    1.029   1_455 S
O851   Zn863   1.952   .     S
O855   Zn864   1.952   .     S
O856   Zn864   1.974   .     S
O857   Zn863   1.974   .     S
O858   Zn863   1.997   .     S
O859   Zn864   1.997   .     S
O860   Zn864   2.019   .     S
O861   Zn863   2.019   .     S
C865   C886    1.400   .     S
C865   O905    1.277   .     A
C865   O910    1.287   .     A
C866   C868    1.384   .     A
C866   C877    1.387   .     A
C866   H895    1.082   .     S
C867   C890    1.384   .     A
C867   C869    1.402   .     A
C867   C889    1.422   .     S
C868   C888    1.422   .     S
C868   C870    1.402   .     A
C869   C871    1.403   .     A
C869   C880    1.490   .     S
C870   C881    1.490   .     S
C870   C872    1.403   .     A
C871   C878    1.404   .     A
C871   C873    1.421   .     A
C872   C879    1.404   .     A
C872   C874    1.421   .     A
C873   C875    1.420   .     A
C874   C877    1.420   .     A
C874   C387    1.401   1_556 S
C875   C890    1.387   .     A
C875   C885    1.415   .     A
C876   C887    1.400   .     S
C876   O911    1.287   .     A
C876   O909    1.277   .     A
C877   C884    1.415   .     A
C878   H896    1.082   .     S
C879   H897    1.082   .     S
C879   C399    1.388   1_556 S
C880   O916    1.220   .     D
C880   H902    1.085   .     S
C881   O906    1.220   .     D
C881   H892    1.085   .     S
C882   O907    1.221   .     D
C882   C884    1.487   .     S
C882   H569    1.086   1_565 S
C883   C885    1.487   .     S
C883   O908    1.221   .     D
C884   C392    1.388   1_556 S
C886   C563    1.336   1_565 S
C886   H574    1.088   1_565 S
C888   O914    1.286   .     A
C888   O912    1.285   .     A
C889   O915    1.286   .     A
C889   O913    1.285   .     A
C890   H891    1.082   .     S
H894   C559    1.086   1_565 S
H899   C563    1.088   1_565 S
H901   N958    1.029   .     S
N903   Zn918   2.019   .     S
N903   H954    1.029   .     S
N903   N958    1.278   .     S
N904   Zn917   2.019   .     S
O905   Zn917   1.952   .     S
O909   Zn918   1.952   .     S
O910   Zn918   1.974   .     S
O911   Zn917   1.974   .     S
O912   Zn917   1.997   .     S
O913   Zn918   1.997   .     S
O914   Zn918   2.019   .     S
O915   Zn917   2.019   .     S
C919   C940    1.400   .     S
C919   O959    1.277   .     A
C919   O964    1.287   .     A
C920   C922    1.384   .     A
C920   C931    1.387   .     A
C920   H949    1.082   .     S
C921   C944    1.384   .     A
C921   C923    1.402   .     A
C921   C943    1.422   .     S
C922   C942    1.422   .     S
C922   C924    1.402   .     A
C923   C925    1.403   .     A
C923   C934    1.490   .     S
C924   C935    1.490   .     S
C924   C926    1.403   .     A
C925   C932    1.404   .     A
C925   C927    1.421   .     A
C926   C933    1.404   .     A
C926   C928    1.421   .     A
C927   C929    1.420   .     A
C928   C931    1.420   .     A
C928   C441    1.401   1_556 S
C929   C944    1.387   .     A
C929   C939    1.415   .     A
C930   C941    1.400   .     S
C930   O965    1.287   .     A
C930   O963    1.277   .     A
C931   C938    1.415   .     A
C932   H950    1.082   .     S
C933   H951    1.082   .     S
C933   C453    1.388   1_556 S
C934   O970    1.220   .     D
C934   H956    1.085   .     S
C935   O960    1.220   .     D
C935   H946    1.085   .     S
C936   O961    1.221   .     D
C936   C938    1.487   .     S
C936   H623    1.086   1_565 S
C937   C939    1.487   .     S
C937   O962    1.221   .     D
C938   C446    1.388   1_556 S
C940   C617    1.336   1_565 S
C940   H628    1.088   1_565 S
C942   O968    1.286   .     A
C942   O966    1.285   .     A
C943   O969    1.286   .     A
C943   O967    1.285   .     A
C944   H945    1.082   .     S
H948   C613    1.086   1_565 S
H953   C617    1.088   1_565 S
H955   N850    1.029   1_655 S
N957   Zn972   2.019   .     S
N957   H846    1.029   1_655 S
N957   N850    1.278   1_655 S
N958   Zn971   2.019   .     S
O959   Zn971   1.952   .     S
O963   Zn972   1.952   .     S
O964   Zn972   1.974   .     S
O965   Zn971   1.974   .     S
O966   Zn971   1.997   .     S
O967   Zn972   1.997   .     S
O968   Zn972   2.019   .     S
O969   Zn971   2.019   .     S
