data_str_m1_o10_o18_pcu_sym.247
_audit_creation_date              2020-01-03
_audit_creation_method            'Materials Studio'
_symmetry_space_group_name_H-M    'P1'
_symmetry_Int_Tables_number       1
_symmetry_cell_setting            triclinic
loop_
_symmetry_equiv_pos_as_xyz
  x,y,z
_cell_length_a                    32.6329
_cell_length_b                    32.5020
_cell_length_c                    35.8487
_cell_angle_alpha                 98.0455
_cell_angle_beta                  72.9166
_cell_angle_gamma                 98.4696
loop_
_atom_site_label
_atom_site_type_symbol
_atom_site_fract_x
_atom_site_fract_y
_atom_site_fract_z
_atom_site_U_iso_or_equiv
_atom_site_adp_type
_atom_site_occupancy
C1     C     0.05269   0.16024   0.25848   0.00000  Uiso   1.00
C2     C     0.20982   0.14342   0.45928   0.00000  Uiso   1.00
C3     C     0.23204   0.12582   0.47938   0.00000  Uiso   1.00
C4     C     0.28101   0.17350   0.24126   0.00000  Uiso   1.00
C5     C     0.22072   0.13084   0.02015   0.00000  Uiso   1.00
C6     C     0.18639   0.15450   0.04167   0.00000  Uiso   1.00
C7     C     0.24381   0.11252   0.03960   0.00000  Uiso   1.00
C8     C     0.23313   0.11714   0.08030   0.00000  Uiso   1.00
C9     C     0.17328   0.15485   0.08302   0.00000  Uiso   1.00
C10    C     0.32690   0.17568   0.23772   0.00000  Uiso   1.00
C11    C     0.00734   0.15769   0.26259   0.00000  Uiso   1.00
C12    C     0.11058   0.22786   0.41950   0.00000  Uiso   1.00
C13    C     0.18086   0.32218   0.23810   0.00000  Uiso   1.00
C14    C     0.15164   0.01213   0.26217   0.00000  Uiso   1.00
C15    C     0.15596   0.05617   0.25891   0.00000  Uiso   1.00
C16    C     0.17685   0.27767   0.24136   0.00000  Uiso   1.00
C17    C     0.18840   0.14524   0.14417   0.00000  Uiso   1.00
C18    C     0.14547   0.18778   0.35609   0.00000  Uiso   1.00
C19    C     0.13761   0.19764   0.39872   0.00000  Uiso   1.00
C20    C     0.19764   0.13775   0.10183   0.00000  Uiso   1.00
C21    C     0.10442   0.23744   0.45970   0.00000  Uiso   1.00
C22    C     0.15826   0.17709   0.41859   0.00000  Uiso   1.00
C23    C     0.15390   0.18736   0.45892   0.00000  Uiso   1.00
C24    C     0.12575   0.21743   0.47954   0.00000  Uiso   1.00
C25    C     0.17646   0.16844   0.47931   0.00000  Uiso   1.00
C26    C     0.16668   0.17638   0.02093   0.00000  Uiso   1.00
C27    C     0.13984   0.20787   0.03997   0.00000  Uiso   1.00
C28    C     0.11972   0.22785   0.01962   0.00000  Uiso   1.00
F29    F     0.31332   0.13745   0.29268   0.00000  Uiso   1.00
F30    F     0.13600   0.16943   0.10561   0.00000  Uiso   1.00
H31    H     0.01657   0.19210   0.21446   0.00000  Uiso   1.00
H32    H     0.25218   0.10423   0.09504   0.00000  Uiso   1.00
H33    H     0.25821   0.10783   0.46280   0.00000  Uiso   1.00
H34    H     0.17694   0.15259   0.40198   0.00000  Uiso   1.00
H35    H     0.20784   0.00278   0.21596   0.00000  Uiso   1.00
H36    H     0.12430   0.33230   0.28443   0.00000  Uiso   1.00
H37    H     0.08319   0.26075   0.47528   0.00000  Uiso   1.00
H38    H     0.09420   0.24410   0.40472   0.00000  Uiso   1.00
H39    H     0.13571   0.21966   0.07027   0.00000  Uiso   1.00
H40    H     0.22122   0.13849   0.42778   0.00000  Uiso   1.00
H41    H     0.09941   0.25184   0.03541   0.00000  Uiso   1.00
H42    H     0.27066   0.09530   0.02328   0.00000  Uiso   1.00
O43    O     0.16667   0.16667   0.25000   0.00000  Uiso   1.00
O44    O     0.15693   0.12393   0.16625   0.00000  Uiso   1.00
O45    O     0.12687   0.20646   0.33749   0.00000  Uiso   1.00
O46    O     0.21088   0.17493   0.15877   0.00000  Uiso   1.00
O47    O     0.17198   0.16135   0.33749   0.00000  Uiso   1.00
O48    O     0.17849   0.08101   0.27821   0.00000  Uiso   1.00
O49    O     0.14581   0.26136   0.26767   0.00000  Uiso   1.00
O50    O     0.07452   0.13251   0.23607   0.00000  Uiso   1.00
O51    O     0.26785   0.19179   0.21805   0.00000  Uiso   1.00
O52    O     0.06990   0.18960   0.27820   0.00000  Uiso   1.00
O53    O     0.25440   0.15277   0.26768   0.00000  Uiso   1.00
O54    O     0.13800   0.06903   0.23607   0.00000  Uiso   1.00
O55    O     0.20437   0.25527   0.21805   0.00000  Uiso   1.00
Zn56   Zn    0.19244   0.14090   0.28278   0.00000  Uiso   1.00
Zn57   Zn    0.13459   0.12378   0.22258   0.00000  Uiso   1.00
Zn58   Zn    0.21166   0.19664   0.21188   0.00000  Uiso   1.00
Zn59   Zn    0.12798   0.20535   0.28277   0.00000  Uiso   1.00
C60    C     0.38603   0.16024   0.25848   0.00000  Uiso   1.00
C61    C     0.54315   0.14342   0.45928   0.00000  Uiso   1.00
C62    C     0.56538   0.12582   0.47938   0.00000  Uiso   1.00
C63    C     0.61434   0.17350   0.24126   0.00000  Uiso   1.00
C64    C     0.55405   0.13084   0.02015   0.00000  Uiso   1.00
C65    C     0.51972   0.15450   0.04167   0.00000  Uiso   1.00
C66    C     0.57714   0.11252   0.03960   0.00000  Uiso   1.00
C67    C     0.56646   0.11714   0.08030   0.00000  Uiso   1.00
C68    C     0.50661   0.15485   0.08302   0.00000  Uiso   1.00
C69    C     0.66023   0.17568   0.23772   0.00000  Uiso   1.00
C70    C     0.34068   0.15769   0.26259   0.00000  Uiso   1.00
C71    C     0.44392   0.22786   0.41950   0.00000  Uiso   1.00
C72    C     0.51419   0.32218   0.23810   0.00000  Uiso   1.00
C73    C     0.48497   0.01213   0.26217   0.00000  Uiso   1.00
C74    C     0.48929   0.05617   0.25891   0.00000  Uiso   1.00
C75    C     0.51019   0.27767   0.24136   0.00000  Uiso   1.00
C76    C     0.52174   0.14524   0.14417   0.00000  Uiso   1.00
C77    C     0.47880   0.18778   0.35609   0.00000  Uiso   1.00
C78    C     0.47094   0.19764   0.39872   0.00000  Uiso   1.00
C79    C     0.53098   0.13775   0.10183   0.00000  Uiso   1.00
C80    C     0.43775   0.23744   0.45970   0.00000  Uiso   1.00
C81    C     0.49159   0.17709   0.41859   0.00000  Uiso   1.00
C82    C     0.48724   0.18736   0.45892   0.00000  Uiso   1.00
C83    C     0.45908   0.21743   0.47954   0.00000  Uiso   1.00
C84    C     0.50979   0.16844   0.47931   0.00000  Uiso   1.00
C85    C     0.50001   0.17638   0.02093   0.00000  Uiso   1.00
C86    C     0.47317   0.20787   0.03997   0.00000  Uiso   1.00
C87    C     0.45305   0.22785   0.01962   0.00000  Uiso   1.00
F88    F     0.64665   0.13745   0.29268   0.00000  Uiso   1.00
F89    F     0.46934   0.16943   0.10561   0.00000  Uiso   1.00
H90    H     0.34990   0.19210   0.21446   0.00000  Uiso   1.00
H91    H     0.58551   0.10423   0.09504   0.00000  Uiso   1.00
H92    H     0.59154   0.10783   0.46280   0.00000  Uiso   1.00
H93    H     0.51028   0.15259   0.40198   0.00000  Uiso   1.00
H94    H     0.54118   0.00278   0.21596   0.00000  Uiso   1.00
H95    H     0.45764   0.33230   0.28443   0.00000  Uiso   1.00
H96    H     0.41652   0.26075   0.47528   0.00000  Uiso   1.00
H97    H     0.42754   0.24410   0.40472   0.00000  Uiso   1.00
H98    H     0.46905   0.21966   0.07027   0.00000  Uiso   1.00
H99    H     0.55455   0.13849   0.42778   0.00000  Uiso   1.00
H100   H     0.43275   0.25184   0.03541   0.00000  Uiso   1.00
H101   H     0.60399   0.09530   0.02328   0.00000  Uiso   1.00
O102   O     0.50000   0.16667   0.25000   0.00000  Uiso   1.00
O103   O     0.49027   0.12393   0.16625   0.00000  Uiso   1.00
O104   O     0.46020   0.20646   0.33749   0.00000  Uiso   1.00
O105   O     0.54421   0.17493   0.15877   0.00000  Uiso   1.00
O106   O     0.50532   0.16135   0.33749   0.00000  Uiso   1.00
O107   O     0.51182   0.08101   0.27821   0.00000  Uiso   1.00
O108   O     0.47914   0.26136   0.26767   0.00000  Uiso   1.00
O109   O     0.40785   0.13251   0.23607   0.00000  Uiso   1.00
O110   O     0.60119   0.19179   0.21805   0.00000  Uiso   1.00
O111   O     0.40323   0.18960   0.27820   0.00000  Uiso   1.00
O112   O     0.58773   0.15277   0.26768   0.00000  Uiso   1.00
O113   O     0.47133   0.06903   0.23607   0.00000  Uiso   1.00
O114   O     0.53771   0.25527   0.21805   0.00000  Uiso   1.00
Zn115  Zn    0.52577   0.14090   0.28278   0.00000  Uiso   1.00
Zn116  Zn    0.46792   0.12378   0.22258   0.00000  Uiso   1.00
Zn117  Zn    0.54500   0.19664   0.21188   0.00000  Uiso   1.00
Zn118  Zn    0.46131   0.20535   0.28277   0.00000  Uiso   1.00
C119   C     0.71936   0.16024   0.25848   0.00000  Uiso   1.00
C120   C     0.87648   0.14342   0.45928   0.00000  Uiso   1.00
C121   C     0.89871   0.12582   0.47938   0.00000  Uiso   1.00
C122   C     0.94768   0.17350   0.24126   0.00000  Uiso   1.00
C123   C     0.88738   0.13084   0.02015   0.00000  Uiso   1.00
C124   C     0.85305   0.15450   0.04167   0.00000  Uiso   1.00
C125   C     0.91047   0.11252   0.03960   0.00000  Uiso   1.00
C126   C     0.89979   0.11714   0.08030   0.00000  Uiso   1.00
C127   C     0.83994   0.15485   0.08302   0.00000  Uiso   1.00
C128   C     0.99356   0.17568   0.23772   0.00000  Uiso   1.00
C129   C     0.67401   0.15769   0.26259   0.00000  Uiso   1.00
C130   C     0.77725   0.22786   0.41950   0.00000  Uiso   1.00
C131   C     0.84753   0.32218   0.23810   0.00000  Uiso   1.00
C132   C     0.81831   0.01213   0.26217   0.00000  Uiso   1.00
C133   C     0.82262   0.05617   0.25891   0.00000  Uiso   1.00
C134   C     0.84352   0.27767   0.24136   0.00000  Uiso   1.00
C135   C     0.85507   0.14524   0.14417   0.00000  Uiso   1.00
C136   C     0.81214   0.18778   0.35609   0.00000  Uiso   1.00
C137   C     0.80428   0.19764   0.39872   0.00000  Uiso   1.00
C138   C     0.86431   0.13775   0.10183   0.00000  Uiso   1.00
C139   C     0.77109   0.23744   0.45970   0.00000  Uiso   1.00
C140   C     0.82492   0.17709   0.41859   0.00000  Uiso   1.00
C141   C     0.82057   0.18736   0.45892   0.00000  Uiso   1.00
C142   C     0.79241   0.21743   0.47954   0.00000  Uiso   1.00
C143   C     0.84313   0.16844   0.47931   0.00000  Uiso   1.00
C144   C     0.83335   0.17638   0.02093   0.00000  Uiso   1.00
C145   C     0.80650   0.20787   0.03997   0.00000  Uiso   1.00
C146   C     0.78638   0.22785   0.01962   0.00000  Uiso   1.00
F147   F     0.97998   0.13745   0.29268   0.00000  Uiso   1.00
F148   F     0.80267   0.16943   0.10561   0.00000  Uiso   1.00
H149   H     0.68323   0.19210   0.21446   0.00000  Uiso   1.00
H150   H     0.91884   0.10423   0.09504   0.00000  Uiso   1.00
H151   H     0.92488   0.10783   0.46280   0.00000  Uiso   1.00
H152   H     0.84361   0.15259   0.40198   0.00000  Uiso   1.00
H153   H     0.87451   0.00278   0.21596   0.00000  Uiso   1.00
H154   H     0.79097   0.33230   0.28443   0.00000  Uiso   1.00
H155   H     0.74985   0.26075   0.47528   0.00000  Uiso   1.00
H156   H     0.76087   0.24410   0.40472   0.00000  Uiso   1.00
H157   H     0.80238   0.21966   0.07027   0.00000  Uiso   1.00
H158   H     0.88788   0.13849   0.42778   0.00000  Uiso   1.00
H159   H     0.76608   0.25184   0.03541   0.00000  Uiso   1.00
H160   H     0.93732   0.09530   0.02328   0.00000  Uiso   1.00
O161   O     0.83333   0.16667   0.25000   0.00000  Uiso   1.00
O162   O     0.82360   0.12393   0.16625   0.00000  Uiso   1.00
O163   O     0.79354   0.20646   0.33749   0.00000  Uiso   1.00
O164   O     0.87755   0.17493   0.15877   0.00000  Uiso   1.00
O165   O     0.83865   0.16135   0.33749   0.00000  Uiso   1.00
O166   O     0.84515   0.08101   0.27821   0.00000  Uiso   1.00
O167   O     0.81247   0.26136   0.26767   0.00000  Uiso   1.00
O168   O     0.74119   0.13251   0.23607   0.00000  Uiso   1.00
O169   O     0.93452   0.19179   0.21805   0.00000  Uiso   1.00
O170   O     0.73656   0.18960   0.27820   0.00000  Uiso   1.00
O171   O     0.92106   0.15277   0.26768   0.00000  Uiso   1.00
O172   O     0.80467   0.06903   0.23607   0.00000  Uiso   1.00
O173   O     0.87104   0.25527   0.21805   0.00000  Uiso   1.00
Zn174  Zn    0.85910   0.14090   0.28278   0.00000  Uiso   1.00
Zn175  Zn    0.80125   0.12378   0.22258   0.00000  Uiso   1.00
Zn176  Zn    0.87833   0.19664   0.21188   0.00000  Uiso   1.00
Zn177  Zn    0.79465   0.20535   0.28277   0.00000  Uiso   1.00
C178   C     0.05269   0.49357   0.25848   0.00000  Uiso   1.00
C179   C     0.20982   0.47675   0.45928   0.00000  Uiso   1.00
C180   C     0.23204   0.45915   0.47938   0.00000  Uiso   1.00
C181   C     0.28101   0.50684   0.24126   0.00000  Uiso   1.00
C182   C     0.22072   0.46417   0.02015   0.00000  Uiso   1.00
C183   C     0.18639   0.48784   0.04167   0.00000  Uiso   1.00
C184   C     0.24381   0.44586   0.03960   0.00000  Uiso   1.00
C185   C     0.23313   0.45047   0.08030   0.00000  Uiso   1.00
C186   C     0.17328   0.48819   0.08302   0.00000  Uiso   1.00
C187   C     0.32690   0.50901   0.23772   0.00000  Uiso   1.00
C188   C     0.00734   0.49103   0.26259   0.00000  Uiso   1.00
C189   C     0.11058   0.56119   0.41950   0.00000  Uiso   1.00
C190   C     0.18086   0.65551   0.23810   0.00000  Uiso   1.00
C191   C     0.15164   0.34546   0.26217   0.00000  Uiso   1.00
C192   C     0.15596   0.38950   0.25891   0.00000  Uiso   1.00
C193   C     0.17685   0.61100   0.24136   0.00000  Uiso   1.00
C194   C     0.18840   0.47858   0.14417   0.00000  Uiso   1.00
C195   C     0.14547   0.52112   0.35609   0.00000  Uiso   1.00
C196   C     0.13761   0.53097   0.39872   0.00000  Uiso   1.00
C197   C     0.19764   0.47108   0.10183   0.00000  Uiso   1.00
C198   C     0.10442   0.57077   0.45970   0.00000  Uiso   1.00
C199   C     0.15826   0.51042   0.41859   0.00000  Uiso   1.00
C200   C     0.15390   0.52069   0.45892   0.00000  Uiso   1.00
C201   C     0.12575   0.55077   0.47954   0.00000  Uiso   1.00
C202   C     0.17646   0.50177   0.47931   0.00000  Uiso   1.00
C203   C     0.16668   0.50971   0.02093   0.00000  Uiso   1.00
C204   C     0.13984   0.54121   0.03997   0.00000  Uiso   1.00
C205   C     0.11972   0.56118   0.01962   0.00000  Uiso   1.00
F206   F     0.31332   0.47079   0.29268   0.00000  Uiso   1.00
F207   F     0.13600   0.50277   0.10561   0.00000  Uiso   1.00
H208   H     0.01657   0.52544   0.21446   0.00000  Uiso   1.00
H209   H     0.25218   0.43756   0.09504   0.00000  Uiso   1.00
H210   H     0.25821   0.44117   0.46280   0.00000  Uiso   1.00
H211   H     0.17694   0.48592   0.40198   0.00000  Uiso   1.00
H212   H     0.20784   0.33611   0.21596   0.00000  Uiso   1.00
H213   H     0.12430   0.66564   0.28443   0.00000  Uiso   1.00
H214   H     0.08319   0.59408   0.47528   0.00000  Uiso   1.00
H215   H     0.09420   0.57743   0.40472   0.00000  Uiso   1.00
H216   H     0.13571   0.55300   0.07027   0.00000  Uiso   1.00
H217   H     0.22122   0.47182   0.42778   0.00000  Uiso   1.00
H218   H     0.09941   0.58517   0.03541   0.00000  Uiso   1.00
H219   H     0.27066   0.42864   0.02328   0.00000  Uiso   1.00
O220   O     0.16667   0.50000   0.25000   0.00000  Uiso   1.00
O221   O     0.15693   0.45726   0.16625   0.00000  Uiso   1.00
O222   O     0.12687   0.53979   0.33749   0.00000  Uiso   1.00
O223   O     0.21088   0.50826   0.15877   0.00000  Uiso   1.00
O224   O     0.17198   0.49468   0.33749   0.00000  Uiso   1.00
O225   O     0.17849   0.41434   0.27821   0.00000  Uiso   1.00
O226   O     0.14581   0.59469   0.26767   0.00000  Uiso   1.00
O227   O     0.07452   0.46584   0.23607   0.00000  Uiso   1.00
O228   O     0.26785   0.52512   0.21805   0.00000  Uiso   1.00
O229   O     0.06990   0.52293   0.27820   0.00000  Uiso   1.00
O230   O     0.25440   0.48610   0.26768   0.00000  Uiso   1.00
O231   O     0.13800   0.40236   0.23607   0.00000  Uiso   1.00
O232   O     0.20437   0.58860   0.21805   0.00000  Uiso   1.00
Zn233  Zn    0.19244   0.47423   0.28278   0.00000  Uiso   1.00
Zn234  Zn    0.13459   0.45711   0.22258   0.00000  Uiso   1.00
Zn235  Zn    0.21166   0.52997   0.21188   0.00000  Uiso   1.00
Zn236  Zn    0.12798   0.53868   0.28277   0.00000  Uiso   1.00
C237   C     0.38603   0.49357   0.25848   0.00000  Uiso   1.00
C238   C     0.54315   0.47675   0.45928   0.00000  Uiso   1.00
C239   C     0.56538   0.45915   0.47938   0.00000  Uiso   1.00
C240   C     0.61434   0.50684   0.24126   0.00000  Uiso   1.00
C241   C     0.55405   0.46417   0.02015   0.00000  Uiso   1.00
C242   C     0.51972   0.48784   0.04167   0.00000  Uiso   1.00
C243   C     0.57714   0.44586   0.03960   0.00000  Uiso   1.00
C244   C     0.56646   0.45047   0.08030   0.00000  Uiso   1.00
C245   C     0.50661   0.48819   0.08302   0.00000  Uiso   1.00
C246   C     0.66023   0.50901   0.23772   0.00000  Uiso   1.00
C247   C     0.34068   0.49103   0.26259   0.00000  Uiso   1.00
C248   C     0.44392   0.56119   0.41950   0.00000  Uiso   1.00
C249   C     0.51419   0.65551   0.23810   0.00000  Uiso   1.00
C250   C     0.48497   0.34546   0.26217   0.00000  Uiso   1.00
C251   C     0.48929   0.38950   0.25891   0.00000  Uiso   1.00
C252   C     0.51019   0.61100   0.24136   0.00000  Uiso   1.00
C253   C     0.52174   0.47858   0.14417   0.00000  Uiso   1.00
C254   C     0.47880   0.52112   0.35609   0.00000  Uiso   1.00
C255   C     0.47094   0.53097   0.39872   0.00000  Uiso   1.00
C256   C     0.53098   0.47108   0.10183   0.00000  Uiso   1.00
C257   C     0.43775   0.57077   0.45970   0.00000  Uiso   1.00
C258   C     0.49159   0.51042   0.41859   0.00000  Uiso   1.00
C259   C     0.48724   0.52069   0.45892   0.00000  Uiso   1.00
C260   C     0.45908   0.55077   0.47954   0.00000  Uiso   1.00
C261   C     0.50979   0.50177   0.47931   0.00000  Uiso   1.00
C262   C     0.50001   0.50971   0.02093   0.00000  Uiso   1.00
C263   C     0.47317   0.54121   0.03997   0.00000  Uiso   1.00
C264   C     0.45305   0.56118   0.01962   0.00000  Uiso   1.00
F265   F     0.64665   0.47079   0.29268   0.00000  Uiso   1.00
F266   F     0.46934   0.50277   0.10561   0.00000  Uiso   1.00
H267   H     0.34990   0.52544   0.21446   0.00000  Uiso   1.00
H268   H     0.58551   0.43756   0.09504   0.00000  Uiso   1.00
H269   H     0.59154   0.44117   0.46280   0.00000  Uiso   1.00
H270   H     0.51028   0.48592   0.40198   0.00000  Uiso   1.00
H271   H     0.54118   0.33611   0.21596   0.00000  Uiso   1.00
H272   H     0.45764   0.66564   0.28443   0.00000  Uiso   1.00
H273   H     0.41652   0.59408   0.47528   0.00000  Uiso   1.00
H274   H     0.42754   0.57743   0.40472   0.00000  Uiso   1.00
H275   H     0.46905   0.55300   0.07027   0.00000  Uiso   1.00
H276   H     0.55455   0.47182   0.42778   0.00000  Uiso   1.00
H277   H     0.43275   0.58517   0.03541   0.00000  Uiso   1.00
H278   H     0.60399   0.42864   0.02328   0.00000  Uiso   1.00
O279   O     0.50000   0.50000   0.25000   0.00000  Uiso   1.00
O280   O     0.49027   0.45726   0.16625   0.00000  Uiso   1.00
O281   O     0.46020   0.53979   0.33749   0.00000  Uiso   1.00
O282   O     0.54421   0.50826   0.15877   0.00000  Uiso   1.00
O283   O     0.50532   0.49468   0.33749   0.00000  Uiso   1.00
O284   O     0.51182   0.41434   0.27821   0.00000  Uiso   1.00
O285   O     0.47914   0.59469   0.26767   0.00000  Uiso   1.00
O286   O     0.40785   0.46584   0.23607   0.00000  Uiso   1.00
O287   O     0.60119   0.52512   0.21805   0.00000  Uiso   1.00
O288   O     0.40323   0.52293   0.27820   0.00000  Uiso   1.00
O289   O     0.58773   0.48610   0.26768   0.00000  Uiso   1.00
O290   O     0.47133   0.40236   0.23607   0.00000  Uiso   1.00
O291   O     0.53771   0.58860   0.21805   0.00000  Uiso   1.00
Zn292  Zn    0.52577   0.47423   0.28278   0.00000  Uiso   1.00
Zn293  Zn    0.46792   0.45711   0.22258   0.00000  Uiso   1.00
Zn294  Zn    0.54500   0.52997   0.21188   0.00000  Uiso   1.00
Zn295  Zn    0.46131   0.53868   0.28277   0.00000  Uiso   1.00
C296   C     0.71936   0.49357   0.25848   0.00000  Uiso   1.00
C297   C     0.87648   0.47675   0.45928   0.00000  Uiso   1.00
C298   C     0.89871   0.45915   0.47938   0.00000  Uiso   1.00
C299   C     0.94768   0.50684   0.24126   0.00000  Uiso   1.00
C300   C     0.88738   0.46417   0.02015   0.00000  Uiso   1.00
C301   C     0.85305   0.48784   0.04167   0.00000  Uiso   1.00
C302   C     0.91047   0.44586   0.03960   0.00000  Uiso   1.00
C303   C     0.89979   0.45047   0.08030   0.00000  Uiso   1.00
C304   C     0.83994   0.48819   0.08302   0.00000  Uiso   1.00
C305   C     0.99356   0.50901   0.23772   0.00000  Uiso   1.00
C306   C     0.67401   0.49103   0.26259   0.00000  Uiso   1.00
C307   C     0.77725   0.56119   0.41950   0.00000  Uiso   1.00
C308   C     0.84753   0.65551   0.23810   0.00000  Uiso   1.00
C309   C     0.81831   0.34546   0.26217   0.00000  Uiso   1.00
C310   C     0.82262   0.38950   0.25891   0.00000  Uiso   1.00
C311   C     0.84352   0.61100   0.24136   0.00000  Uiso   1.00
C312   C     0.85507   0.47858   0.14417   0.00000  Uiso   1.00
C313   C     0.81214   0.52112   0.35609   0.00000  Uiso   1.00
C314   C     0.80428   0.53097   0.39872   0.00000  Uiso   1.00
C315   C     0.86431   0.47108   0.10183   0.00000  Uiso   1.00
C316   C     0.77109   0.57077   0.45970   0.00000  Uiso   1.00
C317   C     0.82492   0.51042   0.41859   0.00000  Uiso   1.00
C318   C     0.82057   0.52069   0.45892   0.00000  Uiso   1.00
C319   C     0.79241   0.55077   0.47954   0.00000  Uiso   1.00
C320   C     0.84313   0.50177   0.47931   0.00000  Uiso   1.00
C321   C     0.83335   0.50971   0.02093   0.00000  Uiso   1.00
C322   C     0.80650   0.54121   0.03997   0.00000  Uiso   1.00
C323   C     0.78638   0.56118   0.01962   0.00000  Uiso   1.00
F324   F     0.97998   0.47079   0.29268   0.00000  Uiso   1.00
F325   F     0.80267   0.50277   0.10561   0.00000  Uiso   1.00
H326   H     0.68323   0.52544   0.21446   0.00000  Uiso   1.00
H327   H     0.91884   0.43756   0.09504   0.00000  Uiso   1.00
H328   H     0.92488   0.44117   0.46280   0.00000  Uiso   1.00
H329   H     0.84361   0.48592   0.40198   0.00000  Uiso   1.00
H330   H     0.87451   0.33611   0.21596   0.00000  Uiso   1.00
H331   H     0.79097   0.66564   0.28443   0.00000  Uiso   1.00
H332   H     0.74985   0.59408   0.47528   0.00000  Uiso   1.00
H333   H     0.76087   0.57743   0.40472   0.00000  Uiso   1.00
H334   H     0.80238   0.55300   0.07027   0.00000  Uiso   1.00
H335   H     0.88788   0.47182   0.42778   0.00000  Uiso   1.00
H336   H     0.76608   0.58517   0.03541   0.00000  Uiso   1.00
H337   H     0.93732   0.42864   0.02328   0.00000  Uiso   1.00
O338   O     0.83333   0.50000   0.25000   0.00000  Uiso   1.00
O339   O     0.82360   0.45726   0.16625   0.00000  Uiso   1.00
O340   O     0.79354   0.53979   0.33749   0.00000  Uiso   1.00
O341   O     0.87755   0.50826   0.15877   0.00000  Uiso   1.00
O342   O     0.83865   0.49468   0.33749   0.00000  Uiso   1.00
O343   O     0.84515   0.41434   0.27821   0.00000  Uiso   1.00
O344   O     0.81247   0.59469   0.26767   0.00000  Uiso   1.00
O345   O     0.74119   0.46584   0.23607   0.00000  Uiso   1.00
O346   O     0.93452   0.52512   0.21805   0.00000  Uiso   1.00
O347   O     0.73656   0.52293   0.27820   0.00000  Uiso   1.00
O348   O     0.92106   0.48610   0.26768   0.00000  Uiso   1.00
O349   O     0.80467   0.40236   0.23607   0.00000  Uiso   1.00
O350   O     0.87104   0.58860   0.21805   0.00000  Uiso   1.00
Zn351  Zn    0.85910   0.47423   0.28278   0.00000  Uiso   1.00
Zn352  Zn    0.80125   0.45711   0.22258   0.00000  Uiso   1.00
Zn353  Zn    0.87833   0.52997   0.21188   0.00000  Uiso   1.00
Zn354  Zn    0.79465   0.53868   0.28277   0.00000  Uiso   1.00
C355   C     0.05269   0.82691   0.25848   0.00000  Uiso   1.00
C356   C     0.20982   0.81009   0.45928   0.00000  Uiso   1.00
C357   C     0.23204   0.79249   0.47938   0.00000  Uiso   1.00
C358   C     0.28101   0.84017   0.24126   0.00000  Uiso   1.00
C359   C     0.22072   0.79750   0.02015   0.00000  Uiso   1.00
C360   C     0.18639   0.82117   0.04167   0.00000  Uiso   1.00
C361   C     0.24381   0.77919   0.03960   0.00000  Uiso   1.00
C362   C     0.23313   0.78380   0.08030   0.00000  Uiso   1.00
C363   C     0.17328   0.82152   0.08302   0.00000  Uiso   1.00
C364   C     0.32690   0.84234   0.23772   0.00000  Uiso   1.00
C365   C     0.00734   0.82436   0.26259   0.00000  Uiso   1.00
C366   C     0.11058   0.89453   0.41950   0.00000  Uiso   1.00
C367   C     0.18086   0.98884   0.23810   0.00000  Uiso   1.00
C368   C     0.15164   0.67879   0.26217   0.00000  Uiso   1.00
C369   C     0.15596   0.72283   0.25891   0.00000  Uiso   1.00
C370   C     0.17685   0.94433   0.24136   0.00000  Uiso   1.00
C371   C     0.18840   0.81191   0.14417   0.00000  Uiso   1.00
C372   C     0.14547   0.85445   0.35609   0.00000  Uiso   1.00
C373   C     0.13761   0.86430   0.39872   0.00000  Uiso   1.00
C374   C     0.19764   0.80442   0.10183   0.00000  Uiso   1.00
C375   C     0.10442   0.90410   0.45970   0.00000  Uiso   1.00
C376   C     0.15826   0.84376   0.41859   0.00000  Uiso   1.00
C377   C     0.15390   0.85403   0.45892   0.00000  Uiso   1.00
C378   C     0.12575   0.88410   0.47954   0.00000  Uiso   1.00
C379   C     0.17646   0.83511   0.47931   0.00000  Uiso   1.00
C380   C     0.16668   0.84304   0.02093   0.00000  Uiso   1.00
C381   C     0.13984   0.87454   0.03997   0.00000  Uiso   1.00
C382   C     0.11972   0.89452   0.01962   0.00000  Uiso   1.00
F383   F     0.31332   0.80412   0.29268   0.00000  Uiso   1.00
F384   F     0.13600   0.83610   0.10561   0.00000  Uiso   1.00
H385   H     0.01657   0.85877   0.21446   0.00000  Uiso   1.00
H386   H     0.25218   0.77090   0.09504   0.00000  Uiso   1.00
H387   H     0.25821   0.77450   0.46280   0.00000  Uiso   1.00
H388   H     0.17694   0.81925   0.40198   0.00000  Uiso   1.00
H389   H     0.20784   0.66945   0.21596   0.00000  Uiso   1.00
H390   H     0.12430   0.99897   0.28443   0.00000  Uiso   1.00
H391   H     0.08319   0.92741   0.47528   0.00000  Uiso   1.00
H392   H     0.09420   0.91077   0.40472   0.00000  Uiso   1.00
H393   H     0.13571   0.88633   0.07027   0.00000  Uiso   1.00
H394   H     0.22122   0.80516   0.42778   0.00000  Uiso   1.00
H395   H     0.09941   0.91851   0.03541   0.00000  Uiso   1.00
H396   H     0.27066   0.76197   0.02328   0.00000  Uiso   1.00
O397   O     0.16667   0.83333   0.25000   0.00000  Uiso   1.00
O398   O     0.15693   0.79060   0.16625   0.00000  Uiso   1.00
O399   O     0.12687   0.87313   0.33749   0.00000  Uiso   1.00
O400   O     0.21088   0.84159   0.15877   0.00000  Uiso   1.00
O401   O     0.17198   0.82802   0.33749   0.00000  Uiso   1.00
O402   O     0.17849   0.74768   0.27821   0.00000  Uiso   1.00
O403   O     0.14581   0.92803   0.26767   0.00000  Uiso   1.00
O404   O     0.07452   0.79917   0.23607   0.00000  Uiso   1.00
O405   O     0.26785   0.85845   0.21805   0.00000  Uiso   1.00
O406   O     0.06990   0.85627   0.27820   0.00000  Uiso   1.00
O407   O     0.25440   0.81944   0.26768   0.00000  Uiso   1.00
O408   O     0.13800   0.73570   0.23607   0.00000  Uiso   1.00
O409   O     0.20437   0.92193   0.21805   0.00000  Uiso   1.00
Zn410  Zn    0.19244   0.80756   0.28278   0.00000  Uiso   1.00
Zn411  Zn    0.13459   0.79044   0.22258   0.00000  Uiso   1.00
Zn412  Zn    0.21166   0.86331   0.21188   0.00000  Uiso   1.00
Zn413  Zn    0.12798   0.87202   0.28277   0.00000  Uiso   1.00
C414   C     0.38603   0.82691   0.25848   0.00000  Uiso   1.00
C415   C     0.54315   0.81009   0.45928   0.00000  Uiso   1.00
C416   C     0.56538   0.79249   0.47938   0.00000  Uiso   1.00
C417   C     0.61434   0.84017   0.24126   0.00000  Uiso   1.00
C418   C     0.55405   0.79750   0.02015   0.00000  Uiso   1.00
C419   C     0.51972   0.82117   0.04167   0.00000  Uiso   1.00
C420   C     0.57714   0.77919   0.03960   0.00000  Uiso   1.00
C421   C     0.56646   0.78380   0.08030   0.00000  Uiso   1.00
C422   C     0.50661   0.82152   0.08302   0.00000  Uiso   1.00
C423   C     0.66023   0.84234   0.23772   0.00000  Uiso   1.00
C424   C     0.34068   0.82436   0.26259   0.00000  Uiso   1.00
C425   C     0.44392   0.89453   0.41950   0.00000  Uiso   1.00
C426   C     0.51419   0.98884   0.23810   0.00000  Uiso   1.00
C427   C     0.48497   0.67879   0.26217   0.00000  Uiso   1.00
C428   C     0.48929   0.72283   0.25891   0.00000  Uiso   1.00
C429   C     0.51019   0.94433   0.24136   0.00000  Uiso   1.00
C430   C     0.52174   0.81191   0.14417   0.00000  Uiso   1.00
C431   C     0.47880   0.85445   0.35609   0.00000  Uiso   1.00
C432   C     0.47094   0.86430   0.39872   0.00000  Uiso   1.00
C433   C     0.53098   0.80442   0.10183   0.00000  Uiso   1.00
C434   C     0.43775   0.90410   0.45970   0.00000  Uiso   1.00
C435   C     0.49159   0.84376   0.41859   0.00000  Uiso   1.00
C436   C     0.48724   0.85403   0.45892   0.00000  Uiso   1.00
C437   C     0.45908   0.88410   0.47954   0.00000  Uiso   1.00
C438   C     0.50979   0.83511   0.47931   0.00000  Uiso   1.00
C439   C     0.50001   0.84304   0.02093   0.00000  Uiso   1.00
C440   C     0.47317   0.87454   0.03997   0.00000  Uiso   1.00
C441   C     0.45305   0.89452   0.01962   0.00000  Uiso   1.00
F442   F     0.64665   0.80412   0.29268   0.00000  Uiso   1.00
F443   F     0.46934   0.83610   0.10561   0.00000  Uiso   1.00
H444   H     0.34990   0.85877   0.21446   0.00000  Uiso   1.00
H445   H     0.58551   0.77090   0.09504   0.00000  Uiso   1.00
H446   H     0.59154   0.77450   0.46280   0.00000  Uiso   1.00
H447   H     0.51028   0.81925   0.40198   0.00000  Uiso   1.00
H448   H     0.54118   0.66945   0.21596   0.00000  Uiso   1.00
H449   H     0.45764   0.99897   0.28443   0.00000  Uiso   1.00
H450   H     0.41652   0.92741   0.47528   0.00000  Uiso   1.00
H451   H     0.42754   0.91077   0.40472   0.00000  Uiso   1.00
H452   H     0.46905   0.88633   0.07027   0.00000  Uiso   1.00
H453   H     0.55455   0.80516   0.42778   0.00000  Uiso   1.00
H454   H     0.43275   0.91851   0.03541   0.00000  Uiso   1.00
H455   H     0.60399   0.76197   0.02328   0.00000  Uiso   1.00
O456   O     0.50000   0.83333   0.25000   0.00000  Uiso   1.00
O457   O     0.49027   0.79060   0.16625   0.00000  Uiso   1.00
O458   O     0.46020   0.87313   0.33749   0.00000  Uiso   1.00
O459   O     0.54421   0.84159   0.15877   0.00000  Uiso   1.00
O460   O     0.50532   0.82802   0.33749   0.00000  Uiso   1.00
O461   O     0.51182   0.74768   0.27821   0.00000  Uiso   1.00
O462   O     0.47914   0.92803   0.26767   0.00000  Uiso   1.00
O463   O     0.40785   0.79917   0.23607   0.00000  Uiso   1.00
O464   O     0.60119   0.85845   0.21805   0.00000  Uiso   1.00
O465   O     0.40323   0.85627   0.27820   0.00000  Uiso   1.00
O466   O     0.58773   0.81944   0.26768   0.00000  Uiso   1.00
O467   O     0.47133   0.73570   0.23607   0.00000  Uiso   1.00
O468   O     0.53771   0.92193   0.21805   0.00000  Uiso   1.00
Zn469  Zn    0.52577   0.80756   0.28278   0.00000  Uiso   1.00
Zn470  Zn    0.46792   0.79044   0.22258   0.00000  Uiso   1.00
Zn471  Zn    0.54500   0.86331   0.21188   0.00000  Uiso   1.00
Zn472  Zn    0.46131   0.87202   0.28277   0.00000  Uiso   1.00
C473   C     0.71936   0.82691   0.25848   0.00000  Uiso   1.00
C474   C     0.87648   0.81009   0.45928   0.00000  Uiso   1.00
C475   C     0.89871   0.79249   0.47938   0.00000  Uiso   1.00
C476   C     0.94768   0.84017   0.24126   0.00000  Uiso   1.00
C477   C     0.88738   0.79750   0.02015   0.00000  Uiso   1.00
C478   C     0.85305   0.82117   0.04167   0.00000  Uiso   1.00
C479   C     0.91047   0.77919   0.03960   0.00000  Uiso   1.00
C480   C     0.89979   0.78380   0.08030   0.00000  Uiso   1.00
C481   C     0.83994   0.82152   0.08302   0.00000  Uiso   1.00
C482   C     0.99356   0.84234   0.23772   0.00000  Uiso   1.00
C483   C     0.67401   0.82436   0.26259   0.00000  Uiso   1.00
C484   C     0.77725   0.89453   0.41950   0.00000  Uiso   1.00
C485   C     0.84753   0.98884   0.23810   0.00000  Uiso   1.00
C486   C     0.81831   0.67879   0.26217   0.00000  Uiso   1.00
C487   C     0.82262   0.72283   0.25891   0.00000  Uiso   1.00
C488   C     0.84352   0.94433   0.24136   0.00000  Uiso   1.00
C489   C     0.85507   0.81191   0.14417   0.00000  Uiso   1.00
C490   C     0.81214   0.85445   0.35609   0.00000  Uiso   1.00
C491   C     0.80428   0.86430   0.39872   0.00000  Uiso   1.00
C492   C     0.86431   0.80442   0.10183   0.00000  Uiso   1.00
C493   C     0.77109   0.90410   0.45970   0.00000  Uiso   1.00
C494   C     0.82492   0.84376   0.41859   0.00000  Uiso   1.00
C495   C     0.82057   0.85403   0.45892   0.00000  Uiso   1.00
C496   C     0.79241   0.88410   0.47954   0.00000  Uiso   1.00
C497   C     0.84313   0.83511   0.47931   0.00000  Uiso   1.00
C498   C     0.83335   0.84304   0.02093   0.00000  Uiso   1.00
C499   C     0.80650   0.87454   0.03997   0.00000  Uiso   1.00
C500   C     0.78638   0.89452   0.01962   0.00000  Uiso   1.00
F501   F     0.97998   0.80412   0.29268   0.00000  Uiso   1.00
F502   F     0.80267   0.83610   0.10561   0.00000  Uiso   1.00
H503   H     0.68323   0.85877   0.21446   0.00000  Uiso   1.00
H504   H     0.91884   0.77090   0.09504   0.00000  Uiso   1.00
H505   H     0.92488   0.77450   0.46280   0.00000  Uiso   1.00
H506   H     0.84361   0.81925   0.40198   0.00000  Uiso   1.00
H507   H     0.87451   0.66945   0.21596   0.00000  Uiso   1.00
H508   H     0.79097   0.99897   0.28443   0.00000  Uiso   1.00
H509   H     0.74985   0.92741   0.47528   0.00000  Uiso   1.00
H510   H     0.76087   0.91077   0.40472   0.00000  Uiso   1.00
H511   H     0.80238   0.88633   0.07027   0.00000  Uiso   1.00
H512   H     0.88788   0.80516   0.42778   0.00000  Uiso   1.00
H513   H     0.76608   0.91851   0.03541   0.00000  Uiso   1.00
H514   H     0.93732   0.76197   0.02328   0.00000  Uiso   1.00
O515   O     0.83333   0.83333   0.25000   0.00000  Uiso   1.00
O516   O     0.82360   0.79060   0.16625   0.00000  Uiso   1.00
O517   O     0.79354   0.87313   0.33749   0.00000  Uiso   1.00
O518   O     0.87755   0.84159   0.15877   0.00000  Uiso   1.00
O519   O     0.83865   0.82802   0.33749   0.00000  Uiso   1.00
O520   O     0.84515   0.74768   0.27821   0.00000  Uiso   1.00
O521   O     0.81247   0.92803   0.26767   0.00000  Uiso   1.00
O522   O     0.74119   0.79917   0.23607   0.00000  Uiso   1.00
O523   O     0.93452   0.85845   0.21805   0.00000  Uiso   1.00
O524   O     0.73656   0.85627   0.27820   0.00000  Uiso   1.00
O525   O     0.92106   0.81944   0.26768   0.00000  Uiso   1.00
O526   O     0.80467   0.73570   0.23607   0.00000  Uiso   1.00
O527   O     0.87104   0.92193   0.21805   0.00000  Uiso   1.00
Zn528  Zn    0.85910   0.80756   0.28278   0.00000  Uiso   1.00
Zn529  Zn    0.80125   0.79044   0.22258   0.00000  Uiso   1.00
Zn530  Zn    0.87833   0.86331   0.21188   0.00000  Uiso   1.00
Zn531  Zn    0.79465   0.87202   0.28277   0.00000  Uiso   1.00
C532   C     0.05269   0.16024   0.75848   0.00000  Uiso   1.00
C533   C     0.20982   0.14342   0.95928   0.00000  Uiso   1.00
C534   C     0.23204   0.12582   0.97938   0.00000  Uiso   1.00
C535   C     0.28101   0.17350   0.74126   0.00000  Uiso   1.00
C536   C     0.22072   0.13084   0.52015   0.00000  Uiso   1.00
C537   C     0.18639   0.15450   0.54167   0.00000  Uiso   1.00
C538   C     0.24381   0.11252   0.53960   0.00000  Uiso   1.00
C539   C     0.23313   0.11714   0.58030   0.00000  Uiso   1.00
C540   C     0.17328   0.15485   0.58302   0.00000  Uiso   1.00
C541   C     0.32690   0.17568   0.73772   0.00000  Uiso   1.00
C542   C     0.00734   0.15769   0.76259   0.00000  Uiso   1.00
C543   C     0.11058   0.22786   0.91950   0.00000  Uiso   1.00
C544   C     0.18086   0.32218   0.73810   0.00000  Uiso   1.00
C545   C     0.15164   0.01213   0.76217   0.00000  Uiso   1.00
C546   C     0.15596   0.05617   0.75891   0.00000  Uiso   1.00
C547   C     0.17685   0.27767   0.74136   0.00000  Uiso   1.00
C548   C     0.18840   0.14524   0.64417   0.00000  Uiso   1.00
C549   C     0.14547   0.18778   0.85609   0.00000  Uiso   1.00
C550   C     0.13761   0.19764   0.89872   0.00000  Uiso   1.00
C551   C     0.19764   0.13775   0.60183   0.00000  Uiso   1.00
C552   C     0.10442   0.23744   0.95970   0.00000  Uiso   1.00
C553   C     0.15826   0.17709   0.91859   0.00000  Uiso   1.00
C554   C     0.15390   0.18736   0.95892   0.00000  Uiso   1.00
C555   C     0.12575   0.21743   0.97954   0.00000  Uiso   1.00
C556   C     0.17646   0.16844   0.97931   0.00000  Uiso   1.00
C557   C     0.16668   0.17638   0.52093   0.00000  Uiso   1.00
C558   C     0.13984   0.20787   0.53997   0.00000  Uiso   1.00
C559   C     0.11972   0.22785   0.51962   0.00000  Uiso   1.00
F560   F     0.31332   0.13745   0.79268   0.00000  Uiso   1.00
F561   F     0.13600   0.16943   0.60561   0.00000  Uiso   1.00
H562   H     0.01657   0.19210   0.71446   0.00000  Uiso   1.00
H563   H     0.25218   0.10423   0.59504   0.00000  Uiso   1.00
H564   H     0.25821   0.10783   0.96280   0.00000  Uiso   1.00
H565   H     0.17694   0.15259   0.90198   0.00000  Uiso   1.00
H566   H     0.20784   0.00278   0.71596   0.00000  Uiso   1.00
H567   H     0.12430   0.33230   0.78443   0.00000  Uiso   1.00
H568   H     0.08319   0.26075   0.97528   0.00000  Uiso   1.00
H569   H     0.09420   0.24410   0.90472   0.00000  Uiso   1.00
H570   H     0.13571   0.21966   0.57027   0.00000  Uiso   1.00
H571   H     0.22122   0.13849   0.92778   0.00000  Uiso   1.00
H572   H     0.09941   0.25184   0.53541   0.00000  Uiso   1.00
H573   H     0.27066   0.09530   0.52328   0.00000  Uiso   1.00
O574   O     0.16667   0.16667   0.75000   0.00000  Uiso   1.00
O575   O     0.15693   0.12393   0.66625   0.00000  Uiso   1.00
O576   O     0.12687   0.20646   0.83749   0.00000  Uiso   1.00
O577   O     0.21088   0.17493   0.65877   0.00000  Uiso   1.00
O578   O     0.17198   0.16135   0.83749   0.00000  Uiso   1.00
O579   O     0.17849   0.08101   0.77821   0.00000  Uiso   1.00
O580   O     0.14581   0.26136   0.76767   0.00000  Uiso   1.00
O581   O     0.07452   0.13251   0.73607   0.00000  Uiso   1.00
O582   O     0.26785   0.19179   0.71805   0.00000  Uiso   1.00
O583   O     0.06990   0.18960   0.77820   0.00000  Uiso   1.00
O584   O     0.25440   0.15277   0.76768   0.00000  Uiso   1.00
O585   O     0.13800   0.06903   0.73607   0.00000  Uiso   1.00
O586   O     0.20437   0.25527   0.71805   0.00000  Uiso   1.00
Zn587  Zn    0.19244   0.14090   0.78278   0.00000  Uiso   1.00
Zn588  Zn    0.13459   0.12378   0.72258   0.00000  Uiso   1.00
Zn589  Zn    0.21166   0.19664   0.71188   0.00000  Uiso   1.00
Zn590  Zn    0.12798   0.20535   0.78277   0.00000  Uiso   1.00
C591   C     0.38603   0.16024   0.75848   0.00000  Uiso   1.00
C592   C     0.54315   0.14342   0.95928   0.00000  Uiso   1.00
C593   C     0.56538   0.12582   0.97938   0.00000  Uiso   1.00
C594   C     0.61434   0.17350   0.74126   0.00000  Uiso   1.00
C595   C     0.55405   0.13084   0.52015   0.00000  Uiso   1.00
C596   C     0.51972   0.15450   0.54167   0.00000  Uiso   1.00
C597   C     0.57714   0.11252   0.53960   0.00000  Uiso   1.00
C598   C     0.56646   0.11714   0.58030   0.00000  Uiso   1.00
C599   C     0.50661   0.15485   0.58302   0.00000  Uiso   1.00
C600   C     0.66023   0.17568   0.73772   0.00000  Uiso   1.00
C601   C     0.34068   0.15769   0.76259   0.00000  Uiso   1.00
C602   C     0.44392   0.22786   0.91950   0.00000  Uiso   1.00
C603   C     0.51419   0.32218   0.73810   0.00000  Uiso   1.00
C604   C     0.48497   0.01213   0.76217   0.00000  Uiso   1.00
C605   C     0.48929   0.05617   0.75891   0.00000  Uiso   1.00
C606   C     0.51019   0.27767   0.74136   0.00000  Uiso   1.00
C607   C     0.52174   0.14524   0.64417   0.00000  Uiso   1.00
C608   C     0.47880   0.18778   0.85609   0.00000  Uiso   1.00
C609   C     0.47094   0.19764   0.89872   0.00000  Uiso   1.00
C610   C     0.53098   0.13775   0.60183   0.00000  Uiso   1.00
C611   C     0.43775   0.23744   0.95970   0.00000  Uiso   1.00
C612   C     0.49159   0.17709   0.91859   0.00000  Uiso   1.00
C613   C     0.48724   0.18736   0.95892   0.00000  Uiso   1.00
C614   C     0.45908   0.21743   0.97954   0.00000  Uiso   1.00
C615   C     0.50979   0.16844   0.97931   0.00000  Uiso   1.00
C616   C     0.50001   0.17638   0.52093   0.00000  Uiso   1.00
C617   C     0.47317   0.20787   0.53997   0.00000  Uiso   1.00
C618   C     0.45305   0.22785   0.51962   0.00000  Uiso   1.00
F619   F     0.64665   0.13745   0.79268   0.00000  Uiso   1.00
F620   F     0.46934   0.16943   0.60561   0.00000  Uiso   1.00
H621   H     0.34990   0.19210   0.71446   0.00000  Uiso   1.00
H622   H     0.58551   0.10423   0.59504   0.00000  Uiso   1.00
H623   H     0.59154   0.10783   0.96280   0.00000  Uiso   1.00
H624   H     0.51028   0.15259   0.90198   0.00000  Uiso   1.00
H625   H     0.54118   0.00278   0.71596   0.00000  Uiso   1.00
H626   H     0.45764   0.33230   0.78443   0.00000  Uiso   1.00
H627   H     0.41652   0.26075   0.97528   0.00000  Uiso   1.00
H628   H     0.42754   0.24410   0.90472   0.00000  Uiso   1.00
H629   H     0.46905   0.21966   0.57027   0.00000  Uiso   1.00
H630   H     0.55455   0.13849   0.92778   0.00000  Uiso   1.00
H631   H     0.43275   0.25184   0.53541   0.00000  Uiso   1.00
H632   H     0.60399   0.09530   0.52328   0.00000  Uiso   1.00
O633   O     0.50000   0.16667   0.75000   0.00000  Uiso   1.00
O634   O     0.49027   0.12393   0.66625   0.00000  Uiso   1.00
O635   O     0.46020   0.20646   0.83749   0.00000  Uiso   1.00
O636   O     0.54421   0.17493   0.65877   0.00000  Uiso   1.00
O637   O     0.50532   0.16135   0.83749   0.00000  Uiso   1.00
O638   O     0.51182   0.08101   0.77821   0.00000  Uiso   1.00
O639   O     0.47914   0.26136   0.76767   0.00000  Uiso   1.00
O640   O     0.40785   0.13251   0.73607   0.00000  Uiso   1.00
O641   O     0.60119   0.19179   0.71805   0.00000  Uiso   1.00
O642   O     0.40323   0.18960   0.77820   0.00000  Uiso   1.00
O643   O     0.58773   0.15277   0.76768   0.00000  Uiso   1.00
O644   O     0.47133   0.06903   0.73607   0.00000  Uiso   1.00
O645   O     0.53771   0.25527   0.71805   0.00000  Uiso   1.00
Zn646  Zn    0.52577   0.14090   0.78278   0.00000  Uiso   1.00
Zn647  Zn    0.46792   0.12378   0.72258   0.00000  Uiso   1.00
Zn648  Zn    0.54500   0.19664   0.71188   0.00000  Uiso   1.00
Zn649  Zn    0.46131   0.20535   0.78277   0.00000  Uiso   1.00
C650   C     0.71936   0.16024   0.75848   0.00000  Uiso   1.00
C651   C     0.87648   0.14342   0.95928   0.00000  Uiso   1.00
C652   C     0.89871   0.12582   0.97938   0.00000  Uiso   1.00
C653   C     0.94768   0.17350   0.74126   0.00000  Uiso   1.00
C654   C     0.88738   0.13084   0.52015   0.00000  Uiso   1.00
C655   C     0.85305   0.15450   0.54167   0.00000  Uiso   1.00
C656   C     0.91047   0.11252   0.53960   0.00000  Uiso   1.00
C657   C     0.89979   0.11714   0.58030   0.00000  Uiso   1.00
C658   C     0.83994   0.15485   0.58302   0.00000  Uiso   1.00
C659   C     0.99356   0.17568   0.73772   0.00000  Uiso   1.00
C660   C     0.67401   0.15769   0.76259   0.00000  Uiso   1.00
C661   C     0.77725   0.22786   0.91950   0.00000  Uiso   1.00
C662   C     0.84753   0.32218   0.73810   0.00000  Uiso   1.00
C663   C     0.81831   0.01213   0.76217   0.00000  Uiso   1.00
C664   C     0.82262   0.05617   0.75891   0.00000  Uiso   1.00
C665   C     0.84352   0.27767   0.74136   0.00000  Uiso   1.00
C666   C     0.85507   0.14524   0.64417   0.00000  Uiso   1.00
C667   C     0.81214   0.18778   0.85609   0.00000  Uiso   1.00
C668   C     0.80428   0.19764   0.89872   0.00000  Uiso   1.00
C669   C     0.86431   0.13775   0.60183   0.00000  Uiso   1.00
C670   C     0.77109   0.23744   0.95970   0.00000  Uiso   1.00
C671   C     0.82492   0.17709   0.91859   0.00000  Uiso   1.00
C672   C     0.82057   0.18736   0.95892   0.00000  Uiso   1.00
C673   C     0.79241   0.21743   0.97954   0.00000  Uiso   1.00
C674   C     0.84313   0.16844   0.97931   0.00000  Uiso   1.00
C675   C     0.83335   0.17638   0.52093   0.00000  Uiso   1.00
C676   C     0.80650   0.20787   0.53997   0.00000  Uiso   1.00
C677   C     0.78638   0.22785   0.51962   0.00000  Uiso   1.00
F678   F     0.97998   0.13745   0.79268   0.00000  Uiso   1.00
F679   F     0.80267   0.16943   0.60561   0.00000  Uiso   1.00
H680   H     0.68323   0.19210   0.71446   0.00000  Uiso   1.00
H681   H     0.91884   0.10423   0.59504   0.00000  Uiso   1.00
H682   H     0.92488   0.10783   0.96280   0.00000  Uiso   1.00
H683   H     0.84361   0.15259   0.90198   0.00000  Uiso   1.00
H684   H     0.87451   0.00278   0.71596   0.00000  Uiso   1.00
H685   H     0.79097   0.33230   0.78443   0.00000  Uiso   1.00
H686   H     0.74985   0.26075   0.97528   0.00000  Uiso   1.00
H687   H     0.76087   0.24410   0.90472   0.00000  Uiso   1.00
H688   H     0.80238   0.21966   0.57027   0.00000  Uiso   1.00
H689   H     0.88788   0.13849   0.92778   0.00000  Uiso   1.00
H690   H     0.76608   0.25184   0.53541   0.00000  Uiso   1.00
H691   H     0.93732   0.09530   0.52328   0.00000  Uiso   1.00
O692   O     0.83333   0.16667   0.75000   0.00000  Uiso   1.00
O693   O     0.82360   0.12393   0.66625   0.00000  Uiso   1.00
O694   O     0.79354   0.20646   0.83749   0.00000  Uiso   1.00
O695   O     0.87755   0.17493   0.65877   0.00000  Uiso   1.00
O696   O     0.83865   0.16135   0.83749   0.00000  Uiso   1.00
O697   O     0.84515   0.08101   0.77821   0.00000  Uiso   1.00
O698   O     0.81247   0.26136   0.76767   0.00000  Uiso   1.00
O699   O     0.74119   0.13251   0.73607   0.00000  Uiso   1.00
O700   O     0.93452   0.19179   0.71805   0.00000  Uiso   1.00
O701   O     0.73656   0.18960   0.77820   0.00000  Uiso   1.00
O702   O     0.92106   0.15277   0.76768   0.00000  Uiso   1.00
O703   O     0.80467   0.06903   0.73607   0.00000  Uiso   1.00
O704   O     0.87104   0.25527   0.71805   0.00000  Uiso   1.00
Zn705  Zn    0.85910   0.14090   0.78278   0.00000  Uiso   1.00
Zn706  Zn    0.80125   0.12378   0.72258   0.00000  Uiso   1.00
Zn707  Zn    0.87833   0.19664   0.71188   0.00000  Uiso   1.00
Zn708  Zn    0.79465   0.20535   0.78277   0.00000  Uiso   1.00
C709   C     0.05269   0.49357   0.75848   0.00000  Uiso   1.00
C710   C     0.20982   0.47675   0.95928   0.00000  Uiso   1.00
C711   C     0.23204   0.45915   0.97938   0.00000  Uiso   1.00
C712   C     0.28101   0.50684   0.74126   0.00000  Uiso   1.00
C713   C     0.22072   0.46417   0.52015   0.00000  Uiso   1.00
C714   C     0.18639   0.48784   0.54167   0.00000  Uiso   1.00
C715   C     0.24381   0.44586   0.53960   0.00000  Uiso   1.00
C716   C     0.23313   0.45047   0.58030   0.00000  Uiso   1.00
C717   C     0.17328   0.48819   0.58302   0.00000  Uiso   1.00
C718   C     0.32690   0.50901   0.73772   0.00000  Uiso   1.00
C719   C     0.00734   0.49103   0.76259   0.00000  Uiso   1.00
C720   C     0.11058   0.56119   0.91950   0.00000  Uiso   1.00
C721   C     0.18086   0.65551   0.73810   0.00000  Uiso   1.00
C722   C     0.15164   0.34546   0.76217   0.00000  Uiso   1.00
C723   C     0.15596   0.38950   0.75891   0.00000  Uiso   1.00
C724   C     0.17685   0.61100   0.74136   0.00000  Uiso   1.00
C725   C     0.18840   0.47858   0.64417   0.00000  Uiso   1.00
C726   C     0.14547   0.52112   0.85609   0.00000  Uiso   1.00
C727   C     0.13761   0.53097   0.89872   0.00000  Uiso   1.00
C728   C     0.19764   0.47108   0.60183   0.00000  Uiso   1.00
C729   C     0.10442   0.57077   0.95970   0.00000  Uiso   1.00
C730   C     0.15826   0.51042   0.91859   0.00000  Uiso   1.00
C731   C     0.15390   0.52069   0.95892   0.00000  Uiso   1.00
C732   C     0.12575   0.55077   0.97954   0.00000  Uiso   1.00
C733   C     0.17646   0.50177   0.97931   0.00000  Uiso   1.00
C734   C     0.16668   0.50971   0.52093   0.00000  Uiso   1.00
C735   C     0.13984   0.54121   0.53997   0.00000  Uiso   1.00
C736   C     0.11972   0.56118   0.51962   0.00000  Uiso   1.00
F737   F     0.31332   0.47079   0.79268   0.00000  Uiso   1.00
F738   F     0.13600   0.50277   0.60561   0.00000  Uiso   1.00
H739   H     0.01657   0.52544   0.71446   0.00000  Uiso   1.00
H740   H     0.25218   0.43756   0.59504   0.00000  Uiso   1.00
H741   H     0.25821   0.44117   0.96280   0.00000  Uiso   1.00
H742   H     0.17694   0.48592   0.90198   0.00000  Uiso   1.00
H743   H     0.20784   0.33611   0.71596   0.00000  Uiso   1.00
H744   H     0.12430   0.66564   0.78443   0.00000  Uiso   1.00
H745   H     0.08319   0.59408   0.97528   0.00000  Uiso   1.00
H746   H     0.09420   0.57743   0.90472   0.00000  Uiso   1.00
H747   H     0.13571   0.55300   0.57027   0.00000  Uiso   1.00
H748   H     0.22122   0.47182   0.92778   0.00000  Uiso   1.00
H749   H     0.09941   0.58517   0.53541   0.00000  Uiso   1.00
H750   H     0.27066   0.42864   0.52328   0.00000  Uiso   1.00
O751   O     0.16667   0.50000   0.75000   0.00000  Uiso   1.00
O752   O     0.15693   0.45726   0.66625   0.00000  Uiso   1.00
O753   O     0.12687   0.53979   0.83749   0.00000  Uiso   1.00
O754   O     0.21088   0.50826   0.65877   0.00000  Uiso   1.00
O755   O     0.17198   0.49468   0.83749   0.00000  Uiso   1.00
O756   O     0.17849   0.41434   0.77821   0.00000  Uiso   1.00
O757   O     0.14581   0.59469   0.76767   0.00000  Uiso   1.00
O758   O     0.07452   0.46584   0.73607   0.00000  Uiso   1.00
O759   O     0.26785   0.52512   0.71805   0.00000  Uiso   1.00
O760   O     0.06990   0.52293   0.77820   0.00000  Uiso   1.00
O761   O     0.25440   0.48610   0.76768   0.00000  Uiso   1.00
O762   O     0.13800   0.40236   0.73607   0.00000  Uiso   1.00
O763   O     0.20437   0.58860   0.71805   0.00000  Uiso   1.00
Zn764  Zn    0.19244   0.47423   0.78278   0.00000  Uiso   1.00
Zn765  Zn    0.13459   0.45711   0.72258   0.00000  Uiso   1.00
Zn766  Zn    0.21166   0.52997   0.71188   0.00000  Uiso   1.00
Zn767  Zn    0.12798   0.53868   0.78277   0.00000  Uiso   1.00
C768   C     0.38603   0.49357   0.75848   0.00000  Uiso   1.00
C769   C     0.54315   0.47675   0.95928   0.00000  Uiso   1.00
C770   C     0.56538   0.45915   0.97938   0.00000  Uiso   1.00
C771   C     0.61434   0.50684   0.74126   0.00000  Uiso   1.00
C772   C     0.55405   0.46417   0.52015   0.00000  Uiso   1.00
C773   C     0.51972   0.48784   0.54167   0.00000  Uiso   1.00
C774   C     0.57714   0.44586   0.53960   0.00000  Uiso   1.00
C775   C     0.56646   0.45047   0.58030   0.00000  Uiso   1.00
C776   C     0.50661   0.48819   0.58302   0.00000  Uiso   1.00
C777   C     0.66023   0.50901   0.73772   0.00000  Uiso   1.00
C778   C     0.34068   0.49103   0.76259   0.00000  Uiso   1.00
C779   C     0.44392   0.56119   0.91950   0.00000  Uiso   1.00
C780   C     0.51419   0.65551   0.73810   0.00000  Uiso   1.00
C781   C     0.48497   0.34546   0.76217   0.00000  Uiso   1.00
C782   C     0.48929   0.38950   0.75891   0.00000  Uiso   1.00
C783   C     0.51019   0.61100   0.74136   0.00000  Uiso   1.00
C784   C     0.52174   0.47858   0.64417   0.00000  Uiso   1.00
C785   C     0.47880   0.52112   0.85609   0.00000  Uiso   1.00
C786   C     0.47094   0.53097   0.89872   0.00000  Uiso   1.00
C787   C     0.53098   0.47108   0.60183   0.00000  Uiso   1.00
C788   C     0.43775   0.57077   0.95970   0.00000  Uiso   1.00
C789   C     0.49159   0.51042   0.91859   0.00000  Uiso   1.00
C790   C     0.48724   0.52069   0.95892   0.00000  Uiso   1.00
C791   C     0.45908   0.55077   0.97954   0.00000  Uiso   1.00
C792   C     0.50979   0.50177   0.97931   0.00000  Uiso   1.00
C793   C     0.50001   0.50971   0.52093   0.00000  Uiso   1.00
C794   C     0.47317   0.54121   0.53997   0.00000  Uiso   1.00
C795   C     0.45305   0.56118   0.51962   0.00000  Uiso   1.00
F796   F     0.64665   0.47079   0.79268   0.00000  Uiso   1.00
F797   F     0.46934   0.50277   0.60561   0.00000  Uiso   1.00
H798   H     0.34990   0.52544   0.71446   0.00000  Uiso   1.00
H799   H     0.58551   0.43756   0.59504   0.00000  Uiso   1.00
H800   H     0.59154   0.44117   0.96280   0.00000  Uiso   1.00
H801   H     0.51028   0.48592   0.90198   0.00000  Uiso   1.00
H802   H     0.54118   0.33611   0.71596   0.00000  Uiso   1.00
H803   H     0.45764   0.66564   0.78443   0.00000  Uiso   1.00
H804   H     0.41652   0.59408   0.97528   0.00000  Uiso   1.00
H805   H     0.42754   0.57743   0.90472   0.00000  Uiso   1.00
H806   H     0.46905   0.55300   0.57027   0.00000  Uiso   1.00
H807   H     0.55455   0.47182   0.92778   0.00000  Uiso   1.00
H808   H     0.43275   0.58517   0.53541   0.00000  Uiso   1.00
H809   H     0.60399   0.42864   0.52328   0.00000  Uiso   1.00
O810   O     0.50000   0.50000   0.75000   0.00000  Uiso   1.00
O811   O     0.49027   0.45726   0.66625   0.00000  Uiso   1.00
O812   O     0.46020   0.53979   0.83749   0.00000  Uiso   1.00
O813   O     0.54421   0.50826   0.65877   0.00000  Uiso   1.00
O814   O     0.50532   0.49468   0.83749   0.00000  Uiso   1.00
O815   O     0.51182   0.41434   0.77821   0.00000  Uiso   1.00
O816   O     0.47914   0.59469   0.76767   0.00000  Uiso   1.00
O817   O     0.40785   0.46584   0.73607   0.00000  Uiso   1.00
O818   O     0.60119   0.52512   0.71805   0.00000  Uiso   1.00
O819   O     0.40323   0.52293   0.77820   0.00000  Uiso   1.00
O820   O     0.58773   0.48610   0.76768   0.00000  Uiso   1.00
O821   O     0.47133   0.40236   0.73607   0.00000  Uiso   1.00
O822   O     0.53771   0.58860   0.71805   0.00000  Uiso   1.00
Zn823  Zn    0.52577   0.47423   0.78278   0.00000  Uiso   1.00
Zn824  Zn    0.46792   0.45711   0.72258   0.00000  Uiso   1.00
Zn825  Zn    0.54500   0.52997   0.71188   0.00000  Uiso   1.00
Zn826  Zn    0.46131   0.53868   0.78277   0.00000  Uiso   1.00
C827   C     0.71936   0.49357   0.75848   0.00000  Uiso   1.00
C828   C     0.87648   0.47675   0.95928   0.00000  Uiso   1.00
C829   C     0.89871   0.45915   0.97938   0.00000  Uiso   1.00
C830   C     0.94768   0.50684   0.74126   0.00000  Uiso   1.00
C831   C     0.88738   0.46417   0.52015   0.00000  Uiso   1.00
C832   C     0.85305   0.48784   0.54167   0.00000  Uiso   1.00
C833   C     0.91047   0.44586   0.53960   0.00000  Uiso   1.00
C834   C     0.89979   0.45047   0.58030   0.00000  Uiso   1.00
C835   C     0.83994   0.48819   0.58302   0.00000  Uiso   1.00
C836   C     0.99356   0.50901   0.73772   0.00000  Uiso   1.00
C837   C     0.67401   0.49103   0.76259   0.00000  Uiso   1.00
C838   C     0.77725   0.56119   0.91950   0.00000  Uiso   1.00
C839   C     0.84753   0.65551   0.73810   0.00000  Uiso   1.00
C840   C     0.81831   0.34546   0.76217   0.00000  Uiso   1.00
C841   C     0.82262   0.38950   0.75891   0.00000  Uiso   1.00
C842   C     0.84352   0.61100   0.74136   0.00000  Uiso   1.00
C843   C     0.85507   0.47858   0.64417   0.00000  Uiso   1.00
C844   C     0.81214   0.52112   0.85609   0.00000  Uiso   1.00
C845   C     0.80428   0.53097   0.89872   0.00000  Uiso   1.00
C846   C     0.86431   0.47108   0.60183   0.00000  Uiso   1.00
C847   C     0.77109   0.57077   0.95970   0.00000  Uiso   1.00
C848   C     0.82492   0.51042   0.91859   0.00000  Uiso   1.00
C849   C     0.82057   0.52069   0.95892   0.00000  Uiso   1.00
C850   C     0.79241   0.55077   0.97954   0.00000  Uiso   1.00
C851   C     0.84313   0.50177   0.97931   0.00000  Uiso   1.00
C852   C     0.83335   0.50971   0.52093   0.00000  Uiso   1.00
C853   C     0.80650   0.54121   0.53997   0.00000  Uiso   1.00
C854   C     0.78638   0.56118   0.51962   0.00000  Uiso   1.00
F855   F     0.97998   0.47079   0.79268   0.00000  Uiso   1.00
F856   F     0.80267   0.50277   0.60561   0.00000  Uiso   1.00
H857   H     0.68323   0.52544   0.71446   0.00000  Uiso   1.00
H858   H     0.91884   0.43756   0.59504   0.00000  Uiso   1.00
H859   H     0.92488   0.44117   0.96280   0.00000  Uiso   1.00
H860   H     0.84361   0.48592   0.90198   0.00000  Uiso   1.00
H861   H     0.87451   0.33611   0.71596   0.00000  Uiso   1.00
H862   H     0.79097   0.66564   0.78443   0.00000  Uiso   1.00
H863   H     0.74985   0.59408   0.97528   0.00000  Uiso   1.00
H864   H     0.76087   0.57743   0.90472   0.00000  Uiso   1.00
H865   H     0.80238   0.55300   0.57027   0.00000  Uiso   1.00
H866   H     0.88788   0.47182   0.92778   0.00000  Uiso   1.00
H867   H     0.76608   0.58517   0.53541   0.00000  Uiso   1.00
H868   H     0.93732   0.42864   0.52328   0.00000  Uiso   1.00
O869   O     0.83333   0.50000   0.75000   0.00000  Uiso   1.00
O870   O     0.82360   0.45726   0.66625   0.00000  Uiso   1.00
O871   O     0.79354   0.53979   0.83749   0.00000  Uiso   1.00
O872   O     0.87755   0.50826   0.65877   0.00000  Uiso   1.00
O873   O     0.83865   0.49468   0.83749   0.00000  Uiso   1.00
O874   O     0.84515   0.41434   0.77821   0.00000  Uiso   1.00
O875   O     0.81247   0.59469   0.76767   0.00000  Uiso   1.00
O876   O     0.74119   0.46584   0.73607   0.00000  Uiso   1.00
O877   O     0.93452   0.52512   0.71805   0.00000  Uiso   1.00
O878   O     0.73656   0.52293   0.77820   0.00000  Uiso   1.00
O879   O     0.92106   0.48610   0.76768   0.00000  Uiso   1.00
O880   O     0.80467   0.40236   0.73607   0.00000  Uiso   1.00
O881   O     0.87104   0.58860   0.71805   0.00000  Uiso   1.00
Zn882  Zn    0.85910   0.47423   0.78278   0.00000  Uiso   1.00
Zn883  Zn    0.80125   0.45711   0.72258   0.00000  Uiso   1.00
Zn884  Zn    0.87833   0.52997   0.71188   0.00000  Uiso   1.00
Zn885  Zn    0.79465   0.53868   0.78277   0.00000  Uiso   1.00
C886   C     0.05269   0.82691   0.75848   0.00000  Uiso   1.00
C887   C     0.20982   0.81009   0.95928   0.00000  Uiso   1.00
C888   C     0.23204   0.79249   0.97938   0.00000  Uiso   1.00
C889   C     0.28101   0.84017   0.74126   0.00000  Uiso   1.00
C890   C     0.22072   0.79750   0.52015   0.00000  Uiso   1.00
C891   C     0.18639   0.82117   0.54167   0.00000  Uiso   1.00
C892   C     0.24381   0.77919   0.53960   0.00000  Uiso   1.00
C893   C     0.23313   0.78380   0.58030   0.00000  Uiso   1.00
C894   C     0.17328   0.82152   0.58302   0.00000  Uiso   1.00
C895   C     0.32690   0.84234   0.73772   0.00000  Uiso   1.00
C896   C     0.00734   0.82436   0.76259   0.00000  Uiso   1.00
C897   C     0.11058   0.89453   0.91950   0.00000  Uiso   1.00
C898   C     0.18086   0.98884   0.73810   0.00000  Uiso   1.00
C899   C     0.15164   0.67879   0.76217   0.00000  Uiso   1.00
C900   C     0.15596   0.72283   0.75891   0.00000  Uiso   1.00
C901   C     0.17685   0.94433   0.74136   0.00000  Uiso   1.00
C902   C     0.18840   0.81191   0.64417   0.00000  Uiso   1.00
C903   C     0.14547   0.85445   0.85609   0.00000  Uiso   1.00
C904   C     0.13761   0.86430   0.89872   0.00000  Uiso   1.00
C905   C     0.19764   0.80442   0.60183   0.00000  Uiso   1.00
C906   C     0.10442   0.90410   0.95970   0.00000  Uiso   1.00
C907   C     0.15826   0.84376   0.91859   0.00000  Uiso   1.00
C908   C     0.15390   0.85403   0.95892   0.00000  Uiso   1.00
C909   C     0.12575   0.88410   0.97954   0.00000  Uiso   1.00
C910   C     0.17646   0.83511   0.97931   0.00000  Uiso   1.00
C911   C     0.16668   0.84304   0.52093   0.00000  Uiso   1.00
C912   C     0.13984   0.87454   0.53997   0.00000  Uiso   1.00
C913   C     0.11972   0.89452   0.51962   0.00000  Uiso   1.00
F914   F     0.31332   0.80412   0.79268   0.00000  Uiso   1.00
F915   F     0.13600   0.83610   0.60561   0.00000  Uiso   1.00
H916   H     0.01657   0.85877   0.71446   0.00000  Uiso   1.00
H917   H     0.25218   0.77090   0.59504   0.00000  Uiso   1.00
H918   H     0.25821   0.77450   0.96280   0.00000  Uiso   1.00
H919   H     0.17694   0.81925   0.90198   0.00000  Uiso   1.00
H920   H     0.20784   0.66945   0.71596   0.00000  Uiso   1.00
H921   H     0.12430   0.99897   0.78443   0.00000  Uiso   1.00
H922   H     0.08319   0.92741   0.97528   0.00000  Uiso   1.00
H923   H     0.09420   0.91077   0.90472   0.00000  Uiso   1.00
H924   H     0.13571   0.88633   0.57027   0.00000  Uiso   1.00
H925   H     0.22122   0.80516   0.92778   0.00000  Uiso   1.00
H926   H     0.09941   0.91851   0.53541   0.00000  Uiso   1.00
H927   H     0.27066   0.76197   0.52328   0.00000  Uiso   1.00
O928   O     0.16667   0.83333   0.75000   0.00000  Uiso   1.00
O929   O     0.15693   0.79060   0.66625   0.00000  Uiso   1.00
O930   O     0.12687   0.87313   0.83749   0.00000  Uiso   1.00
O931   O     0.21088   0.84159   0.65877   0.00000  Uiso   1.00
O932   O     0.17198   0.82802   0.83749   0.00000  Uiso   1.00
O933   O     0.17849   0.74768   0.77821   0.00000  Uiso   1.00
O934   O     0.14581   0.92803   0.76767   0.00000  Uiso   1.00
O935   O     0.07452   0.79917   0.73607   0.00000  Uiso   1.00
O936   O     0.26785   0.85845   0.71805   0.00000  Uiso   1.00
O937   O     0.06990   0.85627   0.77820   0.00000  Uiso   1.00
O938   O     0.25440   0.81944   0.76768   0.00000  Uiso   1.00
O939   O     0.13800   0.73570   0.73607   0.00000  Uiso   1.00
O940   O     0.20437   0.92193   0.71805   0.00000  Uiso   1.00
Zn941  Zn    0.19244   0.80756   0.78278   0.00000  Uiso   1.00
Zn942  Zn    0.13459   0.79044   0.72258   0.00000  Uiso   1.00
Zn943  Zn    0.21166   0.86331   0.71188   0.00000  Uiso   1.00
Zn944  Zn    0.12798   0.87202   0.78277   0.00000  Uiso   1.00
C945   C     0.38603   0.82691   0.75848   0.00000  Uiso   1.00
C946   C     0.54315   0.81009   0.95928   0.00000  Uiso   1.00
C947   C     0.56538   0.79249   0.97938   0.00000  Uiso   1.00
C948   C     0.61434   0.84017   0.74126   0.00000  Uiso   1.00
C949   C     0.55405   0.79750   0.52015   0.00000  Uiso   1.00
C950   C     0.51972   0.82117   0.54167   0.00000  Uiso   1.00
C951   C     0.57714   0.77919   0.53960   0.00000  Uiso   1.00
C952   C     0.56646   0.78380   0.58030   0.00000  Uiso   1.00
C953   C     0.50661   0.82152   0.58302   0.00000  Uiso   1.00
C954   C     0.66023   0.84234   0.73772   0.00000  Uiso   1.00
C955   C     0.34068   0.82436   0.76259   0.00000  Uiso   1.00
C956   C     0.44392   0.89453   0.91950   0.00000  Uiso   1.00
C957   C     0.51419   0.98884   0.73810   0.00000  Uiso   1.00
C958   C     0.48497   0.67879   0.76217   0.00000  Uiso   1.00
C959   C     0.48929   0.72283   0.75891   0.00000  Uiso   1.00
C960   C     0.51019   0.94433   0.74136   0.00000  Uiso   1.00
C961   C     0.52174   0.81191   0.64417   0.00000  Uiso   1.00
C962   C     0.47880   0.85445   0.85609   0.00000  Uiso   1.00
C963   C     0.47094   0.86430   0.89872   0.00000  Uiso   1.00
C964   C     0.53098   0.80442   0.60183   0.00000  Uiso   1.00
C965   C     0.43775   0.90410   0.95970   0.00000  Uiso   1.00
C966   C     0.49159   0.84376   0.91859   0.00000  Uiso   1.00
C967   C     0.48724   0.85403   0.95892   0.00000  Uiso   1.00
C968   C     0.45908   0.88410   0.97954   0.00000  Uiso   1.00
C969   C     0.50979   0.83511   0.97931   0.00000  Uiso   1.00
C970   C     0.50001   0.84304   0.52093   0.00000  Uiso   1.00
C971   C     0.47317   0.87454   0.53997   0.00000  Uiso   1.00
C972   C     0.45305   0.89452   0.51962   0.00000  Uiso   1.00
F973   F     0.64665   0.80412   0.79268   0.00000  Uiso   1.00
F974   F     0.46934   0.83610   0.60561   0.00000  Uiso   1.00
H975   H     0.34990   0.85877   0.71446   0.00000  Uiso   1.00
H976   H     0.58551   0.77090   0.59504   0.00000  Uiso   1.00
H977   H     0.59154   0.77450   0.96280   0.00000  Uiso   1.00
H978   H     0.51028   0.81925   0.90198   0.00000  Uiso   1.00
H979   H     0.54118   0.66945   0.71596   0.00000  Uiso   1.00
H980   H     0.45764   0.99897   0.78443   0.00000  Uiso   1.00
H981   H     0.41652   0.92741   0.97528   0.00000  Uiso   1.00
H982   H     0.42754   0.91077   0.90472   0.00000  Uiso   1.00
H983   H     0.46905   0.88633   0.57027   0.00000  Uiso   1.00
H984   H     0.55455   0.80516   0.92778   0.00000  Uiso   1.00
H985   H     0.43275   0.91851   0.53541   0.00000  Uiso   1.00
H986   H     0.60399   0.76197   0.52328   0.00000  Uiso   1.00
O987   O     0.50000   0.83333   0.75000   0.00000  Uiso   1.00
O988   O     0.49027   0.79060   0.66625   0.00000  Uiso   1.00
O989   O     0.46020   0.87313   0.83749   0.00000  Uiso   1.00
O990   O     0.54421   0.84159   0.65877   0.00000  Uiso   1.00
O991   O     0.50532   0.82802   0.83749   0.00000  Uiso   1.00
O992   O     0.51182   0.74768   0.77821   0.00000  Uiso   1.00
O993   O     0.47914   0.92803   0.76767   0.00000  Uiso   1.00
O994   O     0.40785   0.79917   0.73607   0.00000  Uiso   1.00
O995   O     0.60119   0.85845   0.71805   0.00000  Uiso   1.00
O996   O     0.40323   0.85627   0.77820   0.00000  Uiso   1.00
O997   O     0.58773   0.81944   0.76768   0.00000  Uiso   1.00
O998   O     0.47133   0.73570   0.73607   0.00000  Uiso   1.00
O999   O     0.53771   0.92193   0.71805   0.00000  Uiso   1.00
Zn1000 Zn    0.52577   0.80756   0.78278   0.00000  Uiso   1.00
Zn1001 Zn    0.46792   0.79044   0.72258   0.00000  Uiso   1.00
Zn1002 Zn    0.54500   0.86331   0.71188   0.00000  Uiso   1.00
Zn1003 Zn    0.46131   0.87202   0.78277   0.00000  Uiso   1.00
C1004  C     0.71936   0.82691   0.75848   0.00000  Uiso   1.00
C1005  C     0.87648   0.81009   0.95928   0.00000  Uiso   1.00
C1006  C     0.89871   0.79249   0.97938   0.00000  Uiso   1.00
C1007  C     0.94768   0.84017   0.74126   0.00000  Uiso   1.00
C1008  C     0.88738   0.79750   0.52015   0.00000  Uiso   1.00
C1009  C     0.85305   0.82117   0.54167   0.00000  Uiso   1.00
C1010  C     0.91047   0.77919   0.53960   0.00000  Uiso   1.00
C1011  C     0.89979   0.78380   0.58030   0.00000  Uiso   1.00
C1012  C     0.83994   0.82152   0.58302   0.00000  Uiso   1.00
C1013  C     0.99356   0.84234   0.73772   0.00000  Uiso   1.00
C1014  C     0.67401   0.82436   0.76259   0.00000  Uiso   1.00
C1015  C     0.77725   0.89453   0.91950   0.00000  Uiso   1.00
C1016  C     0.84753   0.98884   0.73810   0.00000  Uiso   1.00
C1017  C     0.81831   0.67879   0.76217   0.00000  Uiso   1.00
C1018  C     0.82262   0.72283   0.75891   0.00000  Uiso   1.00
C1019  C     0.84352   0.94433   0.74136   0.00000  Uiso   1.00
C1020  C     0.85507   0.81191   0.64417   0.00000  Uiso   1.00
C1021  C     0.81214   0.85445   0.85609   0.00000  Uiso   1.00
C1022  C     0.80428   0.86430   0.89872   0.00000  Uiso   1.00
C1023  C     0.86431   0.80442   0.60183   0.00000  Uiso   1.00
C1024  C     0.77109   0.90410   0.95970   0.00000  Uiso   1.00
C1025  C     0.82492   0.84376   0.91859   0.00000  Uiso   1.00
C1026  C     0.82057   0.85403   0.95892   0.00000  Uiso   1.00
C1027  C     0.79241   0.88410   0.97954   0.00000  Uiso   1.00
C1028  C     0.84313   0.83511   0.97931   0.00000  Uiso   1.00
C1029  C     0.83335   0.84304   0.52093   0.00000  Uiso   1.00
C1030  C     0.80650   0.87454   0.53997   0.00000  Uiso   1.00
C1031  C     0.78638   0.89452   0.51962   0.00000  Uiso   1.00
F1032  F     0.97998   0.80412   0.79268   0.00000  Uiso   1.00
F1033  F     0.80267   0.83610   0.60561   0.00000  Uiso   1.00
H1034  H     0.68323   0.85877   0.71446   0.00000  Uiso   1.00
H1035  H     0.91884   0.77090   0.59504   0.00000  Uiso   1.00
H1036  H     0.92488   0.77450   0.96280   0.00000  Uiso   1.00
H1037  H     0.84361   0.81925   0.90198   0.00000  Uiso   1.00
H1038  H     0.87451   0.66945   0.71596   0.00000  Uiso   1.00
H1039  H     0.79097   0.99897   0.78443   0.00000  Uiso   1.00
H1040  H     0.74985   0.92741   0.97528   0.00000  Uiso   1.00
H1041  H     0.76087   0.91077   0.90472   0.00000  Uiso   1.00
H1042  H     0.80238   0.88633   0.57027   0.00000  Uiso   1.00
H1043  H     0.88788   0.80516   0.92778   0.00000  Uiso   1.00
H1044  H     0.76608   0.91851   0.53541   0.00000  Uiso   1.00
H1045  H     0.93732   0.76197   0.52328   0.00000  Uiso   1.00
O1046  O     0.83333   0.83333   0.75000   0.00000  Uiso   1.00
O1047  O     0.82360   0.79060   0.66625   0.00000  Uiso   1.00
O1048  O     0.79354   0.87313   0.83749   0.00000  Uiso   1.00
O1049  O     0.87755   0.84159   0.65877   0.00000  Uiso   1.00
O1050  O     0.83865   0.82802   0.83749   0.00000  Uiso   1.00
O1051  O     0.84515   0.74768   0.77821   0.00000  Uiso   1.00
O1052  O     0.81247   0.92803   0.76767   0.00000  Uiso   1.00
O1053  O     0.74119   0.79917   0.73607   0.00000  Uiso   1.00
O1054  O     0.93452   0.85845   0.71805   0.00000  Uiso   1.00
O1055  O     0.73656   0.85627   0.77820   0.00000  Uiso   1.00
O1056  O     0.92106   0.81944   0.76768   0.00000  Uiso   1.00
O1057  O     0.80467   0.73570   0.73607   0.00000  Uiso   1.00
O1058  O     0.87104   0.92193   0.71805   0.00000  Uiso   1.00
Zn1059 Zn    0.85910   0.80756   0.78278   0.00000  Uiso   1.00
Zn1060 Zn    0.80125   0.79044   0.72258   0.00000  Uiso   1.00
Zn1061 Zn    0.87833   0.86331   0.71188   0.00000  Uiso   1.00
Zn1062 Zn    0.79465   0.87202   0.78277   0.00000  Uiso   1.00
loop_
_geom_bond_atom_site_label_1
_geom_bond_atom_site_label_2
_geom_bond_distance
_geom_bond_site_symmetry_2
_ccdc_geom_bond_type
C1     O50     1.271   .     A
C1     O52     1.270   .     A
C1     C11     1.434   .     S
C2     C3      1.385   .     A
C2     C25     1.414   .     A
C2     H40     1.077   .     S
C3     H33     1.084   .     S
C3     C536    1.390   .     S
C4     O53     1.276   .     A
C4     O51     1.286   .     A
C4     C10     1.457   .     S
C5     C7      1.402   .     A
C5     C6      1.422   .     A
C5     C534    1.390   1_554 S
C6     C9      1.416   .     A
C6     C26     1.427   .     A
C7     C8      1.388   .     A
C7     H42     1.084   .     S
C8     C20     1.394   .     A
C8     H32     1.084   .     S
C9     C20     1.395   .     A
C9     F30     1.358   .     S
C10    C70     1.341   .     S
C10    H90     1.088   .     S
C11    C128    1.341   1_455 S
C11    F147    1.361   1_455 S
C12    C21     1.392   .     A
C12    C19     1.401   .     A
C12    H38     1.083   .     S
C13    C16     1.451   .     S
C13    C191    1.331   .     S
C13    H212    1.088   .     S
C14    C15     1.435   .     S
C14    C367    1.331   1_545 S
C14    H390    1.086   1_545 S
C15    O54     1.280   .     A
C15    O48     1.280   .     A
C16    O55     1.271   .     A
C16    O49     1.272   .     A
C17    C20     1.450   .     S
C17    O44     1.276   .     A
C17    O46     1.272   .     A
C18    O47     1.285   .     A
C18    O45     1.281   .     A
C18    C19     1.470   .     S
C19    C22     1.398   .     A
C21    C24     1.402   .     A
C21    H37     1.084   .     S
C22    H34     1.076   .     S
C22    C23     1.407   .     A
C23    C24     1.418   .     A
C23    C25     1.424   .     A
C24    C559    1.391   .     S
C25    C557    1.425   .     S
C26    C27     1.414   .     A
C26    C556    1.425   1_554 S
C27    C28     1.387   .     A
C27    H39     1.076   .     S
C28    H41     1.084   .     S
C28    C555    1.391   1_554 S
F29    C70     1.361   .     S
H31    C128    1.088   1_455 S
H35    C367    1.088   1_545 S
H36    C191    1.086   .     S
O43    Zn57    1.949   .     S
O43    Zn56    1.963   .     S
O43    Zn59    1.933   .     S
O43    Zn58    1.935   .     S
O44    Zn57    1.935   .     S
O45    Zn59    1.947   .     S
O46    Zn58    1.942   .     S
O47    Zn56    1.932   .     S
O48    Zn56    1.928   .     S
O49    Zn59    1.930   .     S
O50    Zn57    1.930   .     S
O51    Zn58    1.942   .     S
O52    Zn59    1.938   .     S
O53    Zn56    1.928   .     S
O54    Zn57    1.935   .     S
O55    Zn58    1.929   .     S
C60    O109    1.271   .     A
C60    O111    1.270   .     A
C60    C70     1.434   .     S
C61    C62     1.385   .     A
C61    C84     1.414   .     A
C61    H99     1.077   .     S
C62    H92     1.084   .     S
C62    C595    1.390   .     S
C63    O112    1.276   .     A
C63    O110    1.286   .     A
C63    C69     1.457   .     S
C64    C66     1.402   .     A
C64    C65     1.422   .     A
C64    C593    1.390   1_554 S
C65    C68     1.416   .     A
C65    C85     1.427   .     A
C66    C67     1.388   .     A
C66    H101    1.084   .     S
C67    C79     1.394   .     A
C67    H91     1.084   .     S
C68    C79     1.395   .     A
C68    F89     1.358   .     S
C69    C129    1.341   .     S
C69    H149    1.088   .     S
C71    C80     1.392   .     A
C71    C78     1.401   .     A
C71    H97     1.083   .     S
C72    C75     1.451   .     S
C72    C250    1.331   .     S
C72    H271    1.088   .     S
C73    C74     1.435   .     S
C73    C426    1.331   1_545 S
C73    H449    1.086   1_545 S
C74    O113    1.280   .     A
C74    O107    1.280   .     A
C75    O114    1.271   .     A
C75    O108    1.272   .     A
C76    C79     1.450   .     S
C76    O103    1.276   .     A
C76    O105    1.272   .     A
C77    O106    1.285   .     A
C77    O104    1.281   .     A
C77    C78     1.470   .     S
C78    C81     1.398   .     A
C80    C83     1.402   .     A
C80    H96     1.084   .     S
C81    H93     1.076   .     S
C81    C82     1.407   .     A
C82    C83     1.418   .     A
C82    C84     1.424   .     A
C83    C618    1.391   .     S
C84    C616    1.425   .     S
C85    C86     1.414   .     A
C85    C615    1.425   1_554 S
C86    C87     1.387   .     A
C86    H98     1.076   .     S
C87    H100    1.084   .     S
C87    C614    1.391   1_554 S
F88    C129    1.361   .     S
H94    C426    1.088   1_545 S
H95    C250    1.086   .     S
O102   Zn116   1.949   .     S
O102   Zn115   1.963   .     S
O102   Zn118   1.933   .     S
O102   Zn117   1.935   .     S
O103   Zn116   1.935   .     S
O104   Zn118   1.947   .     S
O105   Zn117   1.942   .     S
O106   Zn115   1.932   .     S
O107   Zn115   1.928   .     S
O108   Zn118   1.930   .     S
O109   Zn116   1.930   .     S
O110   Zn117   1.942   .     S
O111   Zn118   1.938   .     S
O112   Zn115   1.928   .     S
O113   Zn116   1.935   .     S
O114   Zn117   1.929   .     S
C119   O168    1.271   .     A
C119   O170    1.270   .     A
C119   C129    1.434   .     S
C120   C121    1.385   .     A
C120   C143    1.414   .     A
C120   H158    1.077   .     S
C121   H151    1.084   .     S
C121   C654    1.390   .     S
C122   O171    1.276   .     A
C122   O169    1.286   .     A
C122   C128    1.457   .     S
C123   C125    1.402   .     A
C123   C124    1.422   .     A
C123   C652    1.390   1_554 S
C124   C127    1.416   .     A
C124   C144    1.427   .     A
C125   C126    1.388   .     A
C125   H160    1.084   .     S
C126   C138    1.394   .     A
C126   H150    1.084   .     S
C127   C138    1.395   .     A
C127   F148    1.358   .     S
C128   C11     1.341   1_655 S
C128   H31     1.088   1_655 S
C130   C139    1.392   .     A
C130   C137    1.401   .     A
C130   H156    1.083   .     S
C131   C134    1.451   .     S
C131   C309    1.331   .     S
C131   H330    1.088   .     S
C132   C133    1.435   .     S
C132   C485    1.331   1_545 S
C132   H508    1.086   1_545 S
C133   O172    1.280   .     A
C133   O166    1.280   .     A
C134   O173    1.271   .     A
C134   O167    1.272   .     A
C135   C138    1.450   .     S
C135   O162    1.276   .     A
C135   O164    1.272   .     A
C136   O165    1.285   .     A
C136   O163    1.281   .     A
C136   C137    1.470   .     S
C137   C140    1.398   .     A
C139   C142    1.402   .     A
C139   H155    1.084   .     S
C140   H152    1.076   .     S
C140   C141    1.407   .     A
C141   C142    1.418   .     A
C141   C143    1.424   .     A
C142   C677    1.391   .     S
C143   C675    1.425   .     S
C144   C145    1.414   .     A
C144   C674    1.425   1_554 S
C145   C146    1.387   .     A
C145   H157    1.076   .     S
C146   H159    1.084   .     S
C146   C673    1.391   1_554 S
F147   C11     1.361   1_655 S
H153   C485    1.088   1_545 S
H154   C309    1.086   .     S
O161   Zn175   1.949   .     S
O161   Zn174   1.963   .     S
O161   Zn177   1.933   .     S
O161   Zn176   1.935   .     S
O162   Zn175   1.935   .     S
O163   Zn177   1.947   .     S
O164   Zn176   1.942   .     S
O165   Zn174   1.932   .     S
O166   Zn174   1.928   .     S
O167   Zn177   1.930   .     S
O168   Zn175   1.930   .     S
O169   Zn176   1.942   .     S
O170   Zn177   1.938   .     S
O171   Zn174   1.928   .     S
O172   Zn175   1.935   .     S
O173   Zn176   1.929   .     S
C178   O227    1.271   .     A
C178   O229    1.270   .     A
C178   C188    1.434   .     S
C179   C180    1.385   .     A
C179   C202    1.414   .     A
C179   H217    1.077   .     S
C180   H210    1.084   .     S
C180   C713    1.390   .     S
C181   O230    1.276   .     A
C181   O228    1.286   .     A
C181   C187    1.457   .     S
C182   C184    1.402   .     A
C182   C183    1.422   .     A
C182   C711    1.390   1_554 S
C183   C186    1.416   .     A
C183   C203    1.427   .     A
C184   C185    1.388   .     A
C184   H219    1.084   .     S
C185   C197    1.394   .     A
C185   H209    1.084   .     S
C186   C197    1.395   .     A
C186   F207    1.358   .     S
C187   C247    1.341   .     S
C187   H267    1.088   .     S
C188   C305    1.341   1_455 S
C188   F324    1.361   1_455 S
C189   C198    1.392   .     A
C189   C196    1.401   .     A
C189   H215    1.083   .     S
C190   C193    1.451   .     S
C190   C368    1.331   .     S
C190   H389    1.088   .     S
C191   C192    1.435   .     S
C192   O231    1.280   .     A
C192   O225    1.280   .     A
C193   O232    1.271   .     A
C193   O226    1.272   .     A
C194   C197    1.450   .     S
C194   O221    1.276   .     A
C194   O223    1.272   .     A
C195   O224    1.285   .     A
C195   O222    1.281   .     A
C195   C196    1.470   .     S
C196   C199    1.398   .     A
C198   C201    1.402   .     A
C198   H214    1.084   .     S
C199   H211    1.076   .     S
C199   C200    1.407   .     A
C200   C201    1.418   .     A
C200   C202    1.424   .     A
C201   C736    1.391   .     S
C202   C734    1.425   .     S
C203   C204    1.414   .     A
C203   C733    1.425   1_554 S
C204   C205    1.387   .     A
C204   H216    1.076   .     S
C205   H218    1.084   .     S
C205   C732    1.391   1_554 S
F206   C247    1.361   .     S
H208   C305    1.088   1_455 S
H213   C368    1.086   .     S
O220   Zn234   1.949   .     S
O220   Zn233   1.963   .     S
O220   Zn236   1.933   .     S
O220   Zn235   1.935   .     S
O221   Zn234   1.935   .     S
O222   Zn236   1.947   .     S
O223   Zn235   1.942   .     S
O224   Zn233   1.932   .     S
O225   Zn233   1.928   .     S
O226   Zn236   1.930   .     S
O227   Zn234   1.930   .     S
O228   Zn235   1.942   .     S
O229   Zn236   1.938   .     S
O230   Zn233   1.928   .     S
O231   Zn234   1.935   .     S
O232   Zn235   1.929   .     S
C237   O286    1.271   .     A
C237   O288    1.270   .     A
C237   C247    1.434   .     S
C238   C239    1.385   .     A
C238   C261    1.414   .     A
C238   H276    1.077   .     S
C239   H269    1.084   .     S
C239   C772    1.390   .     S
C240   O289    1.276   .     A
C240   O287    1.286   .     A
C240   C246    1.457   .     S
C241   C243    1.402   .     A
C241   C242    1.422   .     A
C241   C770    1.390   1_554 S
C242   C245    1.416   .     A
C242   C262    1.427   .     A
C243   C244    1.388   .     A
C243   H278    1.084   .     S
C244   C256    1.394   .     A
C244   H268    1.084   .     S
C245   C256    1.395   .     A
C245   F266    1.358   .     S
C246   C306    1.341   .     S
C246   H326    1.088   .     S
C248   C257    1.392   .     A
C248   C255    1.401   .     A
C248   H274    1.083   .     S
C249   C252    1.451   .     S
C249   C427    1.331   .     S
C249   H448    1.088   .     S
C250   C251    1.435   .     S
C251   O290    1.280   .     A
C251   O284    1.280   .     A
C252   O291    1.271   .     A
C252   O285    1.272   .     A
C253   C256    1.450   .     S
C253   O280    1.276   .     A
C253   O282    1.272   .     A
C254   O283    1.285   .     A
C254   O281    1.281   .     A
C254   C255    1.470   .     S
C255   C258    1.398   .     A
C257   C260    1.402   .     A
C257   H273    1.084   .     S
C258   H270    1.076   .     S
C258   C259    1.407   .     A
C259   C260    1.418   .     A
C259   C261    1.424   .     A
C260   C795    1.391   .     S
C261   C793    1.425   .     S
C262   C263    1.414   .     A
C262   C792    1.425   1_554 S
C263   C264    1.387   .     A
C263   H275    1.076   .     S
C264   H277    1.084   .     S
C264   C791    1.391   1_554 S
F265   C306    1.361   .     S
H272   C427    1.086   .     S
O279   Zn293   1.949   .     S
O279   Zn292   1.963   .     S
O279   Zn295   1.933   .     S
O279   Zn294   1.935   .     S
O280   Zn293   1.935   .     S
O281   Zn295   1.947   .     S
O282   Zn294   1.942   .     S
O283   Zn292   1.932   .     S
O284   Zn292   1.928   .     S
O285   Zn295   1.930   .     S
O286   Zn293   1.930   .     S
O287   Zn294   1.942   .     S
O288   Zn295   1.938   .     S
O289   Zn292   1.928   .     S
O290   Zn293   1.935   .     S
O291   Zn294   1.929   .     S
C296   O345    1.271   .     A
C296   O347    1.270   .     A
C296   C306    1.434   .     S
C297   C298    1.385   .     A
C297   C320    1.414   .     A
C297   H335    1.077   .     S
C298   H328    1.084   .     S
C298   C831    1.390   .     S
C299   O348    1.276   .     A
C299   O346    1.286   .     A
C299   C305    1.457   .     S
C300   C302    1.402   .     A
C300   C301    1.422   .     A
C300   C829    1.390   1_554 S
C301   C304    1.416   .     A
C301   C321    1.427   .     A
C302   C303    1.388   .     A
C302   H337    1.084   .     S
C303   C315    1.394   .     A
C303   H327    1.084   .     S
C304   C315    1.395   .     A
C304   F325    1.358   .     S
C305   C188    1.341   1_655 S
C305   H208    1.088   1_655 S
C307   C316    1.392   .     A
C307   C314    1.401   .     A
C307   H333    1.083   .     S
C308   C311    1.451   .     S
C308   C486    1.331   .     S
C308   H507    1.088   .     S
C309   C310    1.435   .     S
C310   O349    1.280   .     A
C310   O343    1.280   .     A
C311   O350    1.271   .     A
C311   O344    1.272   .     A
C312   C315    1.450   .     S
C312   O339    1.276   .     A
C312   O341    1.272   .     A
C313   O342    1.285   .     A
C313   O340    1.281   .     A
C313   C314    1.470   .     S
C314   C317    1.398   .     A
C316   C319    1.402   .     A
C316   H332    1.084   .     S
C317   H329    1.076   .     S
C317   C318    1.407   .     A
C318   C319    1.418   .     A
C318   C320    1.424   .     A
C319   C854    1.391   .     S
C320   C852    1.425   .     S
C321   C322    1.414   .     A
C321   C851    1.425   1_554 S
C322   C323    1.387   .     A
C322   H334    1.076   .     S
C323   H336    1.084   .     S
C323   C850    1.391   1_554 S
F324   C188    1.361   1_655 S
H331   C486    1.086   .     S
O338   Zn352   1.949   .     S
O338   Zn351   1.963   .     S
O338   Zn354   1.933   .     S
O338   Zn353   1.935   .     S
O339   Zn352   1.935   .     S
O340   Zn354   1.947   .     S
O341   Zn353   1.942   .     S
O342   Zn351   1.932   .     S
O343   Zn351   1.928   .     S
O344   Zn354   1.930   .     S
O345   Zn352   1.930   .     S
O346   Zn353   1.942   .     S
O347   Zn354   1.938   .     S
O348   Zn351   1.928   .     S
O349   Zn352   1.935   .     S
O350   Zn353   1.929   .     S
C355   O404    1.271   .     A
C355   O406    1.270   .     A
C355   C365    1.434   .     S
C356   C357    1.385   .     A
C356   C379    1.414   .     A
C356   H394    1.077   .     S
C357   H387    1.084   .     S
C357   C890    1.390   .     S
C358   O407    1.276   .     A
C358   O405    1.286   .     A
C358   C364    1.457   .     S
C359   C361    1.402   .     A
C359   C360    1.422   .     A
C359   C888    1.390   1_554 S
C360   C363    1.416   .     A
C360   C380    1.427   .     A
C361   C362    1.388   .     A
C361   H396    1.084   .     S
C362   C374    1.394   .     A
C362   H386    1.084   .     S
C363   C374    1.395   .     A
C363   F384    1.358   .     S
C364   C424    1.341   .     S
C364   H444    1.088   .     S
C365   C482    1.341   1_455 S
C365   F501    1.361   1_455 S
C366   C375    1.392   .     A
C366   C373    1.401   .     A
C366   H392    1.083   .     S
C367   C370    1.451   .     S
C367   C14     1.331   1_565 S
C367   H35     1.088   1_565 S
C368   C369    1.435   .     S
C369   O408    1.280   .     A
C369   O402    1.280   .     A
C370   O409    1.271   .     A
C370   O403    1.272   .     A
C371   C374    1.450   .     S
C371   O398    1.276   .     A
C371   O400    1.272   .     A
C372   O401    1.285   .     A
C372   O399    1.281   .     A
C372   C373    1.470   .     S
C373   C376    1.398   .     A
C375   C378    1.402   .     A
C375   H391    1.084   .     S
C376   H388    1.076   .     S
C376   C377    1.407   .     A
C377   C378    1.418   .     A
C377   C379    1.424   .     A
C378   C913    1.391   .     S
C379   C911    1.425   .     S
C380   C381    1.414   .     A
C380   C910    1.425   1_554 S
C381   C382    1.387   .     A
C381   H393    1.076   .     S
C382   H395    1.084   .     S
C382   C909    1.391   1_554 S
F383   C424    1.361   .     S
H385   C482    1.088   1_455 S
H390   C14     1.086   1_565 S
O397   Zn411   1.949   .     S
O397   Zn410   1.963   .     S
O397   Zn413   1.933   .     S
O397   Zn412   1.935   .     S
O398   Zn411   1.935   .     S
O399   Zn413   1.947   .     S
O400   Zn412   1.942   .     S
O401   Zn410   1.932   .     S
O402   Zn410   1.928   .     S
O403   Zn413   1.930   .     S
O404   Zn411   1.930   .     S
O405   Zn412   1.942   .     S
O406   Zn413   1.938   .     S
O407   Zn410   1.928   .     S
O408   Zn411   1.935   .     S
O409   Zn412   1.929   .     S
C414   O463    1.271   .     A
C414   O465    1.270   .     A
C414   C424    1.434   .     S
C415   C416    1.385   .     A
C415   C438    1.414   .     A
C415   H453    1.077   .     S
C416   H446    1.084   .     S
C416   C949    1.390   .     S
C417   O466    1.276   .     A
C417   O464    1.286   .     A
C417   C423    1.457   .     S
C418   C420    1.402   .     A
C418   C419    1.422   .     A
C418   C947    1.390   1_554 S
C419   C422    1.416   .     A
C419   C439    1.427   .     A
C420   C421    1.388   .     A
C420   H455    1.084   .     S
C421   C433    1.394   .     A
C421   H445    1.084   .     S
C422   C433    1.395   .     A
C422   F443    1.358   .     S
C423   C483    1.341   .     S
C423   H503    1.088   .     S
C425   C434    1.392   .     A
C425   C432    1.401   .     A
C425   H451    1.083   .     S
C426   C429    1.451   .     S
C426   C73     1.331   1_565 S
C426   H94     1.088   1_565 S
C427   C428    1.435   .     S
C428   O467    1.280   .     A
C428   O461    1.280   .     A
C429   O468    1.271   .     A
C429   O462    1.272   .     A
C430   C433    1.450   .     S
C430   O457    1.276   .     A
C430   O459    1.272   .     A
C431   O460    1.285   .     A
C431   O458    1.281   .     A
C431   C432    1.470   .     S
C432   C435    1.398   .     A
C434   C437    1.402   .     A
C434   H450    1.084   .     S
C435   H447    1.076   .     S
C435   C436    1.407   .     A
C436   C437    1.418   .     A
C436   C438    1.424   .     A
C437   C972    1.391   .     S
C438   C970    1.425   .     S
C439   C440    1.414   .     A
C439   C969    1.425   1_554 S
C440   C441    1.387   .     A
C440   H452    1.076   .     S
C441   H454    1.084   .     S
C441   C968    1.391   1_554 S
F442   C483    1.361   .     S
H449   C73     1.086   1_565 S
O456   Zn470   1.949   .     S
O456   Zn469   1.963   .     S
O456   Zn472   1.933   .     S
O456   Zn471   1.935   .     S
O457   Zn470   1.935   .     S
O458   Zn472   1.947   .     S
O459   Zn471   1.942   .     S
O460   Zn469   1.932   .     S
O461   Zn469   1.928   .     S
O462   Zn472   1.930   .     S
O463   Zn470   1.930   .     S
O464   Zn471   1.942   .     S
O465   Zn472   1.938   .     S
O466   Zn469   1.928   .     S
O467   Zn470   1.935   .     S
O468   Zn471   1.929   .     S
C473   O522    1.271   .     A
C473   O524    1.270   .     A
C473   C483    1.434   .     S
C474   C475    1.385   .     A
C474   C497    1.414   .     A
C474   H512    1.077   .     S
C475   H505    1.084   .     S
C475   C1008   1.390   .     S
C476   O525    1.276   .     A
C476   O523    1.286   .     A
C476   C482    1.457   .     S
C477   C479    1.402   .     A
C477   C478    1.422   .     A
C477   C1006   1.390   1_554 S
C478   C481    1.416   .     A
C478   C498    1.427   .     A
C479   C480    1.388   .     A
C479   H514    1.084   .     S
C480   C492    1.394   .     A
C480   H504    1.084   .     S
C481   C492    1.395   .     A
C481   F502    1.358   .     S
C482   C365    1.341   1_655 S
C482   H385    1.088   1_655 S
C484   C493    1.392   .     A
C484   C491    1.401   .     A
C484   H510    1.083   .     S
C485   C488    1.451   .     S
C485   C132    1.331   1_565 S
C485   H153    1.088   1_565 S
C486   C487    1.435   .     S
C487   O526    1.280   .     A
C487   O520    1.280   .     A
C488   O527    1.271   .     A
C488   O521    1.272   .     A
C489   C492    1.450   .     S
C489   O516    1.276   .     A
C489   O518    1.272   .     A
C490   O519    1.285   .     A
C490   O517    1.281   .     A
C490   C491    1.470   .     S
C491   C494    1.398   .     A
C493   C496    1.402   .     A
C493   H509    1.084   .     S
C494   H506    1.076   .     S
C494   C495    1.407   .     A
C495   C496    1.418   .     A
C495   C497    1.424   .     A
C496   C1031   1.391   .     S
C497   C1029   1.425   .     S
C498   C499    1.414   .     A
C498   C1028   1.425   1_554 S
C499   C500    1.387   .     A
C499   H511    1.076   .     S
C500   H513    1.084   .     S
C500   C1027   1.391   1_554 S
F501   C365    1.361   1_655 S
H508   C132    1.086   1_565 S
O515   Zn529   1.949   .     S
O515   Zn528   1.963   .     S
O515   Zn531   1.933   .     S
O515   Zn530   1.935   .     S
O516   Zn529   1.935   .     S
O517   Zn531   1.947   .     S
O518   Zn530   1.942   .     S
O519   Zn528   1.932   .     S
O520   Zn528   1.928   .     S
O521   Zn531   1.930   .     S
O522   Zn529   1.930   .     S
O523   Zn530   1.942   .     S
O524   Zn531   1.938   .     S
O525   Zn528   1.928   .     S
O526   Zn529   1.935   .     S
O527   Zn530   1.929   .     S
C532   O581    1.271   .     A
C532   O583    1.270   .     A
C532   C542    1.434   .     S
C533   C534    1.385   .     A
C533   C556    1.414   .     A
C533   H571    1.077   .     S
C534   H564    1.084   .     S
C534   C5      1.390   1_556 S
C535   O584    1.276   .     A
C535   O582    1.286   .     A
C535   C541    1.457   .     S
C536   C538    1.402   .     A
C536   C537    1.422   .     A
C537   C540    1.416   .     A
C537   C557    1.427   .     A
C538   C539    1.388   .     A
C538   H573    1.084   .     S
C539   C551    1.394   .     A
C539   H563    1.084   .     S
C540   C551    1.395   .     A
C540   F561    1.358   .     S
C541   C601    1.341   .     S
C541   H621    1.088   .     S
C542   C659    1.341   1_455 S
C542   F678    1.361   1_455 S
C543   C552    1.392   .     A
C543   C550    1.401   .     A
C543   H569    1.083   .     S
C544   C547    1.451   .     S
C544   C722    1.331   .     S
C544   H743    1.088   .     S
C545   C546    1.435   .     S
C545   C898    1.331   1_545 S
C545   H921    1.086   1_545 S
C546   O585    1.280   .     A
C546   O579    1.280   .     A
C547   O586    1.271   .     A
C547   O580    1.272   .     A
C548   C551    1.450   .     S
C548   O575    1.276   .     A
C548   O577    1.272   .     A
C549   O578    1.285   .     A
C549   O576    1.281   .     A
C549   C550    1.470   .     S
C550   C553    1.398   .     A
C552   C555    1.402   .     A
C552   H568    1.084   .     S
C553   H565    1.076   .     S
C553   C554    1.407   .     A
C554   C555    1.418   .     A
C554   C556    1.424   .     A
C555   C28     1.391   1_556 S
C556   C26     1.425   1_556 S
C557   C558    1.414   .     A
C558   C559    1.387   .     A
C558   H570    1.076   .     S
C559   H572    1.084   .     S
F560   C601    1.361   .     S
H562   C659    1.088   1_455 S
H566   C898    1.088   1_545 S
H567   C722    1.086   .     S
O574   Zn588   1.949   .     S
O574   Zn587   1.963   .     S
O574   Zn590   1.933   .     S
O574   Zn589   1.935   .     S
O575   Zn588   1.935   .     S
O576   Zn590   1.947   .     S
O577   Zn589   1.942   .     S
O578   Zn587   1.932   .     S
O579   Zn587   1.928   .     S
O580   Zn590   1.930   .     S
O581   Zn588   1.930   .     S
O582   Zn589   1.942   .     S
O583   Zn590   1.938   .     S
O584   Zn587   1.928   .     S
O585   Zn588   1.935   .     S
O586   Zn589   1.929   .     S
C591   O640    1.271   .     A
C591   O642    1.270   .     A
C591   C601    1.434   .     S
C592   C593    1.385   .     A
C592   C615    1.414   .     A
C592   H630    1.077   .     S
C593   H623    1.084   .     S
C593   C64     1.390   1_556 S
C594   O643    1.276   .     A
C594   O641    1.286   .     A
C594   C600    1.457   .     S
C595   C597    1.402   .     A
C595   C596    1.422   .     A
C596   C599    1.416   .     A
C596   C616    1.427   .     A
C597   C598    1.388   .     A
C597   H632    1.084   .     S
C598   C610    1.394   .     A
C598   H622    1.084   .     S
C599   C610    1.395   .     A
C599   F620    1.358   .     S
C600   C660    1.341   .     S
C600   H680    1.088   .     S
C602   C611    1.392   .     A
C602   C609    1.401   .     A
C602   H628    1.083   .     S
C603   C606    1.451   .     S
C603   C781    1.331   .     S
C603   H802    1.088   .     S
C604   C605    1.435   .     S
C604   C957    1.331   1_545 S
C604   H980    1.086   1_545 S
C605   O644    1.280   .     A
C605   O638    1.280   .     A
C606   O645    1.271   .     A
C606   O639    1.272   .     A
C607   C610    1.450   .     S
C607   O634    1.276   .     A
C607   O636    1.272   .     A
C608   O637    1.285   .     A
C608   O635    1.281   .     A
C608   C609    1.470   .     S
C609   C612    1.398   .     A
C611   C614    1.402   .     A
C611   H627    1.084   .     S
C612   H624    1.076   .     S
C612   C613    1.407   .     A
C613   C614    1.418   .     A
C613   C615    1.424   .     A
C614   C87     1.391   1_556 S
C615   C85     1.425   1_556 S
C616   C617    1.414   .     A
C617   C618    1.387   .     A
C617   H629    1.076   .     S
C618   H631    1.084   .     S
F619   C660    1.361   .     S
H625   C957    1.088   1_545 S
H626   C781    1.086   .     S
O633   Zn647   1.949   .     S
O633   Zn646   1.963   .     S
O633   Zn649   1.933   .     S
O633   Zn648   1.935   .     S
O634   Zn647   1.935   .     S
O635   Zn649   1.947   .     S
O636   Zn648   1.942   .     S
O637   Zn646   1.932   .     S
O638   Zn646   1.928   .     S
O639   Zn649   1.930   .     S
O640   Zn647   1.930   .     S
O641   Zn648   1.942   .     S
O642   Zn649   1.938   .     S
O643   Zn646   1.928   .     S
O644   Zn647   1.935   .     S
O645   Zn648   1.929   .     S
C650   O699    1.271   .     A
C650   O701    1.270   .     A
C650   C660    1.434   .     S
C651   C652    1.385   .     A
C651   C674    1.414   .     A
C651   H689    1.077   .     S
C652   H682    1.084   .     S
C652   C123    1.390   1_556 S
C653   O702    1.276   .     A
C653   O700    1.286   .     A
C653   C659    1.457   .     S
C654   C656    1.402   .     A
C654   C655    1.422   .     A
C655   C658    1.416   .     A
C655   C675    1.427   .     A
C656   C657    1.388   .     A
C656   H691    1.084   .     S
C657   C669    1.394   .     A
C657   H681    1.084   .     S
C658   C669    1.395   .     A
C658   F679    1.358   .     S
C659   C542    1.341   1_655 S
C659   H562    1.088   1_655 S
C661   C670    1.392   .     A
C661   C668    1.401   .     A
C661   H687    1.083   .     S
C662   C665    1.451   .     S
C662   C840    1.331   .     S
C662   H861    1.088   .     S
C663   C664    1.435   .     S
C663   C1016   1.331   1_545 S
C663   H1039   1.086   1_545 S
C664   O703    1.280   .     A
C664   O697    1.280   .     A
C665   O704    1.271   .     A
C665   O698    1.272   .     A
C666   C669    1.450   .     S
C666   O693    1.276   .     A
C666   O695    1.272   .     A
C667   O696    1.285   .     A
C667   O694    1.281   .     A
C667   C668    1.470   .     S
C668   C671    1.398   .     A
C670   C673    1.402   .     A
C670   H686    1.084   .     S
C671   H683    1.076   .     S
C671   C672    1.407   .     A
C672   C673    1.418   .     A
C672   C674    1.424   .     A
C673   C146    1.391   1_556 S
C674   C144    1.425   1_556 S
C675   C676    1.414   .     A
C676   C677    1.387   .     A
C676   H688    1.076   .     S
C677   H690    1.084   .     S
F678   C542    1.361   1_655 S
H684   C1016   1.088   1_545 S
H685   C840    1.086   .     S
O692   Zn706   1.949   .     S
O692   Zn705   1.963   .     S
O692   Zn708   1.933   .     S
O692   Zn707   1.935   .     S
O693   Zn706   1.935   .     S
O694   Zn708   1.947   .     S
O695   Zn707   1.942   .     S
O696   Zn705   1.932   .     S
O697   Zn705   1.928   .     S
O698   Zn708   1.930   .     S
O699   Zn706   1.930   .     S
O700   Zn707   1.942   .     S
O701   Zn708   1.938   .     S
O702   Zn705   1.928   .     S
O703   Zn706   1.935   .     S
O704   Zn707   1.929   .     S
C709   O758    1.271   .     A
C709   O760    1.270   .     A
C709   C719    1.434   .     S
C710   C711    1.385   .     A
C710   C733    1.414   .     A
C710   H748    1.077   .     S
C711   H741    1.084   .     S
C711   C182    1.390   1_556 S
C712   O761    1.276   .     A
C712   O759    1.286   .     A
C712   C718    1.457   .     S
C713   C715    1.402   .     A
C713   C714    1.422   .     A
C714   C717    1.416   .     A
C714   C734    1.427   .     A
C715   C716    1.388   .     A
C715   H750    1.084   .     S
C716   C728    1.394   .     A
C716   H740    1.084   .     S
C717   C728    1.395   .     A
C717   F738    1.358   .     S
C718   C778    1.341   .     S
C718   H798    1.088   .     S
C719   C836    1.341   1_455 S
C719   F855    1.361   1_455 S
C720   C729    1.392   .     A
C720   C727    1.401   .     A
C720   H746    1.083   .     S
C721   C724    1.451   .     S
C721   C899    1.331   .     S
C721   H920    1.088   .     S
C722   C723    1.435   .     S
C723   O762    1.280   .     A
C723   O756    1.280   .     A
C724   O763    1.271   .     A
C724   O757    1.272   .     A
C725   C728    1.450   .     S
C725   O752    1.276   .     A
C725   O754    1.272   .     A
C726   O755    1.285   .     A
C726   O753    1.281   .     A
C726   C727    1.470   .     S
C727   C730    1.398   .     A
C729   C732    1.402   .     A
C729   H745    1.084   .     S
C730   H742    1.076   .     S
C730   C731    1.407   .     A
C731   C732    1.418   .     A
C731   C733    1.424   .     A
C732   C205    1.391   1_556 S
C733   C203    1.425   1_556 S
C734   C735    1.414   .     A
C735   C736    1.387   .     A
C735   H747    1.076   .     S
C736   H749    1.084   .     S
F737   C778    1.361   .     S
H739   C836    1.088   1_455 S
H744   C899    1.086   .     S
O751   Zn765   1.949   .     S
O751   Zn764   1.963   .     S
O751   Zn767   1.933   .     S
O751   Zn766   1.935   .     S
O752   Zn765   1.935   .     S
O753   Zn767   1.947   .     S
O754   Zn766   1.942   .     S
O755   Zn764   1.932   .     S
O756   Zn764   1.928   .     S
O757   Zn767   1.930   .     S
O758   Zn765   1.930   .     S
O759   Zn766   1.942   .     S
O760   Zn767   1.938   .     S
O761   Zn764   1.928   .     S
O762   Zn765   1.935   .     S
O763   Zn766   1.929   .     S
C768   O817    1.271   .     A
C768   O819    1.270   .     A
C768   C778    1.434   .     S
C769   C770    1.385   .     A
C769   C792    1.414   .     A
C769   H807    1.077   .     S
C770   H800    1.084   .     S
C770   C241    1.390   1_556 S
C771   O820    1.276   .     A
C771   O818    1.286   .     A
C771   C777    1.457   .     S
C772   C774    1.402   .     A
C772   C773    1.422   .     A
C773   C776    1.416   .     A
C773   C793    1.427   .     A
C774   C775    1.388   .     A
C774   H809    1.084   .     S
C775   C787    1.394   .     A
C775   H799    1.084   .     S
C776   C787    1.395   .     A
C776   F797    1.358   .     S
C777   C837    1.341   .     S
C777   H857    1.088   .     S
C779   C788    1.392   .     A
C779   C786    1.401   .     A
C779   H805    1.083   .     S
C780   C783    1.451   .     S
C780   C958    1.331   .     S
C780   H979    1.088   .     S
C781   C782    1.435   .     S
C782   O821    1.280   .     A
C782   O815    1.280   .     A
C783   O822    1.271   .     A
C783   O816    1.272   .     A
C784   C787    1.450   .     S
C784   O811    1.276   .     A
C784   O813    1.272   .     A
C785   O814    1.285   .     A
C785   O812    1.281   .     A
C785   C786    1.470   .     S
C786   C789    1.398   .     A
C788   C791    1.402   .     A
C788   H804    1.084   .     S
C789   H801    1.076   .     S
C789   C790    1.407   .     A
C790   C791    1.418   .     A
C790   C792    1.424   .     A
C791   C264    1.391   1_556 S
C792   C262    1.425   1_556 S
C793   C794    1.414   .     A
C794   C795    1.387   .     A
C794   H806    1.076   .     S
C795   H808    1.084   .     S
F796   C837    1.361   .     S
H803   C958    1.086   .     S
O810   Zn824   1.949   .     S
O810   Zn823   1.963   .     S
O810   Zn826   1.933   .     S
O810   Zn825   1.935   .     S
O811   Zn824   1.935   .     S
O812   Zn826   1.947   .     S
O813   Zn825   1.942   .     S
O814   Zn823   1.932   .     S
O815   Zn823   1.928   .     S
O816   Zn826   1.930   .     S
O817   Zn824   1.930   .     S
O818   Zn825   1.942   .     S
O819   Zn826   1.938   .     S
O820   Zn823   1.928   .     S
O821   Zn824   1.935   .     S
O822   Zn825   1.929   .     S
C827   O876    1.271   .     A
C827   O878    1.270   .     A
C827   C837    1.434   .     S
C828   C829    1.385   .     A
C828   C851    1.414   .     A
C828   H866    1.077   .     S
C829   H859    1.084   .     S
C829   C300    1.390   1_556 S
C830   O879    1.276   .     A
C830   O877    1.286   .     A
C830   C836    1.457   .     S
C831   C833    1.402   .     A
C831   C832    1.422   .     A
C832   C835    1.416   .     A
C832   C852    1.427   .     A
C833   C834    1.388   .     A
C833   H868    1.084   .     S
C834   C846    1.394   .     A
C834   H858    1.084   .     S
C835   C846    1.395   .     A
C835   F856    1.358   .     S
C836   C719    1.341   1_655 S
C836   H739    1.088   1_655 S
C838   C847    1.392   .     A
C838   C845    1.401   .     A
C838   H864    1.083   .     S
C839   C842    1.451   .     S
C839   C1017   1.331   .     S
C839   H1038   1.088   .     S
C840   C841    1.435   .     S
C841   O880    1.280   .     A
C841   O874    1.280   .     A
C842   O881    1.271   .     A
C842   O875    1.272   .     A
C843   C846    1.450   .     S
C843   O870    1.276   .     A
C843   O872    1.272   .     A
C844   O873    1.285   .     A
C844   O871    1.281   .     A
C844   C845    1.470   .     S
C845   C848    1.398   .     A
C847   C850    1.402   .     A
C847   H863    1.084   .     S
C848   H860    1.076   .     S
C848   C849    1.407   .     A
C849   C850    1.418   .     A
C849   C851    1.424   .     A
C850   C323    1.391   1_556 S
C851   C321    1.425   1_556 S
C852   C853    1.414   .     A
C853   C854    1.387   .     A
C853   H865    1.076   .     S
C854   H867    1.084   .     S
F855   C719    1.361   1_655 S
H862   C1017   1.086   .     S
O869   Zn883   1.949   .     S
O869   Zn882   1.963   .     S
O869   Zn885   1.933   .     S
O869   Zn884   1.935   .     S
O870   Zn883   1.935   .     S
O871   Zn885   1.947   .     S
O872   Zn884   1.942   .     S
O873   Zn882   1.932   .     S
O874   Zn882   1.928   .     S
O875   Zn885   1.930   .     S
O876   Zn883   1.930   .     S
O877   Zn884   1.942   .     S
O878   Zn885   1.938   .     S
O879   Zn882   1.928   .     S
O880   Zn883   1.935   .     S
O881   Zn884   1.929   .     S
C886   O935    1.271   .     A
C886   O937    1.270   .     A
C886   C896    1.434   .     S
C887   C888    1.385   .     A
C887   C910    1.414   .     A
C887   H925    1.077   .     S
C888   H918    1.084   .     S
C888   C359    1.390   1_556 S
C889   O938    1.276   .     A
C889   O936    1.286   .     A
C889   C895    1.457   .     S
C890   C892    1.402   .     A
C890   C891    1.422   .     A
C891   C894    1.416   .     A
C891   C911    1.427   .     A
C892   C893    1.388   .     A
C892   H927    1.084   .     S
C893   C905    1.394   .     A
C893   H917    1.084   .     S
C894   C905    1.395   .     A
C894   F915    1.358   .     S
C895   C955    1.341   .     S
C895   H975    1.088   .     S
C896   C1013   1.341   1_455 S
C896   F1032   1.361   1_455 S
C897   C906    1.392   .     A
C897   C904    1.401   .     A
C897   H923    1.083   .     S
C898   C901    1.451   .     S
C898   C545    1.331   1_565 S
C898   H566    1.088   1_565 S
C899   C900    1.435   .     S
C900   O939    1.280   .     A
C900   O933    1.280   .     A
C901   O940    1.271   .     A
C901   O934    1.272   .     A
C902   C905    1.450   .     S
C902   O929    1.276   .     A
C902   O931    1.272   .     A
C903   O932    1.285   .     A
C903   O930    1.281   .     A
C903   C904    1.470   .     S
C904   C907    1.398   .     A
C906   C909    1.402   .     A
C906   H922    1.084   .     S
C907   H919    1.076   .     S
C907   C908    1.407   .     A
C908   C909    1.418   .     A
C908   C910    1.424   .     A
C909   C382    1.391   1_556 S
C910   C380    1.425   1_556 S
C911   C912    1.414   .     A
C912   C913    1.387   .     A
C912   H924    1.076   .     S
C913   H926    1.084   .     S
F914   C955    1.361   .     S
H916   C1013   1.088   1_455 S
H921   C545    1.086   1_565 S
O928   Zn942   1.949   .     S
O928   Zn941   1.963   .     S
O928   Zn944   1.933   .     S
O928   Zn943   1.935   .     S
O929   Zn942   1.935   .     S
O930   Zn944   1.947   .     S
O931   Zn943   1.942   .     S
O932   Zn941   1.932   .     S
O933   Zn941   1.928   .     S
O934   Zn944   1.930   .     S
O935   Zn942   1.930   .     S
O936   Zn943   1.942   .     S
O937   Zn944   1.938   .     S
O938   Zn941   1.928   .     S
O939   Zn942   1.935   .     S
O940   Zn943   1.929   .     S
C945   O994    1.271   .     A
C945   O996    1.270   .     A
C945   C955    1.434   .     S
C946   C947    1.385   .     A
C946   C969    1.414   .     A
C946   H984    1.077   .     S
C947   H977    1.084   .     S
C947   C418    1.390   1_556 S
C948   O997    1.276   .     A
C948   O995    1.286   .     A
C948   C954    1.457   .     S
C949   C951    1.402   .     A
C949   C950    1.422   .     A
C950   C953    1.416   .     A
C950   C970    1.427   .     A
C951   C952    1.388   .     A
C951   H986    1.084   .     S
C952   C964    1.394   .     A
C952   H976    1.084   .     S
C953   C964    1.395   .     A
C953   F974    1.358   .     S
C954   C1014   1.341   .     S
C954   H1034   1.088   .     S
C956   C965    1.392   .     A
C956   C963    1.401   .     A
C956   H982    1.083   .     S
C957   C960    1.451   .     S
C957   C604    1.331   1_565 S
C957   H625    1.088   1_565 S
C958   C959    1.435   .     S
C959   O998    1.280   .     A
C959   O992    1.280   .     A
C960   O999    1.271   .     A
C960   O993    1.272   .     A
C961   C964    1.450   .     S
C961   O988    1.276   .     A
C961   O990    1.272   .     A
C962   O991    1.285   .     A
C962   O989    1.281   .     A
C962   C963    1.470   .     S
C963   C966    1.398   .     A
C965   C968    1.402   .     A
C965   H981    1.084   .     S
C966   H978    1.076   .     S
C966   C967    1.407   .     A
C967   C968    1.418   .     A
C967   C969    1.424   .     A
C968   C441    1.391   1_556 S
C969   C439    1.425   1_556 S
C970   C971    1.414   .     A
C971   C972    1.387   .     A
C971   H983    1.076   .     S
C972   H985    1.084   .     S
F973   C1014   1.361   .     S
H980   C604    1.086   1_565 S
O987   Zn1001  1.949   .     S
O987   Zn1000  1.963   .     S
O987   Zn1003  1.933   .     S
O987   Zn1002  1.935   .     S
O988   Zn1001  1.935   .     S
O989   Zn1003  1.947   .     S
O990   Zn1002  1.942   .     S
O991   Zn1000  1.932   .     S
O992   Zn1000  1.928   .     S
O993   Zn1003  1.930   .     S
O994   Zn1001  1.930   .     S
O995   Zn1002  1.942   .     S
O996   Zn1003  1.938   .     S
O997   Zn1000  1.928   .     S
O998   Zn1001  1.935   .     S
O999   Zn1002  1.929   .     S
C1004  O1053   1.271   .     A
C1004  O1055   1.270   .     A
C1004  C1014   1.434   .     S
C1005  C1006   1.385   .     A
C1005  C1028   1.414   .     A
C1005  H1043   1.077   .     S
C1006  H1036   1.084   .     S
C1006  C477    1.390   1_556 S
C1007  O1056   1.276   .     A
C1007  O1054   1.286   .     A
C1007  C1013   1.457   .     S
C1008  C1010   1.402   .     A
C1008  C1009   1.422   .     A
C1009  C1012   1.416   .     A
C1009  C1029   1.427   .     A
C1010  C1011   1.388   .     A
C1010  H1045   1.084   .     S
C1011  C1023   1.394   .     A
C1011  H1035   1.084   .     S
C1012  C1023   1.395   .     A
C1012  F1033   1.358   .     S
C1013  C896    1.341   1_655 S
C1013  H916    1.088   1_655 S
C1015  C1024   1.392   .     A
C1015  C1022   1.401   .     A
C1015  H1041   1.083   .     S
C1016  C1019   1.451   .     S
C1016  C663    1.331   1_565 S
C1016  H684    1.088   1_565 S
C1017  C1018   1.435   .     S
C1018  O1057   1.280   .     A
C1018  O1051   1.280   .     A
C1019  O1058   1.271   .     A
C1019  O1052   1.272   .     A
C1020  C1023   1.450   .     S
C1020  O1047   1.276   .     A
C1020  O1049   1.272   .     A
C1021  O1050   1.285   .     A
C1021  O1048   1.281   .     A
C1021  C1022   1.470   .     S
C1022  C1025   1.398   .     A
C1024  C1027   1.402   .     A
C1024  H1040   1.084   .     S
C1025  H1037   1.076   .     S
C1025  C1026   1.407   .     A
C1026  C1027   1.418   .     A
C1026  C1028   1.424   .     A
C1027  C500    1.391   1_556 S
C1028  C498    1.425   1_556 S
C1029  C1030   1.414   .     A
C1030  C1031   1.387   .     A
C1030  H1042   1.076   .     S
C1031  H1044   1.084   .     S
F1032  C896    1.361   1_655 S
H1039  C663    1.086   1_565 S
O1046  Zn1060  1.949   .     S
O1046  Zn1059  1.963   .     S
O1046  Zn1062  1.933   .     S
O1046  Zn1061  1.935   .     S
O1047  Zn1060  1.935   .     S
O1048  Zn1062  1.947   .     S
O1049  Zn1061  1.942   .     S
O1050  Zn1059  1.932   .     S
O1051  Zn1059  1.928   .     S
O1052  Zn1062  1.930   .     S
O1053  Zn1060  1.930   .     S
O1054  Zn1061  1.942   .     S
O1055  Zn1062  1.938   .     S
O1056  Zn1059  1.928   .     S
O1057  Zn1060  1.935   .     S
O1058  Zn1061  1.929   .     S
