data_str_m3_o1_o10_pcu_sym.204
_audit_creation_date              2020-01-03
_audit_creation_method            'Materials Studio'
_symmetry_space_group_name_H-M    'P1'
_symmetry_Int_Tables_number       1
_symmetry_cell_setting            triclinic
loop_
_symmetry_equiv_pos_as_xyz
  x,y,z
_cell_length_a                    25.7997
_cell_length_b                    31.8626
_cell_length_c                    30.0153
_cell_angle_alpha                 89.7689
_cell_angle_beta                  98.8588
_cell_angle_gamma                 93.3274
loop_
_atom_site_label
_atom_site_type_symbol
_atom_site_fract_x
_atom_site_fract_y
_atom_site_fract_z
_atom_site_U_iso_or_equiv
_atom_site_adp_type
_atom_site_occupancy
C1     C     0.16592   0.08700   0.16671   0.00000  Uiso   1.00
C2     C     0.16741   0.24634   0.16662   0.00000  Uiso   1.00
C3     C     0.06719   0.16655   0.15475   0.00000  Uiso   1.00
C4     C     0.26614   0.16678   0.17858   0.00000  Uiso   1.00
C5     C     0.01198   0.16636   0.14851   0.00000  Uiso   1.00
C6     C     0.32135   0.16697   0.18482   0.00000  Uiso   1.00
C7     C     0.11768   0.01910   0.15753   0.00000  Uiso   1.00
C8     C     0.21565   0.31423   0.17580   0.00000  Uiso   1.00
C9     C     0.11864   0.30877   0.15558   0.00000  Uiso   1.00
C10    C     0.21469   0.02457   0.17775   0.00000  Uiso   1.00
C11    C     0.16741   0.29062   0.16597   0.00000  Uiso   1.00
C12    C     0.16592   0.04272   0.16736   0.00000  Uiso   1.00
C13    C     0.20080   0.19336   0.02807   0.00000  Uiso   1.00
C14    C     0.13253   0.13998   0.30527   0.00000  Uiso   1.00
C15    C     0.20084   0.19307   0.31375   0.00000  Uiso   1.00
C16    C     0.13250   0.14026   0.01958   0.00000  Uiso   1.00
H17    H     0.32455   0.16565   0.11411   0.00000  Uiso   1.00
H18    H     0.00878   0.16769   0.21923   0.00000  Uiso   1.00
N19    N     0.16665   0.16666   0.28573   0.00000  Uiso   1.00
N20    N     0.16668   0.16668   0.04760   0.00000  Uiso   1.00
O21    O     0.16666   0.10558   0.20487   0.00000  Uiso   1.00
O22    O     0.16667   0.22775   0.12846   0.00000  Uiso   1.00
O23    O     0.16666   0.10559   0.12843   0.00000  Uiso   1.00
O24    O     0.16667   0.22774   0.20490   0.00000  Uiso   1.00
O25    O     0.09058   0.16666   0.19595   0.00000  Uiso   1.00
O26    O     0.24275   0.16667   0.13739   0.00000  Uiso   1.00
O27    O     0.09058   0.16667   0.11950   0.00000  Uiso   1.00
O28    O     0.24275   0.16666   0.21383   0.00000  Uiso   1.00
Zn29   Zn    0.16667   0.16666   0.21771   0.00000  Uiso   1.00
Zn30   Zn    0.16667   0.16667   0.11563   0.00000  Uiso   1.00
C31    C     0.06554   0.03981   0.15161   0.00000  Uiso   1.00
H32    H     0.06900   0.07417   0.15766   0.00000  Uiso   1.00
H33    H     0.04430   0.03436   0.11691   0.00000  Uiso   1.00
H34    H     0.04164   0.02609   0.17624   0.00000  Uiso   1.00
C35    C     0.26779   0.29352   0.18172   0.00000  Uiso   1.00
H36    H     0.26433   0.25916   0.17567   0.00000  Uiso   1.00
H37    H     0.29170   0.30725   0.15710   0.00000  Uiso   1.00
H38    H     0.28903   0.29897   0.21642   0.00000  Uiso   1.00
C39    C     0.06868   0.28079   0.14281   0.00000  Uiso   1.00
H40    H     0.07357   0.25881   0.11537   0.00000  Uiso   1.00
H41    H     0.06011   0.26241   0.17260   0.00000  Uiso   1.00
H42    H     0.03383   0.29806   0.12957   0.00000  Uiso   1.00
C43    C     0.26465   0.05255   0.19052   0.00000  Uiso   1.00
H44    H     0.25976   0.07452   0.21796   0.00000  Uiso   1.00
H45    H     0.29950   0.03528   0.20376   0.00000  Uiso   1.00
H46    H     0.27323   0.07093   0.16074   0.00000  Uiso   1.00
C47    C     0.23914   0.22405   0.05595   0.00000  Uiso   1.00
H48    H     0.23171   0.25660   0.04439   0.00000  Uiso   1.00
H49    H     0.23699   0.22387   0.09178   0.00000  Uiso   1.00
H50    H     0.27998   0.21696   0.05253   0.00000  Uiso   1.00
C51    C     0.09420   0.10929   0.27739   0.00000  Uiso   1.00
H52    H     0.10162   0.07673   0.28895   0.00000  Uiso   1.00
H53    H     0.05336   0.11637   0.28080   0.00000  Uiso   1.00
H54    H     0.09635   0.10946   0.24155   0.00000  Uiso   1.00
I55    I     0.25593   0.23459   0.28664   0.00000  Uiso   1.00
I56    I     0.07740   0.09874   0.04669   0.00000  Uiso   1.00
C57    C     0.49926   0.08700   0.16671   0.00000  Uiso   1.00
C58    C     0.50074   0.24634   0.16662   0.00000  Uiso   1.00
C59    C     0.40053   0.16655   0.15475   0.00000  Uiso   1.00
C60    C     0.59947   0.16678   0.17858   0.00000  Uiso   1.00
C61    C     0.34532   0.16636   0.14851   0.00000  Uiso   1.00
C62    C     0.65469   0.16697   0.18482   0.00000  Uiso   1.00
C63    C     0.45102   0.01910   0.15753   0.00000  Uiso   1.00
C64    C     0.54898   0.31423   0.17580   0.00000  Uiso   1.00
C65    C     0.45198   0.30877   0.15558   0.00000  Uiso   1.00
C66    C     0.54803   0.02457   0.17775   0.00000  Uiso   1.00
C67    C     0.50074   0.29062   0.16597   0.00000  Uiso   1.00
C68    C     0.49926   0.04272   0.16736   0.00000  Uiso   1.00
C69    C     0.53414   0.19336   0.02807   0.00000  Uiso   1.00
C70    C     0.46587   0.13998   0.30527   0.00000  Uiso   1.00
C71    C     0.53417   0.19307   0.31375   0.00000  Uiso   1.00
C72    C     0.46583   0.14026   0.01958   0.00000  Uiso   1.00
H73    H     0.65788   0.16565   0.11411   0.00000  Uiso   1.00
H74    H     0.34212   0.16769   0.21923   0.00000  Uiso   1.00
N75    N     0.49999   0.16666   0.28573   0.00000  Uiso   1.00
N76    N     0.50001   0.16668   0.04760   0.00000  Uiso   1.00
O77    O     0.50000   0.10558   0.20487   0.00000  Uiso   1.00
O78    O     0.50000   0.22775   0.12846   0.00000  Uiso   1.00
O79    O     0.50000   0.10559   0.12843   0.00000  Uiso   1.00
O80    O     0.50000   0.22774   0.20490   0.00000  Uiso   1.00
O81    O     0.42392   0.16666   0.19595   0.00000  Uiso   1.00
O82    O     0.57608   0.16667   0.13739   0.00000  Uiso   1.00
O83    O     0.42392   0.16667   0.11950   0.00000  Uiso   1.00
O84    O     0.57608   0.16666   0.21383   0.00000  Uiso   1.00
Zn85   Zn    0.50000   0.16666   0.21771   0.00000  Uiso   1.00
Zn86   Zn    0.50000   0.16667   0.11563   0.00000  Uiso   1.00
C87    C     0.39888   0.03981   0.15161   0.00000  Uiso   1.00
H88    H     0.40234   0.07417   0.15766   0.00000  Uiso   1.00
H89    H     0.37763   0.03436   0.11691   0.00000  Uiso   1.00
H90    H     0.37497   0.02609   0.17624   0.00000  Uiso   1.00
C91    C     0.60112   0.29352   0.18172   0.00000  Uiso   1.00
H92    H     0.59766   0.25916   0.17567   0.00000  Uiso   1.00
H93    H     0.62503   0.30725   0.15710   0.00000  Uiso   1.00
H94    H     0.62237   0.29897   0.21642   0.00000  Uiso   1.00
C95    C     0.40202   0.28079   0.14281   0.00000  Uiso   1.00
H96    H     0.40690   0.25881   0.11537   0.00000  Uiso   1.00
H97    H     0.39344   0.26241   0.17260   0.00000  Uiso   1.00
H98    H     0.36717   0.29806   0.12957   0.00000  Uiso   1.00
C99    C     0.59798   0.05255   0.19052   0.00000  Uiso   1.00
H100   H     0.59310   0.07452   0.21796   0.00000  Uiso   1.00
H101   H     0.63283   0.03528   0.20376   0.00000  Uiso   1.00
H102   H     0.60656   0.07093   0.16074   0.00000  Uiso   1.00
C103   C     0.57247   0.22405   0.05595   0.00000  Uiso   1.00
H104   H     0.56505   0.25660   0.04439   0.00000  Uiso   1.00
H105   H     0.57032   0.22387   0.09178   0.00000  Uiso   1.00
H106   H     0.61331   0.21696   0.05253   0.00000  Uiso   1.00
C107   C     0.42753   0.10929   0.27739   0.00000  Uiso   1.00
H108   H     0.43495   0.07673   0.28895   0.00000  Uiso   1.00
H109   H     0.38669   0.11637   0.28080   0.00000  Uiso   1.00
H110   H     0.42968   0.10946   0.24155   0.00000  Uiso   1.00
I111   I     0.58926   0.23459   0.28664   0.00000  Uiso   1.00
I112   I     0.41074   0.09874   0.04669   0.00000  Uiso   1.00
C113   C     0.83259   0.08700   0.16671   0.00000  Uiso   1.00
C114   C     0.83408   0.24634   0.16662   0.00000  Uiso   1.00
C115   C     0.73386   0.16655   0.15475   0.00000  Uiso   1.00
C116   C     0.93281   0.16678   0.17858   0.00000  Uiso   1.00
C117   C     0.67865   0.16636   0.14851   0.00000  Uiso   1.00
C118   C     0.98802   0.16697   0.18482   0.00000  Uiso   1.00
C119   C     0.78435   0.01910   0.15753   0.00000  Uiso   1.00
C120   C     0.88232   0.31423   0.17580   0.00000  Uiso   1.00
C121   C     0.78531   0.30877   0.15558   0.00000  Uiso   1.00
C122   C     0.88136   0.02457   0.17775   0.00000  Uiso   1.00
C123   C     0.83408   0.29062   0.16597   0.00000  Uiso   1.00
C124   C     0.83259   0.04272   0.16736   0.00000  Uiso   1.00
C125   C     0.86747   0.19336   0.02807   0.00000  Uiso   1.00
C126   C     0.79920   0.13998   0.30527   0.00000  Uiso   1.00
C127   C     0.86750   0.19307   0.31375   0.00000  Uiso   1.00
C128   C     0.79916   0.14026   0.01958   0.00000  Uiso   1.00
H129   H     0.99122   0.16565   0.11411   0.00000  Uiso   1.00
H130   H     0.67545   0.16769   0.21923   0.00000  Uiso   1.00
N131   N     0.83332   0.16666   0.28573   0.00000  Uiso   1.00
N132   N     0.83335   0.16668   0.04760   0.00000  Uiso   1.00
O133   O     0.83333   0.10558   0.20487   0.00000  Uiso   1.00
O134   O     0.83334   0.22775   0.12846   0.00000  Uiso   1.00
O135   O     0.83333   0.10559   0.12843   0.00000  Uiso   1.00
O136   O     0.83334   0.22774   0.20490   0.00000  Uiso   1.00
O137   O     0.75725   0.16666   0.19595   0.00000  Uiso   1.00
O138   O     0.90942   0.16667   0.13739   0.00000  Uiso   1.00
O139   O     0.75725   0.16667   0.11950   0.00000  Uiso   1.00
O140   O     0.90942   0.16666   0.21383   0.00000  Uiso   1.00
Zn141  Zn    0.83333   0.16666   0.21771   0.00000  Uiso   1.00
Zn142  Zn    0.83333   0.16667   0.11563   0.00000  Uiso   1.00
C143   C     0.73221   0.03981   0.15161   0.00000  Uiso   1.00
H144   H     0.73567   0.07417   0.15766   0.00000  Uiso   1.00
H145   H     0.71097   0.03436   0.11691   0.00000  Uiso   1.00
H146   H     0.70830   0.02609   0.17624   0.00000  Uiso   1.00
C147   C     0.93446   0.29352   0.18172   0.00000  Uiso   1.00
H148   H     0.93100   0.25916   0.17567   0.00000  Uiso   1.00
H149   H     0.95836   0.30725   0.15710   0.00000  Uiso   1.00
H150   H     0.95570   0.29897   0.21642   0.00000  Uiso   1.00
C151   C     0.73535   0.28079   0.14281   0.00000  Uiso   1.00
H152   H     0.74024   0.25881   0.11537   0.00000  Uiso   1.00
H153   H     0.72677   0.26241   0.17260   0.00000  Uiso   1.00
H154   H     0.70050   0.29806   0.12957   0.00000  Uiso   1.00
C155   C     0.93132   0.05255   0.19052   0.00000  Uiso   1.00
H156   H     0.92643   0.07452   0.21796   0.00000  Uiso   1.00
H157   H     0.96617   0.03528   0.20376   0.00000  Uiso   1.00
H158   H     0.93989   0.07093   0.16074   0.00000  Uiso   1.00
C159   C     0.90580   0.22405   0.05595   0.00000  Uiso   1.00
H160   H     0.89838   0.25660   0.04439   0.00000  Uiso   1.00
H161   H     0.90365   0.22387   0.09178   0.00000  Uiso   1.00
H162   H     0.94664   0.21696   0.05253   0.00000  Uiso   1.00
C163   C     0.76086   0.10929   0.27739   0.00000  Uiso   1.00
H164   H     0.76829   0.07673   0.28895   0.00000  Uiso   1.00
H165   H     0.72002   0.11637   0.28080   0.00000  Uiso   1.00
H166   H     0.76301   0.10946   0.24155   0.00000  Uiso   1.00
I167   I     0.92260   0.23459   0.28664   0.00000  Uiso   1.00
I168   I     0.74407   0.09874   0.04669   0.00000  Uiso   1.00
C169   C     0.16592   0.42033   0.16671   0.00000  Uiso   1.00
C170   C     0.16741   0.57967   0.16662   0.00000  Uiso   1.00
C171   C     0.06719   0.49988   0.15475   0.00000  Uiso   1.00
C172   C     0.26614   0.50012   0.17858   0.00000  Uiso   1.00
C173   C     0.01198   0.49970   0.14851   0.00000  Uiso   1.00
C174   C     0.32135   0.50030   0.18482   0.00000  Uiso   1.00
C175   C     0.11768   0.35244   0.15753   0.00000  Uiso   1.00
C176   C     0.21565   0.64756   0.17580   0.00000  Uiso   1.00
C177   C     0.11864   0.64210   0.15558   0.00000  Uiso   1.00
C178   C     0.21469   0.35790   0.17775   0.00000  Uiso   1.00
C179   C     0.16741   0.62395   0.16597   0.00000  Uiso   1.00
C180   C     0.16592   0.37605   0.16736   0.00000  Uiso   1.00
C181   C     0.20080   0.52669   0.02807   0.00000  Uiso   1.00
C182   C     0.13253   0.47331   0.30527   0.00000  Uiso   1.00
C183   C     0.20084   0.52640   0.31375   0.00000  Uiso   1.00
C184   C     0.13250   0.47360   0.01958   0.00000  Uiso   1.00
H185   H     0.32455   0.49898   0.11411   0.00000  Uiso   1.00
H186   H     0.00878   0.50102   0.21923   0.00000  Uiso   1.00
N187   N     0.16665   0.49999   0.28573   0.00000  Uiso   1.00
N188   N     0.16668   0.50001   0.04760   0.00000  Uiso   1.00
O189   O     0.16666   0.43892   0.20487   0.00000  Uiso   1.00
O190   O     0.16667   0.56108   0.12846   0.00000  Uiso   1.00
O191   O     0.16666   0.43893   0.12843   0.00000  Uiso   1.00
O192   O     0.16667   0.56107   0.20490   0.00000  Uiso   1.00
O193   O     0.09058   0.50000   0.19595   0.00000  Uiso   1.00
O194   O     0.24275   0.50000   0.13739   0.00000  Uiso   1.00
O195   O     0.09058   0.50000   0.11950   0.00000  Uiso   1.00
O196   O     0.24275   0.50000   0.21383   0.00000  Uiso   1.00
Zn197  Zn    0.16667   0.49999   0.21771   0.00000  Uiso   1.00
Zn198  Zn    0.16667   0.50001   0.11563   0.00000  Uiso   1.00
C199   C     0.06554   0.37314   0.15161   0.00000  Uiso   1.00
H200   H     0.06900   0.40750   0.15766   0.00000  Uiso   1.00
H201   H     0.04430   0.36769   0.11691   0.00000  Uiso   1.00
H202   H     0.04164   0.35942   0.17624   0.00000  Uiso   1.00
C203   C     0.26779   0.62686   0.18172   0.00000  Uiso   1.00
H204   H     0.26433   0.59250   0.17567   0.00000  Uiso   1.00
H205   H     0.29170   0.64058   0.15710   0.00000  Uiso   1.00
H206   H     0.28903   0.63231   0.21642   0.00000  Uiso   1.00
C207   C     0.06868   0.61412   0.14281   0.00000  Uiso   1.00
H208   H     0.07357   0.59215   0.11537   0.00000  Uiso   1.00
H209   H     0.06011   0.59574   0.17260   0.00000  Uiso   1.00
H210   H     0.03383   0.63139   0.12957   0.00000  Uiso   1.00
C211   C     0.26465   0.38588   0.19052   0.00000  Uiso   1.00
H212   H     0.25976   0.40785   0.21796   0.00000  Uiso   1.00
H213   H     0.29950   0.36861   0.20376   0.00000  Uiso   1.00
H214   H     0.27323   0.40426   0.16074   0.00000  Uiso   1.00
C215   C     0.23914   0.55738   0.05595   0.00000  Uiso   1.00
H216   H     0.23171   0.58993   0.04439   0.00000  Uiso   1.00
H217   H     0.23699   0.55721   0.09178   0.00000  Uiso   1.00
H218   H     0.27998   0.55029   0.05253   0.00000  Uiso   1.00
C219   C     0.09420   0.44262   0.27739   0.00000  Uiso   1.00
H220   H     0.10162   0.41007   0.28895   0.00000  Uiso   1.00
H221   H     0.05336   0.44971   0.28080   0.00000  Uiso   1.00
H222   H     0.09635   0.44279   0.24155   0.00000  Uiso   1.00
I223   I     0.25593   0.56792   0.28664   0.00000  Uiso   1.00
I224   I     0.07740   0.43208   0.04669   0.00000  Uiso   1.00
C225   C     0.49926   0.42033   0.16671   0.00000  Uiso   1.00
C226   C     0.50074   0.57967   0.16662   0.00000  Uiso   1.00
C227   C     0.40053   0.49988   0.15475   0.00000  Uiso   1.00
C228   C     0.59947   0.50012   0.17858   0.00000  Uiso   1.00
C229   C     0.34532   0.49970   0.14851   0.00000  Uiso   1.00
C230   C     0.65469   0.50030   0.18482   0.00000  Uiso   1.00
C231   C     0.45102   0.35244   0.15753   0.00000  Uiso   1.00
C232   C     0.54898   0.64756   0.17580   0.00000  Uiso   1.00
C233   C     0.45198   0.64210   0.15558   0.00000  Uiso   1.00
C234   C     0.54803   0.35790   0.17775   0.00000  Uiso   1.00
C235   C     0.50074   0.62395   0.16597   0.00000  Uiso   1.00
C236   C     0.49926   0.37605   0.16736   0.00000  Uiso   1.00
C237   C     0.53414   0.52669   0.02807   0.00000  Uiso   1.00
C238   C     0.46587   0.47331   0.30527   0.00000  Uiso   1.00
C239   C     0.53417   0.52640   0.31375   0.00000  Uiso   1.00
C240   C     0.46583   0.47360   0.01958   0.00000  Uiso   1.00
H241   H     0.65788   0.49898   0.11411   0.00000  Uiso   1.00
H242   H     0.34212   0.50102   0.21923   0.00000  Uiso   1.00
N243   N     0.49999   0.49999   0.28573   0.00000  Uiso   1.00
N244   N     0.50001   0.50001   0.04760   0.00000  Uiso   1.00
O245   O     0.50000   0.43892   0.20487   0.00000  Uiso   1.00
O246   O     0.50000   0.56108   0.12846   0.00000  Uiso   1.00
O247   O     0.50000   0.43893   0.12843   0.00000  Uiso   1.00
O248   O     0.50000   0.56107   0.20490   0.00000  Uiso   1.00
O249   O     0.42392   0.50000   0.19595   0.00000  Uiso   1.00
O250   O     0.57608   0.50000   0.13739   0.00000  Uiso   1.00
O251   O     0.42392   0.50000   0.11950   0.00000  Uiso   1.00
O252   O     0.57608   0.50000   0.21383   0.00000  Uiso   1.00
Zn253  Zn    0.50000   0.49999   0.21771   0.00000  Uiso   1.00
Zn254  Zn    0.50000   0.50001   0.11563   0.00000  Uiso   1.00
C255   C     0.39888   0.37314   0.15161   0.00000  Uiso   1.00
H256   H     0.40234   0.40750   0.15766   0.00000  Uiso   1.00
H257   H     0.37763   0.36769   0.11691   0.00000  Uiso   1.00
H258   H     0.37497   0.35942   0.17624   0.00000  Uiso   1.00
C259   C     0.60112   0.62686   0.18172   0.00000  Uiso   1.00
H260   H     0.59766   0.59250   0.17567   0.00000  Uiso   1.00
H261   H     0.62503   0.64058   0.15710   0.00000  Uiso   1.00
H262   H     0.62237   0.63231   0.21642   0.00000  Uiso   1.00
C263   C     0.40202   0.61412   0.14281   0.00000  Uiso   1.00
H264   H     0.40690   0.59215   0.11537   0.00000  Uiso   1.00
H265   H     0.39344   0.59574   0.17260   0.00000  Uiso   1.00
H266   H     0.36717   0.63139   0.12957   0.00000  Uiso   1.00
C267   C     0.59798   0.38588   0.19052   0.00000  Uiso   1.00
H268   H     0.59310   0.40785   0.21796   0.00000  Uiso   1.00
H269   H     0.63283   0.36861   0.20376   0.00000  Uiso   1.00
H270   H     0.60656   0.40426   0.16074   0.00000  Uiso   1.00
C271   C     0.57247   0.55738   0.05595   0.00000  Uiso   1.00
H272   H     0.56505   0.58993   0.04439   0.00000  Uiso   1.00
H273   H     0.57032   0.55721   0.09178   0.00000  Uiso   1.00
H274   H     0.61331   0.55029   0.05253   0.00000  Uiso   1.00
C275   C     0.42753   0.44262   0.27739   0.00000  Uiso   1.00
H276   H     0.43495   0.41007   0.28895   0.00000  Uiso   1.00
H277   H     0.38669   0.44971   0.28080   0.00000  Uiso   1.00
H278   H     0.42968   0.44279   0.24155   0.00000  Uiso   1.00
I279   I     0.58926   0.56792   0.28664   0.00000  Uiso   1.00
I280   I     0.41074   0.43208   0.04669   0.00000  Uiso   1.00
C281   C     0.83259   0.42033   0.16671   0.00000  Uiso   1.00
C282   C     0.83408   0.57967   0.16662   0.00000  Uiso   1.00
C283   C     0.73386   0.49988   0.15475   0.00000  Uiso   1.00
C284   C     0.93281   0.50012   0.17858   0.00000  Uiso   1.00
C285   C     0.67865   0.49970   0.14851   0.00000  Uiso   1.00
C286   C     0.98802   0.50030   0.18482   0.00000  Uiso   1.00
C287   C     0.78435   0.35244   0.15753   0.00000  Uiso   1.00
C288   C     0.88232   0.64756   0.17580   0.00000  Uiso   1.00
C289   C     0.78531   0.64210   0.15558   0.00000  Uiso   1.00
C290   C     0.88136   0.35790   0.17775   0.00000  Uiso   1.00
C291   C     0.83408   0.62395   0.16597   0.00000  Uiso   1.00
C292   C     0.83259   0.37605   0.16736   0.00000  Uiso   1.00
C293   C     0.86747   0.52669   0.02807   0.00000  Uiso   1.00
C294   C     0.79920   0.47331   0.30527   0.00000  Uiso   1.00
C295   C     0.86750   0.52640   0.31375   0.00000  Uiso   1.00
C296   C     0.79916   0.47360   0.01958   0.00000  Uiso   1.00
H297   H     0.99122   0.49898   0.11411   0.00000  Uiso   1.00
H298   H     0.67545   0.50102   0.21923   0.00000  Uiso   1.00
N299   N     0.83332   0.49999   0.28573   0.00000  Uiso   1.00
N300   N     0.83335   0.50001   0.04760   0.00000  Uiso   1.00
O301   O     0.83333   0.43892   0.20487   0.00000  Uiso   1.00
O302   O     0.83334   0.56108   0.12846   0.00000  Uiso   1.00
O303   O     0.83333   0.43893   0.12843   0.00000  Uiso   1.00
O304   O     0.83334   0.56107   0.20490   0.00000  Uiso   1.00
O305   O     0.75725   0.50000   0.19595   0.00000  Uiso   1.00
O306   O     0.90942   0.50000   0.13739   0.00000  Uiso   1.00
O307   O     0.75725   0.50000   0.11950   0.00000  Uiso   1.00
O308   O     0.90942   0.50000   0.21383   0.00000  Uiso   1.00
Zn309  Zn    0.83333   0.49999   0.21771   0.00000  Uiso   1.00
Zn310  Zn    0.83333   0.50001   0.11563   0.00000  Uiso   1.00
C311   C     0.73221   0.37314   0.15161   0.00000  Uiso   1.00
H312   H     0.73567   0.40750   0.15766   0.00000  Uiso   1.00
H313   H     0.71097   0.36769   0.11691   0.00000  Uiso   1.00
H314   H     0.70830   0.35942   0.17624   0.00000  Uiso   1.00
C315   C     0.93446   0.62686   0.18172   0.00000  Uiso   1.00
H316   H     0.93100   0.59250   0.17567   0.00000  Uiso   1.00
H317   H     0.95836   0.64058   0.15710   0.00000  Uiso   1.00
H318   H     0.95570   0.63231   0.21642   0.00000  Uiso   1.00
C319   C     0.73535   0.61412   0.14281   0.00000  Uiso   1.00
H320   H     0.74024   0.59215   0.11537   0.00000  Uiso   1.00
H321   H     0.72677   0.59574   0.17260   0.00000  Uiso   1.00
H322   H     0.70050   0.63139   0.12957   0.00000  Uiso   1.00
C323   C     0.93132   0.38588   0.19052   0.00000  Uiso   1.00
H324   H     0.92643   0.40785   0.21796   0.00000  Uiso   1.00
H325   H     0.96617   0.36861   0.20376   0.00000  Uiso   1.00
H326   H     0.93989   0.40426   0.16074   0.00000  Uiso   1.00
C327   C     0.90580   0.55738   0.05595   0.00000  Uiso   1.00
H328   H     0.89838   0.58993   0.04439   0.00000  Uiso   1.00
H329   H     0.90365   0.55721   0.09178   0.00000  Uiso   1.00
H330   H     0.94664   0.55029   0.05253   0.00000  Uiso   1.00
C331   C     0.76086   0.44262   0.27739   0.00000  Uiso   1.00
H332   H     0.76829   0.41007   0.28895   0.00000  Uiso   1.00
H333   H     0.72002   0.44971   0.28080   0.00000  Uiso   1.00
H334   H     0.76301   0.44279   0.24155   0.00000  Uiso   1.00
I335   I     0.92260   0.56792   0.28664   0.00000  Uiso   1.00
I336   I     0.74407   0.43208   0.04669   0.00000  Uiso   1.00
C337   C     0.16592   0.75366   0.16671   0.00000  Uiso   1.00
C338   C     0.16741   0.91300   0.16662   0.00000  Uiso   1.00
C339   C     0.06719   0.83322   0.15475   0.00000  Uiso   1.00
C340   C     0.26614   0.83345   0.17858   0.00000  Uiso   1.00
C341   C     0.01198   0.83303   0.14851   0.00000  Uiso   1.00
C342   C     0.32135   0.83364   0.18482   0.00000  Uiso   1.00
C343   C     0.11768   0.68577   0.15753   0.00000  Uiso   1.00
C344   C     0.21565   0.98090   0.17580   0.00000  Uiso   1.00
C345   C     0.11864   0.97543   0.15558   0.00000  Uiso   1.00
C346   C     0.21469   0.69123   0.17775   0.00000  Uiso   1.00
C347   C     0.16741   0.95728   0.16597   0.00000  Uiso   1.00
C348   C     0.16592   0.70938   0.16736   0.00000  Uiso   1.00
C349   C     0.20080   0.86002   0.02807   0.00000  Uiso   1.00
C350   C     0.13253   0.80664   0.30527   0.00000  Uiso   1.00
C351   C     0.20084   0.85974   0.31375   0.00000  Uiso   1.00
C352   C     0.13250   0.80693   0.01958   0.00000  Uiso   1.00
H353   H     0.32455   0.83231   0.11411   0.00000  Uiso   1.00
H354   H     0.00878   0.83435   0.21923   0.00000  Uiso   1.00
N355   N     0.16665   0.83332   0.28573   0.00000  Uiso   1.00
N356   N     0.16668   0.83334   0.04760   0.00000  Uiso   1.00
O357   O     0.16666   0.77225   0.20487   0.00000  Uiso   1.00
O358   O     0.16667   0.89442   0.12846   0.00000  Uiso   1.00
O359   O     0.16666   0.77226   0.12843   0.00000  Uiso   1.00
O360   O     0.16667   0.89441   0.20490   0.00000  Uiso   1.00
O361   O     0.09058   0.83333   0.19595   0.00000  Uiso   1.00
O362   O     0.24275   0.83334   0.13739   0.00000  Uiso   1.00
O363   O     0.09058   0.83334   0.11950   0.00000  Uiso   1.00
O364   O     0.24275   0.83333   0.21383   0.00000  Uiso   1.00
Zn365  Zn    0.16667   0.83333   0.21771   0.00000  Uiso   1.00
Zn366  Zn    0.16667   0.83334   0.11563   0.00000  Uiso   1.00
C367   C     0.06554   0.70648   0.15161   0.00000  Uiso   1.00
H368   H     0.06900   0.74084   0.15766   0.00000  Uiso   1.00
H369   H     0.04430   0.70103   0.11691   0.00000  Uiso   1.00
H370   H     0.04164   0.69275   0.17624   0.00000  Uiso   1.00
C371   C     0.26779   0.96019   0.18172   0.00000  Uiso   1.00
H372   H     0.26433   0.92583   0.17567   0.00000  Uiso   1.00
H373   H     0.29170   0.97391   0.15710   0.00000  Uiso   1.00
H374   H     0.28903   0.96564   0.21642   0.00000  Uiso   1.00
C375   C     0.06868   0.94745   0.14281   0.00000  Uiso   1.00
H376   H     0.07357   0.92548   0.11537   0.00000  Uiso   1.00
H377   H     0.06011   0.92907   0.17260   0.00000  Uiso   1.00
H378   H     0.03383   0.96472   0.12957   0.00000  Uiso   1.00
C379   C     0.26465   0.71921   0.19052   0.00000  Uiso   1.00
H380   H     0.25976   0.74119   0.21796   0.00000  Uiso   1.00
H381   H     0.29950   0.70194   0.20376   0.00000  Uiso   1.00
H382   H     0.27323   0.73759   0.16074   0.00000  Uiso   1.00
C383   C     0.23914   0.89071   0.05595   0.00000  Uiso   1.00
H384   H     0.23171   0.92327   0.04439   0.00000  Uiso   1.00
H385   H     0.23699   0.89054   0.09178   0.00000  Uiso   1.00
H386   H     0.27998   0.88363   0.05253   0.00000  Uiso   1.00
C387   C     0.09420   0.77595   0.27739   0.00000  Uiso   1.00
H388   H     0.10162   0.74340   0.28895   0.00000  Uiso   1.00
H389   H     0.05336   0.78304   0.28080   0.00000  Uiso   1.00
H390   H     0.09635   0.77613   0.24155   0.00000  Uiso   1.00
I391   I     0.25593   0.90126   0.28664   0.00000  Uiso   1.00
I392   I     0.07740   0.76541   0.04669   0.00000  Uiso   1.00
C393   C     0.49926   0.75366   0.16671   0.00000  Uiso   1.00
C394   C     0.50074   0.91300   0.16662   0.00000  Uiso   1.00
C395   C     0.40053   0.83322   0.15475   0.00000  Uiso   1.00
C396   C     0.59947   0.83345   0.17858   0.00000  Uiso   1.00
C397   C     0.34532   0.83303   0.14851   0.00000  Uiso   1.00
C398   C     0.65469   0.83364   0.18482   0.00000  Uiso   1.00
C399   C     0.45102   0.68577   0.15753   0.00000  Uiso   1.00
C400   C     0.54898   0.98090   0.17580   0.00000  Uiso   1.00
C401   C     0.45198   0.97543   0.15558   0.00000  Uiso   1.00
C402   C     0.54803   0.69123   0.17775   0.00000  Uiso   1.00
C403   C     0.50074   0.95728   0.16597   0.00000  Uiso   1.00
C404   C     0.49926   0.70938   0.16736   0.00000  Uiso   1.00
C405   C     0.53414   0.86002   0.02807   0.00000  Uiso   1.00
C406   C     0.46587   0.80664   0.30527   0.00000  Uiso   1.00
C407   C     0.53417   0.85974   0.31375   0.00000  Uiso   1.00
C408   C     0.46583   0.80693   0.01958   0.00000  Uiso   1.00
H409   H     0.65788   0.83231   0.11411   0.00000  Uiso   1.00
H410   H     0.34212   0.83435   0.21923   0.00000  Uiso   1.00
N411   N     0.49999   0.83332   0.28573   0.00000  Uiso   1.00
N412   N     0.50001   0.83334   0.04760   0.00000  Uiso   1.00
O413   O     0.50000   0.77225   0.20487   0.00000  Uiso   1.00
O414   O     0.50000   0.89442   0.12846   0.00000  Uiso   1.00
O415   O     0.50000   0.77226   0.12843   0.00000  Uiso   1.00
O416   O     0.50000   0.89441   0.20490   0.00000  Uiso   1.00
O417   O     0.42392   0.83333   0.19595   0.00000  Uiso   1.00
O418   O     0.57608   0.83334   0.13739   0.00000  Uiso   1.00
O419   O     0.42392   0.83334   0.11950   0.00000  Uiso   1.00
O420   O     0.57608   0.83333   0.21383   0.00000  Uiso   1.00
Zn421  Zn    0.50000   0.83333   0.21771   0.00000  Uiso   1.00
Zn422  Zn    0.50000   0.83334   0.11563   0.00000  Uiso   1.00
C423   C     0.39888   0.70648   0.15161   0.00000  Uiso   1.00
H424   H     0.40234   0.74084   0.15766   0.00000  Uiso   1.00
H425   H     0.37763   0.70103   0.11691   0.00000  Uiso   1.00
H426   H     0.37497   0.69275   0.17624   0.00000  Uiso   1.00
C427   C     0.60112   0.96019   0.18172   0.00000  Uiso   1.00
H428   H     0.59766   0.92583   0.17567   0.00000  Uiso   1.00
H429   H     0.62503   0.97391   0.15710   0.00000  Uiso   1.00
H430   H     0.62237   0.96564   0.21642   0.00000  Uiso   1.00
C431   C     0.40202   0.94745   0.14281   0.00000  Uiso   1.00
H432   H     0.40690   0.92548   0.11537   0.00000  Uiso   1.00
H433   H     0.39344   0.92907   0.17260   0.00000  Uiso   1.00
H434   H     0.36717   0.96472   0.12957   0.00000  Uiso   1.00
C435   C     0.59798   0.71921   0.19052   0.00000  Uiso   1.00
H436   H     0.59310   0.74119   0.21796   0.00000  Uiso   1.00
H437   H     0.63283   0.70194   0.20376   0.00000  Uiso   1.00
H438   H     0.60656   0.73759   0.16074   0.00000  Uiso   1.00
C439   C     0.57247   0.89071   0.05595   0.00000  Uiso   1.00
H440   H     0.56505   0.92327   0.04439   0.00000  Uiso   1.00
H441   H     0.57032   0.89054   0.09178   0.00000  Uiso   1.00
H442   H     0.61331   0.88363   0.05253   0.00000  Uiso   1.00
C443   C     0.42753   0.77595   0.27739   0.00000  Uiso   1.00
H444   H     0.43495   0.74340   0.28895   0.00000  Uiso   1.00
H445   H     0.38669   0.78304   0.28080   0.00000  Uiso   1.00
H446   H     0.42968   0.77613   0.24155   0.00000  Uiso   1.00
I447   I     0.58926   0.90126   0.28664   0.00000  Uiso   1.00
I448   I     0.41074   0.76541   0.04669   0.00000  Uiso   1.00
C449   C     0.83259   0.75366   0.16671   0.00000  Uiso   1.00
C450   C     0.83408   0.91300   0.16662   0.00000  Uiso   1.00
C451   C     0.73386   0.83322   0.15475   0.00000  Uiso   1.00
C452   C     0.93281   0.83345   0.17858   0.00000  Uiso   1.00
C453   C     0.67865   0.83303   0.14851   0.00000  Uiso   1.00
C454   C     0.98802   0.83364   0.18482   0.00000  Uiso   1.00
C455   C     0.78435   0.68577   0.15753   0.00000  Uiso   1.00
C456   C     0.88232   0.98090   0.17580   0.00000  Uiso   1.00
C457   C     0.78531   0.97543   0.15558   0.00000  Uiso   1.00
C458   C     0.88136   0.69123   0.17775   0.00000  Uiso   1.00
C459   C     0.83408   0.95728   0.16597   0.00000  Uiso   1.00
C460   C     0.83259   0.70938   0.16736   0.00000  Uiso   1.00
C461   C     0.86747   0.86002   0.02807   0.00000  Uiso   1.00
C462   C     0.79920   0.80664   0.30527   0.00000  Uiso   1.00
C463   C     0.86750   0.85974   0.31375   0.00000  Uiso   1.00
C464   C     0.79916   0.80693   0.01958   0.00000  Uiso   1.00
H465   H     0.99122   0.83231   0.11411   0.00000  Uiso   1.00
H466   H     0.67545   0.83435   0.21923   0.00000  Uiso   1.00
N467   N     0.83332   0.83332   0.28573   0.00000  Uiso   1.00
N468   N     0.83335   0.83334   0.04760   0.00000  Uiso   1.00
O469   O     0.83333   0.77225   0.20487   0.00000  Uiso   1.00
O470   O     0.83334   0.89442   0.12846   0.00000  Uiso   1.00
O471   O     0.83333   0.77226   0.12843   0.00000  Uiso   1.00
O472   O     0.83334   0.89441   0.20490   0.00000  Uiso   1.00
O473   O     0.75725   0.83333   0.19595   0.00000  Uiso   1.00
O474   O     0.90942   0.83334   0.13739   0.00000  Uiso   1.00
O475   O     0.75725   0.83334   0.11950   0.00000  Uiso   1.00
O476   O     0.90942   0.83333   0.21383   0.00000  Uiso   1.00
Zn477  Zn    0.83333   0.83333   0.21771   0.00000  Uiso   1.00
Zn478  Zn    0.83333   0.83334   0.11563   0.00000  Uiso   1.00
C479   C     0.73221   0.70648   0.15161   0.00000  Uiso   1.00
H480   H     0.73567   0.74084   0.15766   0.00000  Uiso   1.00
H481   H     0.71097   0.70103   0.11691   0.00000  Uiso   1.00
H482   H     0.70830   0.69275   0.17624   0.00000  Uiso   1.00
C483   C     0.93446   0.96019   0.18172   0.00000  Uiso   1.00
H484   H     0.93100   0.92583   0.17567   0.00000  Uiso   1.00
H485   H     0.95836   0.97391   0.15710   0.00000  Uiso   1.00
H486   H     0.95570   0.96564   0.21642   0.00000  Uiso   1.00
C487   C     0.73535   0.94745   0.14281   0.00000  Uiso   1.00
H488   H     0.74024   0.92548   0.11537   0.00000  Uiso   1.00
H489   H     0.72677   0.92907   0.17260   0.00000  Uiso   1.00
H490   H     0.70050   0.96472   0.12957   0.00000  Uiso   1.00
C491   C     0.93132   0.71921   0.19052   0.00000  Uiso   1.00
H492   H     0.92643   0.74119   0.21796   0.00000  Uiso   1.00
H493   H     0.96617   0.70194   0.20376   0.00000  Uiso   1.00
H494   H     0.93989   0.73759   0.16074   0.00000  Uiso   1.00
C495   C     0.90580   0.89071   0.05595   0.00000  Uiso   1.00
H496   H     0.89838   0.92327   0.04439   0.00000  Uiso   1.00
H497   H     0.90365   0.89054   0.09178   0.00000  Uiso   1.00
H498   H     0.94664   0.88363   0.05253   0.00000  Uiso   1.00
C499   C     0.76086   0.77595   0.27739   0.00000  Uiso   1.00
H500   H     0.76829   0.74340   0.28895   0.00000  Uiso   1.00
H501   H     0.72002   0.78304   0.28080   0.00000  Uiso   1.00
H502   H     0.76301   0.77613   0.24155   0.00000  Uiso   1.00
I503   I     0.92260   0.90126   0.28664   0.00000  Uiso   1.00
I504   I     0.74407   0.76541   0.04669   0.00000  Uiso   1.00
C505   C     0.16592   0.08700   0.50005   0.00000  Uiso   1.00
C506   C     0.16741   0.24634   0.49995   0.00000  Uiso   1.00
C507   C     0.06719   0.16655   0.48809   0.00000  Uiso   1.00
C508   C     0.26614   0.16678   0.51191   0.00000  Uiso   1.00
C509   C     0.01198   0.16636   0.48184   0.00000  Uiso   1.00
C510   C     0.32135   0.16697   0.51816   0.00000  Uiso   1.00
C511   C     0.11768   0.01910   0.49086   0.00000  Uiso   1.00
C512   C     0.21565   0.31423   0.50914   0.00000  Uiso   1.00
C513   C     0.11864   0.30877   0.48891   0.00000  Uiso   1.00
C514   C     0.21469   0.02457   0.51109   0.00000  Uiso   1.00
C515   C     0.16741   0.29062   0.49931   0.00000  Uiso   1.00
C516   C     0.16592   0.04272   0.50069   0.00000  Uiso   1.00
C517   C     0.20080   0.19336   0.36140   0.00000  Uiso   1.00
C518   C     0.13253   0.13998   0.63860   0.00000  Uiso   1.00
C519   C     0.20084   0.19307   0.64709   0.00000  Uiso   1.00
C520   C     0.13250   0.14026   0.35291   0.00000  Uiso   1.00
H521   H     0.32455   0.16565   0.44744   0.00000  Uiso   1.00
H522   H     0.00878   0.16769   0.55256   0.00000  Uiso   1.00
N523   N     0.16665   0.16666   0.61907   0.00000  Uiso   1.00
N524   N     0.16668   0.16668   0.38093   0.00000  Uiso   1.00
O525   O     0.16666   0.10558   0.53821   0.00000  Uiso   1.00
O526   O     0.16667   0.22775   0.46179   0.00000  Uiso   1.00
O527   O     0.16666   0.10559   0.46176   0.00000  Uiso   1.00
O528   O     0.16667   0.22774   0.53824   0.00000  Uiso   1.00
O529   O     0.09058   0.16666   0.52928   0.00000  Uiso   1.00
O530   O     0.24275   0.16667   0.47072   0.00000  Uiso   1.00
O531   O     0.09058   0.16667   0.45284   0.00000  Uiso   1.00
O532   O     0.24275   0.16666   0.54716   0.00000  Uiso   1.00
Zn533  Zn    0.16667   0.16666   0.55104   0.00000  Uiso   1.00
Zn534  Zn    0.16667   0.16667   0.44896   0.00000  Uiso   1.00
C535   C     0.06554   0.03981   0.48494   0.00000  Uiso   1.00
H536   H     0.06900   0.07417   0.49099   0.00000  Uiso   1.00
H537   H     0.04430   0.03436   0.45025   0.00000  Uiso   1.00
H538   H     0.04164   0.02609   0.50957   0.00000  Uiso   1.00
C539   C     0.26779   0.29352   0.51506   0.00000  Uiso   1.00
H540   H     0.26433   0.25916   0.50901   0.00000  Uiso   1.00
H541   H     0.29170   0.30725   0.49043   0.00000  Uiso   1.00
H542   H     0.28903   0.29897   0.54975   0.00000  Uiso   1.00
C543   C     0.06868   0.28079   0.47614   0.00000  Uiso   1.00
H544   H     0.07357   0.25881   0.44870   0.00000  Uiso   1.00
H545   H     0.06011   0.26241   0.50593   0.00000  Uiso   1.00
H546   H     0.03383   0.29806   0.46290   0.00000  Uiso   1.00
C547   C     0.26465   0.05255   0.52386   0.00000  Uiso   1.00
H548   H     0.25976   0.07452   0.55130   0.00000  Uiso   1.00
H549   H     0.29950   0.03528   0.53710   0.00000  Uiso   1.00
H550   H     0.27323   0.07093   0.49407   0.00000  Uiso   1.00
C551   C     0.23914   0.22405   0.38928   0.00000  Uiso   1.00
H552   H     0.23171   0.25660   0.37772   0.00000  Uiso   1.00
H553   H     0.23699   0.22387   0.42511   0.00000  Uiso   1.00
H554   H     0.27998   0.21696   0.38587   0.00000  Uiso   1.00
C555   C     0.09420   0.10929   0.61072   0.00000  Uiso   1.00
H556   H     0.10162   0.07673   0.62228   0.00000  Uiso   1.00
H557   H     0.05336   0.11637   0.61413   0.00000  Uiso   1.00
H558   H     0.09635   0.10946   0.57489   0.00000  Uiso   1.00
I559   I     0.25593   0.23459   0.61997   0.00000  Uiso   1.00
I560   I     0.07740   0.09874   0.38003   0.00000  Uiso   1.00
C561   C     0.49926   0.08700   0.50005   0.00000  Uiso   1.00
C562   C     0.50074   0.24634   0.49995   0.00000  Uiso   1.00
C563   C     0.40053   0.16655   0.48809   0.00000  Uiso   1.00
C564   C     0.59947   0.16678   0.51191   0.00000  Uiso   1.00
C565   C     0.34532   0.16636   0.48184   0.00000  Uiso   1.00
C566   C     0.65469   0.16697   0.51816   0.00000  Uiso   1.00
C567   C     0.45102   0.01910   0.49086   0.00000  Uiso   1.00
C568   C     0.54898   0.31423   0.50914   0.00000  Uiso   1.00
C569   C     0.45198   0.30877   0.48891   0.00000  Uiso   1.00
C570   C     0.54803   0.02457   0.51109   0.00000  Uiso   1.00
C571   C     0.50074   0.29062   0.49931   0.00000  Uiso   1.00
C572   C     0.49926   0.04272   0.50069   0.00000  Uiso   1.00
C573   C     0.53414   0.19336   0.36140   0.00000  Uiso   1.00
C574   C     0.46587   0.13998   0.63860   0.00000  Uiso   1.00
C575   C     0.53417   0.19307   0.64709   0.00000  Uiso   1.00
C576   C     0.46583   0.14026   0.35291   0.00000  Uiso   1.00
H577   H     0.65788   0.16565   0.44744   0.00000  Uiso   1.00
H578   H     0.34212   0.16769   0.55256   0.00000  Uiso   1.00
N579   N     0.49999   0.16666   0.61907   0.00000  Uiso   1.00
N580   N     0.50001   0.16668   0.38093   0.00000  Uiso   1.00
O581   O     0.50000   0.10558   0.53821   0.00000  Uiso   1.00
O582   O     0.50000   0.22775   0.46179   0.00000  Uiso   1.00
O583   O     0.50000   0.10559   0.46176   0.00000  Uiso   1.00
O584   O     0.50000   0.22774   0.53824   0.00000  Uiso   1.00
O585   O     0.42392   0.16666   0.52928   0.00000  Uiso   1.00
O586   O     0.57608   0.16667   0.47072   0.00000  Uiso   1.00
O587   O     0.42392   0.16667   0.45284   0.00000  Uiso   1.00
O588   O     0.57608   0.16666   0.54716   0.00000  Uiso   1.00
Zn589  Zn    0.50000   0.16666   0.55104   0.00000  Uiso   1.00
Zn590  Zn    0.50000   0.16667   0.44896   0.00000  Uiso   1.00
C591   C     0.39888   0.03981   0.48494   0.00000  Uiso   1.00
H592   H     0.40234   0.07417   0.49099   0.00000  Uiso   1.00
H593   H     0.37763   0.03436   0.45025   0.00000  Uiso   1.00
H594   H     0.37497   0.02609   0.50957   0.00000  Uiso   1.00
C595   C     0.60112   0.29352   0.51506   0.00000  Uiso   1.00
H596   H     0.59766   0.25916   0.50901   0.00000  Uiso   1.00
H597   H     0.62503   0.30725   0.49043   0.00000  Uiso   1.00
H598   H     0.62237   0.29897   0.54975   0.00000  Uiso   1.00
C599   C     0.40202   0.28079   0.47614   0.00000  Uiso   1.00
H600   H     0.40690   0.25881   0.44870   0.00000  Uiso   1.00
H601   H     0.39344   0.26241   0.50593   0.00000  Uiso   1.00
H602   H     0.36717   0.29806   0.46290   0.00000  Uiso   1.00
C603   C     0.59798   0.05255   0.52386   0.00000  Uiso   1.00
H604   H     0.59310   0.07452   0.55130   0.00000  Uiso   1.00
H605   H     0.63283   0.03528   0.53710   0.00000  Uiso   1.00
H606   H     0.60656   0.07093   0.49407   0.00000  Uiso   1.00
C607   C     0.57247   0.22405   0.38928   0.00000  Uiso   1.00
H608   H     0.56505   0.25660   0.37772   0.00000  Uiso   1.00
H609   H     0.57032   0.22387   0.42511   0.00000  Uiso   1.00
H610   H     0.61331   0.21696   0.38587   0.00000  Uiso   1.00
C611   C     0.42753   0.10929   0.61072   0.00000  Uiso   1.00
H612   H     0.43495   0.07673   0.62228   0.00000  Uiso   1.00
H613   H     0.38669   0.11637   0.61413   0.00000  Uiso   1.00
H614   H     0.42968   0.10946   0.57489   0.00000  Uiso   1.00
I615   I     0.58926   0.23459   0.61997   0.00000  Uiso   1.00
I616   I     0.41074   0.09874   0.38003   0.00000  Uiso   1.00
C617   C     0.83259   0.08700   0.50005   0.00000  Uiso   1.00
C618   C     0.83408   0.24634   0.49995   0.00000  Uiso   1.00
C619   C     0.73386   0.16655   0.48809   0.00000  Uiso   1.00
C620   C     0.93281   0.16678   0.51191   0.00000  Uiso   1.00
C621   C     0.67865   0.16636   0.48184   0.00000  Uiso   1.00
C622   C     0.98802   0.16697   0.51816   0.00000  Uiso   1.00
C623   C     0.78435   0.01910   0.49086   0.00000  Uiso   1.00
C624   C     0.88232   0.31423   0.50914   0.00000  Uiso   1.00
C625   C     0.78531   0.30877   0.48891   0.00000  Uiso   1.00
C626   C     0.88136   0.02457   0.51109   0.00000  Uiso   1.00
C627   C     0.83408   0.29062   0.49931   0.00000  Uiso   1.00
C628   C     0.83259   0.04272   0.50069   0.00000  Uiso   1.00
C629   C     0.86747   0.19336   0.36140   0.00000  Uiso   1.00
C630   C     0.79920   0.13998   0.63860   0.00000  Uiso   1.00
C631   C     0.86750   0.19307   0.64709   0.00000  Uiso   1.00
C632   C     0.79916   0.14026   0.35291   0.00000  Uiso   1.00
H633   H     0.99122   0.16565   0.44744   0.00000  Uiso   1.00
H634   H     0.67545   0.16769   0.55256   0.00000  Uiso   1.00
N635   N     0.83332   0.16666   0.61907   0.00000  Uiso   1.00
N636   N     0.83335   0.16668   0.38093   0.00000  Uiso   1.00
O637   O     0.83333   0.10558   0.53821   0.00000  Uiso   1.00
O638   O     0.83334   0.22775   0.46179   0.00000  Uiso   1.00
O639   O     0.83333   0.10559   0.46176   0.00000  Uiso   1.00
O640   O     0.83334   0.22774   0.53824   0.00000  Uiso   1.00
O641   O     0.75725   0.16666   0.52928   0.00000  Uiso   1.00
O642   O     0.90942   0.16667   0.47072   0.00000  Uiso   1.00
O643   O     0.75725   0.16667   0.45284   0.00000  Uiso   1.00
O644   O     0.90942   0.16666   0.54716   0.00000  Uiso   1.00
Zn645  Zn    0.83333   0.16666   0.55104   0.00000  Uiso   1.00
Zn646  Zn    0.83333   0.16667   0.44896   0.00000  Uiso   1.00
C647   C     0.73221   0.03981   0.48494   0.00000  Uiso   1.00
H648   H     0.73567   0.07417   0.49099   0.00000  Uiso   1.00
H649   H     0.71097   0.03436   0.45025   0.00000  Uiso   1.00
H650   H     0.70830   0.02609   0.50957   0.00000  Uiso   1.00
C651   C     0.93446   0.29352   0.51506   0.00000  Uiso   1.00
H652   H     0.93100   0.25916   0.50901   0.00000  Uiso   1.00
H653   H     0.95836   0.30725   0.49043   0.00000  Uiso   1.00
H654   H     0.95570   0.29897   0.54975   0.00000  Uiso   1.00
C655   C     0.73535   0.28079   0.47614   0.00000  Uiso   1.00
H656   H     0.74024   0.25881   0.44870   0.00000  Uiso   1.00
H657   H     0.72677   0.26241   0.50593   0.00000  Uiso   1.00
H658   H     0.70050   0.29806   0.46290   0.00000  Uiso   1.00
C659   C     0.93132   0.05255   0.52386   0.00000  Uiso   1.00
H660   H     0.92643   0.07452   0.55130   0.00000  Uiso   1.00
H661   H     0.96617   0.03528   0.53710   0.00000  Uiso   1.00
H662   H     0.93989   0.07093   0.49407   0.00000  Uiso   1.00
C663   C     0.90580   0.22405   0.38928   0.00000  Uiso   1.00
H664   H     0.89838   0.25660   0.37772   0.00000  Uiso   1.00
H665   H     0.90365   0.22387   0.42511   0.00000  Uiso   1.00
H666   H     0.94664   0.21696   0.38587   0.00000  Uiso   1.00
C667   C     0.76086   0.10929   0.61072   0.00000  Uiso   1.00
H668   H     0.76829   0.07673   0.62228   0.00000  Uiso   1.00
H669   H     0.72002   0.11637   0.61413   0.00000  Uiso   1.00
H670   H     0.76301   0.10946   0.57489   0.00000  Uiso   1.00
I671   I     0.92260   0.23459   0.61997   0.00000  Uiso   1.00
I672   I     0.74407   0.09874   0.38003   0.00000  Uiso   1.00
C673   C     0.16592   0.42033   0.50005   0.00000  Uiso   1.00
C674   C     0.16741   0.57967   0.49995   0.00000  Uiso   1.00
C675   C     0.06719   0.49988   0.48809   0.00000  Uiso   1.00
C676   C     0.26614   0.50012   0.51191   0.00000  Uiso   1.00
C677   C     0.01198   0.49970   0.48184   0.00000  Uiso   1.00
C678   C     0.32135   0.50030   0.51816   0.00000  Uiso   1.00
C679   C     0.11768   0.35244   0.49086   0.00000  Uiso   1.00
C680   C     0.21565   0.64756   0.50914   0.00000  Uiso   1.00
C681   C     0.11864   0.64210   0.48891   0.00000  Uiso   1.00
C682   C     0.21469   0.35790   0.51109   0.00000  Uiso   1.00
C683   C     0.16741   0.62395   0.49931   0.00000  Uiso   1.00
C684   C     0.16592   0.37605   0.50069   0.00000  Uiso   1.00
C685   C     0.20080   0.52669   0.36140   0.00000  Uiso   1.00
C686   C     0.13253   0.47331   0.63860   0.00000  Uiso   1.00
C687   C     0.20084   0.52640   0.64709   0.00000  Uiso   1.00
C688   C     0.13250   0.47360   0.35291   0.00000  Uiso   1.00
H689   H     0.32455   0.49898   0.44744   0.00000  Uiso   1.00
H690   H     0.00878   0.50102   0.55256   0.00000  Uiso   1.00
N691   N     0.16665   0.49999   0.61907   0.00000  Uiso   1.00
N692   N     0.16668   0.50001   0.38093   0.00000  Uiso   1.00
O693   O     0.16666   0.43892   0.53821   0.00000  Uiso   1.00
O694   O     0.16667   0.56108   0.46179   0.00000  Uiso   1.00
O695   O     0.16666   0.43893   0.46176   0.00000  Uiso   1.00
O696   O     0.16667   0.56107   0.53824   0.00000  Uiso   1.00
O697   O     0.09058   0.50000   0.52928   0.00000  Uiso   1.00
O698   O     0.24275   0.50000   0.47072   0.00000  Uiso   1.00
O699   O     0.09058   0.50000   0.45284   0.00000  Uiso   1.00
O700   O     0.24275   0.50000   0.54716   0.00000  Uiso   1.00
Zn701  Zn    0.16667   0.49999   0.55104   0.00000  Uiso   1.00
Zn702  Zn    0.16667   0.50001   0.44896   0.00000  Uiso   1.00
C703   C     0.06554   0.37314   0.48494   0.00000  Uiso   1.00
H704   H     0.06900   0.40750   0.49099   0.00000  Uiso   1.00
H705   H     0.04430   0.36769   0.45025   0.00000  Uiso   1.00
H706   H     0.04164   0.35942   0.50957   0.00000  Uiso   1.00
C707   C     0.26779   0.62686   0.51506   0.00000  Uiso   1.00
H708   H     0.26433   0.59250   0.50901   0.00000  Uiso   1.00
H709   H     0.29170   0.64058   0.49043   0.00000  Uiso   1.00
H710   H     0.28903   0.63231   0.54975   0.00000  Uiso   1.00
C711   C     0.06868   0.61412   0.47614   0.00000  Uiso   1.00
H712   H     0.07357   0.59215   0.44870   0.00000  Uiso   1.00
H713   H     0.06011   0.59574   0.50593   0.00000  Uiso   1.00
H714   H     0.03383   0.63139   0.46290   0.00000  Uiso   1.00
C715   C     0.26465   0.38588   0.52386   0.00000  Uiso   1.00
H716   H     0.25976   0.40785   0.55130   0.00000  Uiso   1.00
H717   H     0.29950   0.36861   0.53710   0.00000  Uiso   1.00
H718   H     0.27323   0.40426   0.49407   0.00000  Uiso   1.00
C719   C     0.23914   0.55738   0.38928   0.00000  Uiso   1.00
H720   H     0.23171   0.58993   0.37772   0.00000  Uiso   1.00
H721   H     0.23699   0.55721   0.42511   0.00000  Uiso   1.00
H722   H     0.27998   0.55029   0.38587   0.00000  Uiso   1.00
C723   C     0.09420   0.44262   0.61072   0.00000  Uiso   1.00
H724   H     0.10162   0.41007   0.62228   0.00000  Uiso   1.00
H725   H     0.05336   0.44971   0.61413   0.00000  Uiso   1.00
H726   H     0.09635   0.44279   0.57489   0.00000  Uiso   1.00
I727   I     0.25593   0.56792   0.61997   0.00000  Uiso   1.00
I728   I     0.07740   0.43208   0.38003   0.00000  Uiso   1.00
C729   C     0.49926   0.42033   0.50005   0.00000  Uiso   1.00
C730   C     0.50074   0.57967   0.49995   0.00000  Uiso   1.00
C731   C     0.40053   0.49988   0.48809   0.00000  Uiso   1.00
C732   C     0.59947   0.50012   0.51191   0.00000  Uiso   1.00
C733   C     0.34532   0.49970   0.48184   0.00000  Uiso   1.00
C734   C     0.65469   0.50030   0.51816   0.00000  Uiso   1.00
C735   C     0.45102   0.35244   0.49086   0.00000  Uiso   1.00
C736   C     0.54898   0.64756   0.50914   0.00000  Uiso   1.00
C737   C     0.45198   0.64210   0.48891   0.00000  Uiso   1.00
C738   C     0.54803   0.35790   0.51109   0.00000  Uiso   1.00
C739   C     0.50074   0.62395   0.49931   0.00000  Uiso   1.00
C740   C     0.49926   0.37605   0.50069   0.00000  Uiso   1.00
C741   C     0.53414   0.52669   0.36140   0.00000  Uiso   1.00
C742   C     0.46587   0.47331   0.63860   0.00000  Uiso   1.00
C743   C     0.53417   0.52640   0.64709   0.00000  Uiso   1.00
C744   C     0.46583   0.47360   0.35291   0.00000  Uiso   1.00
H745   H     0.65788   0.49898   0.44744   0.00000  Uiso   1.00
H746   H     0.34212   0.50102   0.55256   0.00000  Uiso   1.00
N747   N     0.49999   0.49999   0.61907   0.00000  Uiso   1.00
N748   N     0.50001   0.50001   0.38093   0.00000  Uiso   1.00
O749   O     0.50000   0.43892   0.53821   0.00000  Uiso   1.00
O750   O     0.50000   0.56108   0.46179   0.00000  Uiso   1.00
O751   O     0.50000   0.43893   0.46176   0.00000  Uiso   1.00
O752   O     0.50000   0.56107   0.53824   0.00000  Uiso   1.00
O753   O     0.42392   0.50000   0.52928   0.00000  Uiso   1.00
O754   O     0.57608   0.50000   0.47072   0.00000  Uiso   1.00
O755   O     0.42392   0.50000   0.45284   0.00000  Uiso   1.00
O756   O     0.57608   0.50000   0.54716   0.00000  Uiso   1.00
Zn757  Zn    0.50000   0.49999   0.55104   0.00000  Uiso   1.00
Zn758  Zn    0.50000   0.50001   0.44896   0.00000  Uiso   1.00
C759   C     0.39888   0.37314   0.48494   0.00000  Uiso   1.00
H760   H     0.40234   0.40750   0.49099   0.00000  Uiso   1.00
H761   H     0.37763   0.36769   0.45025   0.00000  Uiso   1.00
H762   H     0.37497   0.35942   0.50957   0.00000  Uiso   1.00
C763   C     0.60112   0.62686   0.51506   0.00000  Uiso   1.00
H764   H     0.59766   0.59250   0.50901   0.00000  Uiso   1.00
H765   H     0.62503   0.64058   0.49043   0.00000  Uiso   1.00
H766   H     0.62237   0.63231   0.54975   0.00000  Uiso   1.00
C767   C     0.40202   0.61412   0.47614   0.00000  Uiso   1.00
H768   H     0.40690   0.59215   0.44870   0.00000  Uiso   1.00
H769   H     0.39344   0.59574   0.50593   0.00000  Uiso   1.00
H770   H     0.36717   0.63139   0.46290   0.00000  Uiso   1.00
C771   C     0.59798   0.38588   0.52386   0.00000  Uiso   1.00
H772   H     0.59310   0.40785   0.55130   0.00000  Uiso   1.00
H773   H     0.63283   0.36861   0.53710   0.00000  Uiso   1.00
H774   H     0.60656   0.40426   0.49407   0.00000  Uiso   1.00
C775   C     0.57247   0.55738   0.38928   0.00000  Uiso   1.00
H776   H     0.56505   0.58993   0.37772   0.00000  Uiso   1.00
H777   H     0.57032   0.55721   0.42511   0.00000  Uiso   1.00
H778   H     0.61331   0.55029   0.38587   0.00000  Uiso   1.00
C779   C     0.42753   0.44262   0.61072   0.00000  Uiso   1.00
H780   H     0.43495   0.41007   0.62228   0.00000  Uiso   1.00
H781   H     0.38669   0.44971   0.61413   0.00000  Uiso   1.00
H782   H     0.42968   0.44279   0.57489   0.00000  Uiso   1.00
I783   I     0.58926   0.56792   0.61997   0.00000  Uiso   1.00
I784   I     0.41074   0.43208   0.38003   0.00000  Uiso   1.00
C785   C     0.83259   0.42033   0.50005   0.00000  Uiso   1.00
C786   C     0.83408   0.57967   0.49995   0.00000  Uiso   1.00
C787   C     0.73386   0.49988   0.48809   0.00000  Uiso   1.00
C788   C     0.93281   0.50012   0.51191   0.00000  Uiso   1.00
C789   C     0.67865   0.49970   0.48184   0.00000  Uiso   1.00
C790   C     0.98802   0.50030   0.51816   0.00000  Uiso   1.00
C791   C     0.78435   0.35244   0.49086   0.00000  Uiso   1.00
C792   C     0.88232   0.64756   0.50914   0.00000  Uiso   1.00
C793   C     0.78531   0.64210   0.48891   0.00000  Uiso   1.00
C794   C     0.88136   0.35790   0.51109   0.00000  Uiso   1.00
C795   C     0.83408   0.62395   0.49931   0.00000  Uiso   1.00
C796   C     0.83259   0.37605   0.50069   0.00000  Uiso   1.00
C797   C     0.86747   0.52669   0.36140   0.00000  Uiso   1.00
C798   C     0.79920   0.47331   0.63860   0.00000  Uiso   1.00
C799   C     0.86750   0.52640   0.64709   0.00000  Uiso   1.00
C800   C     0.79916   0.47360   0.35291   0.00000  Uiso   1.00
H801   H     0.99122   0.49898   0.44744   0.00000  Uiso   1.00
H802   H     0.67545   0.50102   0.55256   0.00000  Uiso   1.00
N803   N     0.83332   0.49999   0.61907   0.00000  Uiso   1.00
N804   N     0.83335   0.50001   0.38093   0.00000  Uiso   1.00
O805   O     0.83333   0.43892   0.53821   0.00000  Uiso   1.00
O806   O     0.83334   0.56108   0.46179   0.00000  Uiso   1.00
O807   O     0.83333   0.43893   0.46176   0.00000  Uiso   1.00
O808   O     0.83334   0.56107   0.53824   0.00000  Uiso   1.00
O809   O     0.75725   0.50000   0.52928   0.00000  Uiso   1.00
O810   O     0.90942   0.50000   0.47072   0.00000  Uiso   1.00
O811   O     0.75725   0.50000   0.45284   0.00000  Uiso   1.00
O812   O     0.90942   0.50000   0.54716   0.00000  Uiso   1.00
Zn813  Zn    0.83333   0.49999   0.55104   0.00000  Uiso   1.00
Zn814  Zn    0.83333   0.50001   0.44896   0.00000  Uiso   1.00
C815   C     0.73221   0.37314   0.48494   0.00000  Uiso   1.00
H816   H     0.73567   0.40750   0.49099   0.00000  Uiso   1.00
H817   H     0.71097   0.36769   0.45025   0.00000  Uiso   1.00
H818   H     0.70830   0.35942   0.50957   0.00000  Uiso   1.00
C819   C     0.93446   0.62686   0.51506   0.00000  Uiso   1.00
H820   H     0.93100   0.59250   0.50901   0.00000  Uiso   1.00
H821   H     0.95836   0.64058   0.49043   0.00000  Uiso   1.00
H822   H     0.95570   0.63231   0.54975   0.00000  Uiso   1.00
C823   C     0.73535   0.61412   0.47614   0.00000  Uiso   1.00
H824   H     0.74024   0.59215   0.44870   0.00000  Uiso   1.00
H825   H     0.72677   0.59574   0.50593   0.00000  Uiso   1.00
H826   H     0.70050   0.63139   0.46290   0.00000  Uiso   1.00
C827   C     0.93132   0.38588   0.52386   0.00000  Uiso   1.00
H828   H     0.92643   0.40785   0.55130   0.00000  Uiso   1.00
H829   H     0.96617   0.36861   0.53710   0.00000  Uiso   1.00
H830   H     0.93989   0.40426   0.49407   0.00000  Uiso   1.00
C831   C     0.90580   0.55738   0.38928   0.00000  Uiso   1.00
H832   H     0.89838   0.58993   0.37772   0.00000  Uiso   1.00
H833   H     0.90365   0.55721   0.42511   0.00000  Uiso   1.00
H834   H     0.94664   0.55029   0.38587   0.00000  Uiso   1.00
C835   C     0.76086   0.44262   0.61072   0.00000  Uiso   1.00
H836   H     0.76829   0.41007   0.62228   0.00000  Uiso   1.00
H837   H     0.72002   0.44971   0.61413   0.00000  Uiso   1.00
H838   H     0.76301   0.44279   0.57489   0.00000  Uiso   1.00
I839   I     0.92260   0.56792   0.61997   0.00000  Uiso   1.00
I840   I     0.74407   0.43208   0.38003   0.00000  Uiso   1.00
C841   C     0.16592   0.75366   0.50005   0.00000  Uiso   1.00
C842   C     0.16741   0.91300   0.49995   0.00000  Uiso   1.00
C843   C     0.06719   0.83322   0.48809   0.00000  Uiso   1.00
C844   C     0.26614   0.83345   0.51191   0.00000  Uiso   1.00
C845   C     0.01198   0.83303   0.48184   0.00000  Uiso   1.00
C846   C     0.32135   0.83364   0.51816   0.00000  Uiso   1.00
C847   C     0.11768   0.68577   0.49086   0.00000  Uiso   1.00
C848   C     0.21565   0.98090   0.50914   0.00000  Uiso   1.00
C849   C     0.11864   0.97543   0.48891   0.00000  Uiso   1.00
C850   C     0.21469   0.69123   0.51109   0.00000  Uiso   1.00
C851   C     0.16741   0.95728   0.49931   0.00000  Uiso   1.00
C852   C     0.16592   0.70938   0.50069   0.00000  Uiso   1.00
C853   C     0.20080   0.86002   0.36140   0.00000  Uiso   1.00
C854   C     0.13253   0.80664   0.63860   0.00000  Uiso   1.00
C855   C     0.20084   0.85974   0.64709   0.00000  Uiso   1.00
C856   C     0.13250   0.80693   0.35291   0.00000  Uiso   1.00
H857   H     0.32455   0.83231   0.44744   0.00000  Uiso   1.00
H858   H     0.00878   0.83435   0.55256   0.00000  Uiso   1.00
N859   N     0.16665   0.83332   0.61907   0.00000  Uiso   1.00
N860   N     0.16668   0.83334   0.38093   0.00000  Uiso   1.00
O861   O     0.16666   0.77225   0.53821   0.00000  Uiso   1.00
O862   O     0.16667   0.89442   0.46179   0.00000  Uiso   1.00
O863   O     0.16666   0.77226   0.46176   0.00000  Uiso   1.00
O864   O     0.16667   0.89441   0.53824   0.00000  Uiso   1.00
O865   O     0.09058   0.83333   0.52928   0.00000  Uiso   1.00
O866   O     0.24275   0.83334   0.47072   0.00000  Uiso   1.00
O867   O     0.09058   0.83334   0.45284   0.00000  Uiso   1.00
O868   O     0.24275   0.83333   0.54716   0.00000  Uiso   1.00
Zn869  Zn    0.16667   0.83333   0.55104   0.00000  Uiso   1.00
Zn870  Zn    0.16667   0.83334   0.44896   0.00000  Uiso   1.00
C871   C     0.06554   0.70648   0.48494   0.00000  Uiso   1.00
H872   H     0.06900   0.74084   0.49099   0.00000  Uiso   1.00
H873   H     0.04430   0.70103   0.45025   0.00000  Uiso   1.00
H874   H     0.04164   0.69275   0.50957   0.00000  Uiso   1.00
C875   C     0.26779   0.96019   0.51506   0.00000  Uiso   1.00
H876   H     0.26433   0.92583   0.50901   0.00000  Uiso   1.00
H877   H     0.29170   0.97391   0.49043   0.00000  Uiso   1.00
H878   H     0.28903   0.96564   0.54975   0.00000  Uiso   1.00
C879   C     0.06868   0.94745   0.47614   0.00000  Uiso   1.00
H880   H     0.07357   0.92548   0.44870   0.00000  Uiso   1.00
H881   H     0.06011   0.92907   0.50593   0.00000  Uiso   1.00
H882   H     0.03383   0.96472   0.46290   0.00000  Uiso   1.00
C883   C     0.26465   0.71921   0.52386   0.00000  Uiso   1.00
H884   H     0.25976   0.74119   0.55130   0.00000  Uiso   1.00
H885   H     0.29950   0.70194   0.53710   0.00000  Uiso   1.00
H886   H     0.27323   0.73759   0.49407   0.00000  Uiso   1.00
C887   C     0.23914   0.89071   0.38928   0.00000  Uiso   1.00
H888   H     0.23171   0.92327   0.37772   0.00000  Uiso   1.00
H889   H     0.23699   0.89054   0.42511   0.00000  Uiso   1.00
H890   H     0.27998   0.88363   0.38587   0.00000  Uiso   1.00
C891   C     0.09420   0.77595   0.61072   0.00000  Uiso   1.00
H892   H     0.10162   0.74340   0.62228   0.00000  Uiso   1.00
H893   H     0.05336   0.78304   0.61413   0.00000  Uiso   1.00
H894   H     0.09635   0.77613   0.57489   0.00000  Uiso   1.00
I895   I     0.25593   0.90126   0.61997   0.00000  Uiso   1.00
I896   I     0.07740   0.76541   0.38003   0.00000  Uiso   1.00
C897   C     0.49926   0.75366   0.50005   0.00000  Uiso   1.00
C898   C     0.50074   0.91300   0.49995   0.00000  Uiso   1.00
C899   C     0.40053   0.83322   0.48809   0.00000  Uiso   1.00
C900   C     0.59947   0.83345   0.51191   0.00000  Uiso   1.00
C901   C     0.34532   0.83303   0.48184   0.00000  Uiso   1.00
C902   C     0.65469   0.83364   0.51816   0.00000  Uiso   1.00
C903   C     0.45102   0.68577   0.49086   0.00000  Uiso   1.00
C904   C     0.54898   0.98090   0.50914   0.00000  Uiso   1.00
C905   C     0.45198   0.97543   0.48891   0.00000  Uiso   1.00
C906   C     0.54803   0.69123   0.51109   0.00000  Uiso   1.00
C907   C     0.50074   0.95728   0.49931   0.00000  Uiso   1.00
C908   C     0.49926   0.70938   0.50069   0.00000  Uiso   1.00
C909   C     0.53414   0.86002   0.36140   0.00000  Uiso   1.00
C910   C     0.46587   0.80664   0.63860   0.00000  Uiso   1.00
C911   C     0.53417   0.85974   0.64709   0.00000  Uiso   1.00
C912   C     0.46583   0.80693   0.35291   0.00000  Uiso   1.00
H913   H     0.65788   0.83231   0.44744   0.00000  Uiso   1.00
H914   H     0.34212   0.83435   0.55256   0.00000  Uiso   1.00
N915   N     0.49999   0.83332   0.61907   0.00000  Uiso   1.00
N916   N     0.50001   0.83334   0.38093   0.00000  Uiso   1.00
O917   O     0.50000   0.77225   0.53821   0.00000  Uiso   1.00
O918   O     0.50000   0.89442   0.46179   0.00000  Uiso   1.00
O919   O     0.50000   0.77226   0.46176   0.00000  Uiso   1.00
O920   O     0.50000   0.89441   0.53824   0.00000  Uiso   1.00
O921   O     0.42392   0.83333   0.52928   0.00000  Uiso   1.00
O922   O     0.57608   0.83334   0.47072   0.00000  Uiso   1.00
O923   O     0.42392   0.83334   0.45284   0.00000  Uiso   1.00
O924   O     0.57608   0.83333   0.54716   0.00000  Uiso   1.00
Zn925  Zn    0.50000   0.83333   0.55104   0.00000  Uiso   1.00
Zn926  Zn    0.50000   0.83334   0.44896   0.00000  Uiso   1.00
C927   C     0.39888   0.70648   0.48494   0.00000  Uiso   1.00
H928   H     0.40234   0.74084   0.49099   0.00000  Uiso   1.00
H929   H     0.37763   0.70103   0.45025   0.00000  Uiso   1.00
H930   H     0.37497   0.69275   0.50957   0.00000  Uiso   1.00
C931   C     0.60112   0.96019   0.51506   0.00000  Uiso   1.00
H932   H     0.59766   0.92583   0.50901   0.00000  Uiso   1.00
H933   H     0.62503   0.97391   0.49043   0.00000  Uiso   1.00
H934   H     0.62237   0.96564   0.54975   0.00000  Uiso   1.00
C935   C     0.40202   0.94745   0.47614   0.00000  Uiso   1.00
H936   H     0.40690   0.92548   0.44870   0.00000  Uiso   1.00
H937   H     0.39344   0.92907   0.50593   0.00000  Uiso   1.00
H938   H     0.36717   0.96472   0.46290   0.00000  Uiso   1.00
C939   C     0.59798   0.71921   0.52386   0.00000  Uiso   1.00
H940   H     0.59310   0.74119   0.55130   0.00000  Uiso   1.00
H941   H     0.63283   0.70194   0.53710   0.00000  Uiso   1.00
H942   H     0.60656   0.73759   0.49407   0.00000  Uiso   1.00
C943   C     0.57247   0.89071   0.38928   0.00000  Uiso   1.00
H944   H     0.56505   0.92327   0.37772   0.00000  Uiso   1.00
H945   H     0.57032   0.89054   0.42511   0.00000  Uiso   1.00
H946   H     0.61331   0.88363   0.38587   0.00000  Uiso   1.00
C947   C     0.42753   0.77595   0.61072   0.00000  Uiso   1.00
H948   H     0.43495   0.74340   0.62228   0.00000  Uiso   1.00
H949   H     0.38669   0.78304   0.61413   0.00000  Uiso   1.00
H950   H     0.42968   0.77613   0.57489   0.00000  Uiso   1.00
I951   I     0.58926   0.90126   0.61997   0.00000  Uiso   1.00
I952   I     0.41074   0.76541   0.38003   0.00000  Uiso   1.00
C953   C     0.83259   0.75366   0.50005   0.00000  Uiso   1.00
C954   C     0.83408   0.91300   0.49995   0.00000  Uiso   1.00
C955   C     0.73386   0.83322   0.48809   0.00000  Uiso   1.00
C956   C     0.93281   0.83345   0.51191   0.00000  Uiso   1.00
C957   C     0.67865   0.83303   0.48184   0.00000  Uiso   1.00
C958   C     0.98802   0.83364   0.51816   0.00000  Uiso   1.00
C959   C     0.78435   0.68577   0.49086   0.00000  Uiso   1.00
C960   C     0.88232   0.98090   0.50914   0.00000  Uiso   1.00
C961   C     0.78531   0.97543   0.48891   0.00000  Uiso   1.00
C962   C     0.88136   0.69123   0.51109   0.00000  Uiso   1.00
C963   C     0.83408   0.95728   0.49931   0.00000  Uiso   1.00
C964   C     0.83259   0.70938   0.50069   0.00000  Uiso   1.00
C965   C     0.86747   0.86002   0.36140   0.00000  Uiso   1.00
C966   C     0.79920   0.80664   0.63860   0.00000  Uiso   1.00
C967   C     0.86750   0.85974   0.64709   0.00000  Uiso   1.00
C968   C     0.79916   0.80693   0.35291   0.00000  Uiso   1.00
H969   H     0.99122   0.83231   0.44744   0.00000  Uiso   1.00
H970   H     0.67545   0.83435   0.55256   0.00000  Uiso   1.00
N971   N     0.83332   0.83332   0.61907   0.00000  Uiso   1.00
N972   N     0.83335   0.83334   0.38093   0.00000  Uiso   1.00
O973   O     0.83333   0.77225   0.53821   0.00000  Uiso   1.00
O974   O     0.83334   0.89442   0.46179   0.00000  Uiso   1.00
O975   O     0.83333   0.77226   0.46176   0.00000  Uiso   1.00
O976   O     0.83334   0.89441   0.53824   0.00000  Uiso   1.00
O977   O     0.75725   0.83333   0.52928   0.00000  Uiso   1.00
O978   O     0.90942   0.83334   0.47072   0.00000  Uiso   1.00
O979   O     0.75725   0.83334   0.45284   0.00000  Uiso   1.00
O980   O     0.90942   0.83333   0.54716   0.00000  Uiso   1.00
Zn981  Zn    0.83333   0.83333   0.55104   0.00000  Uiso   1.00
Zn982  Zn    0.83333   0.83334   0.44896   0.00000  Uiso   1.00
C983   C     0.73221   0.70648   0.48494   0.00000  Uiso   1.00
H984   H     0.73567   0.74084   0.49099   0.00000  Uiso   1.00
H985   H     0.71097   0.70103   0.45025   0.00000  Uiso   1.00
H986   H     0.70830   0.69275   0.50957   0.00000  Uiso   1.00
C987   C     0.93446   0.96019   0.51506   0.00000  Uiso   1.00
H988   H     0.93100   0.92583   0.50901   0.00000  Uiso   1.00
H989   H     0.95836   0.97391   0.49043   0.00000  Uiso   1.00
H990   H     0.95570   0.96564   0.54975   0.00000  Uiso   1.00
C991   C     0.73535   0.94745   0.47614   0.00000  Uiso   1.00
H992   H     0.74024   0.92548   0.44870   0.00000  Uiso   1.00
H993   H     0.72677   0.92907   0.50593   0.00000  Uiso   1.00
H994   H     0.70050   0.96472   0.46290   0.00000  Uiso   1.00
C995   C     0.93132   0.71921   0.52386   0.00000  Uiso   1.00
H996   H     0.92643   0.74119   0.55130   0.00000  Uiso   1.00
H997   H     0.96617   0.70194   0.53710   0.00000  Uiso   1.00
H998   H     0.93989   0.73759   0.49407   0.00000  Uiso   1.00
C999   C     0.90580   0.89071   0.38928   0.00000  Uiso   1.00
H1000  H     0.89838   0.92327   0.37772   0.00000  Uiso   1.00
H1001  H     0.90365   0.89054   0.42511   0.00000  Uiso   1.00
H1002  H     0.94664   0.88363   0.38587   0.00000  Uiso   1.00
C1003  C     0.76086   0.77595   0.61072   0.00000  Uiso   1.00
H1004  H     0.76829   0.74340   0.62228   0.00000  Uiso   1.00
H1005  H     0.72002   0.78304   0.61413   0.00000  Uiso   1.00
H1006  H     0.76301   0.77613   0.57489   0.00000  Uiso   1.00
I1007  I     0.92260   0.90126   0.61997   0.00000  Uiso   1.00
I1008  I     0.74407   0.76541   0.38003   0.00000  Uiso   1.00
C1009  C     0.16592   0.08700   0.83338   0.00000  Uiso   1.00
C1010  C     0.16741   0.24634   0.83329   0.00000  Uiso   1.00
C1011  C     0.06719   0.16655   0.82142   0.00000  Uiso   1.00
C1012  C     0.26614   0.16678   0.84524   0.00000  Uiso   1.00
C1013  C     0.01198   0.16636   0.81518   0.00000  Uiso   1.00
C1014  C     0.32135   0.16697   0.85149   0.00000  Uiso   1.00
C1015  C     0.11768   0.01910   0.82420   0.00000  Uiso   1.00
C1016  C     0.21565   0.31423   0.84247   0.00000  Uiso   1.00
C1017  C     0.11864   0.30877   0.82225   0.00000  Uiso   1.00
C1018  C     0.21469   0.02457   0.84442   0.00000  Uiso   1.00
C1019  C     0.16741   0.29062   0.83264   0.00000  Uiso   1.00
C1020  C     0.16592   0.04272   0.83403   0.00000  Uiso   1.00
C1021  C     0.20080   0.19336   0.69473   0.00000  Uiso   1.00
C1022  C     0.13253   0.13998   0.97193   0.00000  Uiso   1.00
C1023  C     0.20084   0.19307   0.98042   0.00000  Uiso   1.00
C1024  C     0.13250   0.14026   0.68625   0.00000  Uiso   1.00
H1025  H     0.32455   0.16565   0.78077   0.00000  Uiso   1.00
H1026  H     0.00878   0.16769   0.88589   0.00000  Uiso   1.00
N1027  N     0.16665   0.16666   0.95240   0.00000  Uiso   1.00
N1028  N     0.16668   0.16668   0.71427   0.00000  Uiso   1.00
O1029  O     0.16666   0.10558   0.87154   0.00000  Uiso   1.00
O1030  O     0.16667   0.22775   0.79513   0.00000  Uiso   1.00
O1031  O     0.16666   0.10559   0.79510   0.00000  Uiso   1.00
O1032  O     0.16667   0.22774   0.87157   0.00000  Uiso   1.00
O1033  O     0.09058   0.16666   0.86261   0.00000  Uiso   1.00
O1034  O     0.24275   0.16667   0.80405   0.00000  Uiso   1.00
O1035  O     0.09058   0.16667   0.78617   0.00000  Uiso   1.00
O1036  O     0.24275   0.16666   0.88050   0.00000  Uiso   1.00
Zn1037 Zn    0.16667   0.16666   0.88437   0.00000  Uiso   1.00
Zn1038 Zn    0.16667   0.16667   0.78229   0.00000  Uiso   1.00
C1039  C     0.06554   0.03981   0.81828   0.00000  Uiso   1.00
H1040  H     0.06900   0.07417   0.82433   0.00000  Uiso   1.00
H1041  H     0.04430   0.03436   0.78358   0.00000  Uiso   1.00
H1042  H     0.04164   0.02609   0.84290   0.00000  Uiso   1.00
C1043  C     0.26779   0.29352   0.84839   0.00000  Uiso   1.00
H1044  H     0.26433   0.25916   0.84234   0.00000  Uiso   1.00
H1045  H     0.29170   0.30725   0.82376   0.00000  Uiso   1.00
H1046  H     0.28903   0.29897   0.88309   0.00000  Uiso   1.00
C1047  C     0.06868   0.28079   0.80948   0.00000  Uiso   1.00
H1048  H     0.07357   0.25881   0.78204   0.00000  Uiso   1.00
H1049  H     0.06011   0.26241   0.83926   0.00000  Uiso   1.00
H1050  H     0.03383   0.29806   0.79624   0.00000  Uiso   1.00
C1051  C     0.26465   0.05255   0.85719   0.00000  Uiso   1.00
H1052  H     0.25976   0.07452   0.88463   0.00000  Uiso   1.00
H1053  H     0.29950   0.03528   0.87043   0.00000  Uiso   1.00
H1054  H     0.27323   0.07093   0.82740   0.00000  Uiso   1.00
C1055  C     0.23914   0.22405   0.72261   0.00000  Uiso   1.00
H1056  H     0.23171   0.25660   0.71105   0.00000  Uiso   1.00
H1057  H     0.23699   0.22387   0.75845   0.00000  Uiso   1.00
H1058  H     0.27998   0.21696   0.71920   0.00000  Uiso   1.00
C1059  C     0.09420   0.10929   0.94405   0.00000  Uiso   1.00
H1060  H     0.10162   0.07673   0.95561   0.00000  Uiso   1.00
H1061  H     0.05336   0.11637   0.94747   0.00000  Uiso   1.00
H1062  H     0.09635   0.10946   0.90822   0.00000  Uiso   1.00
I1063  I     0.25593   0.23459   0.95331   0.00000  Uiso   1.00
I1064  I     0.07740   0.09874   0.71336   0.00000  Uiso   1.00
C1065  C     0.49926   0.08700   0.83338   0.00000  Uiso   1.00
C1066  C     0.50074   0.24634   0.83329   0.00000  Uiso   1.00
C1067  C     0.40053   0.16655   0.82142   0.00000  Uiso   1.00
C1068  C     0.59947   0.16678   0.84524   0.00000  Uiso   1.00
C1069  C     0.34532   0.16636   0.81518   0.00000  Uiso   1.00
C1070  C     0.65469   0.16697   0.85149   0.00000  Uiso   1.00
C1071  C     0.45102   0.01910   0.82420   0.00000  Uiso   1.00
C1072  C     0.54898   0.31423   0.84247   0.00000  Uiso   1.00
C1073  C     0.45198   0.30877   0.82225   0.00000  Uiso   1.00
C1074  C     0.54803   0.02457   0.84442   0.00000  Uiso   1.00
C1075  C     0.50074   0.29062   0.83264   0.00000  Uiso   1.00
C1076  C     0.49926   0.04272   0.83403   0.00000  Uiso   1.00
C1077  C     0.53414   0.19336   0.69473   0.00000  Uiso   1.00
C1078  C     0.46587   0.13998   0.97193   0.00000  Uiso   1.00
C1079  C     0.53417   0.19307   0.98042   0.00000  Uiso   1.00
C1080  C     0.46583   0.14026   0.68625   0.00000  Uiso   1.00
H1081  H     0.65788   0.16565   0.78077   0.00000  Uiso   1.00
H1082  H     0.34212   0.16769   0.88589   0.00000  Uiso   1.00
N1083  N     0.49999   0.16666   0.95240   0.00000  Uiso   1.00
N1084  N     0.50001   0.16668   0.71427   0.00000  Uiso   1.00
O1085  O     0.50000   0.10558   0.87154   0.00000  Uiso   1.00
O1086  O     0.50000   0.22775   0.79513   0.00000  Uiso   1.00
O1087  O     0.50000   0.10559   0.79510   0.00000  Uiso   1.00
O1088  O     0.50000   0.22774   0.87157   0.00000  Uiso   1.00
O1089  O     0.42392   0.16666   0.86261   0.00000  Uiso   1.00
O1090  O     0.57608   0.16667   0.80405   0.00000  Uiso   1.00
O1091  O     0.42392   0.16667   0.78617   0.00000  Uiso   1.00
O1092  O     0.57608   0.16666   0.88050   0.00000  Uiso   1.00
Zn1093 Zn    0.50000   0.16666   0.88437   0.00000  Uiso   1.00
Zn1094 Zn    0.50000   0.16667   0.78229   0.00000  Uiso   1.00
C1095  C     0.39888   0.03981   0.81828   0.00000  Uiso   1.00
H1096  H     0.40234   0.07417   0.82433   0.00000  Uiso   1.00
H1097  H     0.37763   0.03436   0.78358   0.00000  Uiso   1.00
H1098  H     0.37497   0.02609   0.84290   0.00000  Uiso   1.00
C1099  C     0.60112   0.29352   0.84839   0.00000  Uiso   1.00
H1100  H     0.59766   0.25916   0.84234   0.00000  Uiso   1.00
H1101  H     0.62503   0.30725   0.82376   0.00000  Uiso   1.00
H1102  H     0.62237   0.29897   0.88309   0.00000  Uiso   1.00
C1103  C     0.40202   0.28079   0.80948   0.00000  Uiso   1.00
H1104  H     0.40690   0.25881   0.78204   0.00000  Uiso   1.00
H1105  H     0.39344   0.26241   0.83926   0.00000  Uiso   1.00
H1106  H     0.36717   0.29806   0.79624   0.00000  Uiso   1.00
C1107  C     0.59798   0.05255   0.85719   0.00000  Uiso   1.00
H1108  H     0.59310   0.07452   0.88463   0.00000  Uiso   1.00
H1109  H     0.63283   0.03528   0.87043   0.00000  Uiso   1.00
H1110  H     0.60656   0.07093   0.82740   0.00000  Uiso   1.00
C1111  C     0.57247   0.22405   0.72261   0.00000  Uiso   1.00
H1112  H     0.56505   0.25660   0.71105   0.00000  Uiso   1.00
H1113  H     0.57032   0.22387   0.75845   0.00000  Uiso   1.00
H1114  H     0.61331   0.21696   0.71920   0.00000  Uiso   1.00
C1115  C     0.42753   0.10929   0.94405   0.00000  Uiso   1.00
H1116  H     0.43495   0.07673   0.95561   0.00000  Uiso   1.00
H1117  H     0.38669   0.11637   0.94747   0.00000  Uiso   1.00
H1118  H     0.42968   0.10946   0.90822   0.00000  Uiso   1.00
I1119  I     0.58926   0.23459   0.95331   0.00000  Uiso   1.00
I1120  I     0.41074   0.09874   0.71336   0.00000  Uiso   1.00
C1121  C     0.83259   0.08700   0.83338   0.00000  Uiso   1.00
C1122  C     0.83408   0.24634   0.83329   0.00000  Uiso   1.00
C1123  C     0.73386   0.16655   0.82142   0.00000  Uiso   1.00
C1124  C     0.93281   0.16678   0.84524   0.00000  Uiso   1.00
C1125  C     0.67865   0.16636   0.81518   0.00000  Uiso   1.00
C1126  C     0.98802   0.16697   0.85149   0.00000  Uiso   1.00
C1127  C     0.78435   0.01910   0.82420   0.00000  Uiso   1.00
C1128  C     0.88232   0.31423   0.84247   0.00000  Uiso   1.00
C1129  C     0.78531   0.30877   0.82225   0.00000  Uiso   1.00
C1130  C     0.88136   0.02457   0.84442   0.00000  Uiso   1.00
C1131  C     0.83408   0.29062   0.83264   0.00000  Uiso   1.00
C1132  C     0.83259   0.04272   0.83403   0.00000  Uiso   1.00
C1133  C     0.86747   0.19336   0.69473   0.00000  Uiso   1.00
C1134  C     0.79920   0.13998   0.97193   0.00000  Uiso   1.00
C1135  C     0.86750   0.19307   0.98042   0.00000  Uiso   1.00
C1136  C     0.79916   0.14026   0.68625   0.00000  Uiso   1.00
H1137  H     0.99122   0.16565   0.78077   0.00000  Uiso   1.00
H1138  H     0.67545   0.16769   0.88589   0.00000  Uiso   1.00
N1139  N     0.83332   0.16666   0.95240   0.00000  Uiso   1.00
N1140  N     0.83335   0.16668   0.71427   0.00000  Uiso   1.00
O1141  O     0.83333   0.10558   0.87154   0.00000  Uiso   1.00
O1142  O     0.83334   0.22775   0.79513   0.00000  Uiso   1.00
O1143  O     0.83333   0.10559   0.79510   0.00000  Uiso   1.00
O1144  O     0.83334   0.22774   0.87157   0.00000  Uiso   1.00
O1145  O     0.75725   0.16666   0.86261   0.00000  Uiso   1.00
O1146  O     0.90942   0.16667   0.80405   0.00000  Uiso   1.00
O1147  O     0.75725   0.16667   0.78617   0.00000  Uiso   1.00
O1148  O     0.90942   0.16666   0.88050   0.00000  Uiso   1.00
Zn1149 Zn    0.83333   0.16666   0.88437   0.00000  Uiso   1.00
Zn1150 Zn    0.83333   0.16667   0.78229   0.00000  Uiso   1.00
C1151  C     0.73221   0.03981   0.81828   0.00000  Uiso   1.00
H1152  H     0.73567   0.07417   0.82433   0.00000  Uiso   1.00
H1153  H     0.71097   0.03436   0.78358   0.00000  Uiso   1.00
H1154  H     0.70830   0.02609   0.84290   0.00000  Uiso   1.00
C1155  C     0.93446   0.29352   0.84839   0.00000  Uiso   1.00
H1156  H     0.93100   0.25916   0.84234   0.00000  Uiso   1.00
H1157  H     0.95836   0.30725   0.82376   0.00000  Uiso   1.00
H1158  H     0.95570   0.29897   0.88309   0.00000  Uiso   1.00
C1159  C     0.73535   0.28079   0.80948   0.00000  Uiso   1.00
H1160  H     0.74024   0.25881   0.78204   0.00000  Uiso   1.00
H1161  H     0.72677   0.26241   0.83926   0.00000  Uiso   1.00
H1162  H     0.70050   0.29806   0.79624   0.00000  Uiso   1.00
C1163  C     0.93132   0.05255   0.85719   0.00000  Uiso   1.00
H1164  H     0.92643   0.07452   0.88463   0.00000  Uiso   1.00
H1165  H     0.96617   0.03528   0.87043   0.00000  Uiso   1.00
H1166  H     0.93989   0.07093   0.82740   0.00000  Uiso   1.00
C1167  C     0.90580   0.22405   0.72261   0.00000  Uiso   1.00
H1168  H     0.89838   0.25660   0.71105   0.00000  Uiso   1.00
H1169  H     0.90365   0.22387   0.75845   0.00000  Uiso   1.00
H1170  H     0.94664   0.21696   0.71920   0.00000  Uiso   1.00
C1171  C     0.76086   0.10929   0.94405   0.00000  Uiso   1.00
H1172  H     0.76829   0.07673   0.95561   0.00000  Uiso   1.00
H1173  H     0.72002   0.11637   0.94747   0.00000  Uiso   1.00
H1174  H     0.76301   0.10946   0.90822   0.00000  Uiso   1.00
I1175  I     0.92260   0.23459   0.95331   0.00000  Uiso   1.00
I1176  I     0.74407   0.09874   0.71336   0.00000  Uiso   1.00
C1177  C     0.16592   0.42033   0.83338   0.00000  Uiso   1.00
C1178  C     0.16741   0.57967   0.83329   0.00000  Uiso   1.00
C1179  C     0.06719   0.49988   0.82142   0.00000  Uiso   1.00
C1180  C     0.26614   0.50012   0.84524   0.00000  Uiso   1.00
C1181  C     0.01198   0.49970   0.81518   0.00000  Uiso   1.00
C1182  C     0.32135   0.50030   0.85149   0.00000  Uiso   1.00
C1183  C     0.11768   0.35244   0.82420   0.00000  Uiso   1.00
C1184  C     0.21565   0.64756   0.84247   0.00000  Uiso   1.00
C1185  C     0.11864   0.64210   0.82225   0.00000  Uiso   1.00
C1186  C     0.21469   0.35790   0.84442   0.00000  Uiso   1.00
C1187  C     0.16741   0.62395   0.83264   0.00000  Uiso   1.00
C1188  C     0.16592   0.37605   0.83403   0.00000  Uiso   1.00
C1189  C     0.20080   0.52669   0.69473   0.00000  Uiso   1.00
C1190  C     0.13253   0.47331   0.97193   0.00000  Uiso   1.00
C1191  C     0.20084   0.52640   0.98042   0.00000  Uiso   1.00
C1192  C     0.13250   0.47360   0.68625   0.00000  Uiso   1.00
H1193  H     0.32455   0.49898   0.78077   0.00000  Uiso   1.00
H1194  H     0.00878   0.50102   0.88589   0.00000  Uiso   1.00
N1195  N     0.16665   0.49999   0.95240   0.00000  Uiso   1.00
N1196  N     0.16668   0.50001   0.71427   0.00000  Uiso   1.00
O1197  O     0.16666   0.43892   0.87154   0.00000  Uiso   1.00
O1198  O     0.16667   0.56108   0.79513   0.00000  Uiso   1.00
O1199  O     0.16666   0.43893   0.79510   0.00000  Uiso   1.00
O1200  O     0.16667   0.56107   0.87157   0.00000  Uiso   1.00
O1201  O     0.09058   0.50000   0.86261   0.00000  Uiso   1.00
O1202  O     0.24275   0.50000   0.80405   0.00000  Uiso   1.00
O1203  O     0.09058   0.50000   0.78617   0.00000  Uiso   1.00
O1204  O     0.24275   0.50000   0.88050   0.00000  Uiso   1.00
Zn1205 Zn    0.16667   0.49999   0.88437   0.00000  Uiso   1.00
Zn1206 Zn    0.16667   0.50001   0.78229   0.00000  Uiso   1.00
C1207  C     0.06554   0.37314   0.81828   0.00000  Uiso   1.00
H1208  H     0.06900   0.40750   0.82433   0.00000  Uiso   1.00
H1209  H     0.04430   0.36769   0.78358   0.00000  Uiso   1.00
H1210  H     0.04164   0.35942   0.84290   0.00000  Uiso   1.00
C1211  C     0.26779   0.62686   0.84839   0.00000  Uiso   1.00
H1212  H     0.26433   0.59250   0.84234   0.00000  Uiso   1.00
H1213  H     0.29170   0.64058   0.82376   0.00000  Uiso   1.00
H1214  H     0.28903   0.63231   0.88309   0.00000  Uiso   1.00
C1215  C     0.06868   0.61412   0.80948   0.00000  Uiso   1.00
H1216  H     0.07357   0.59215   0.78204   0.00000  Uiso   1.00
H1217  H     0.06011   0.59574   0.83926   0.00000  Uiso   1.00
H1218  H     0.03383   0.63139   0.79624   0.00000  Uiso   1.00
C1219  C     0.26465   0.38588   0.85719   0.00000  Uiso   1.00
H1220  H     0.25976   0.40785   0.88463   0.00000  Uiso   1.00
H1221  H     0.29950   0.36861   0.87043   0.00000  Uiso   1.00
H1222  H     0.27323   0.40426   0.82740   0.00000  Uiso   1.00
C1223  C     0.23914   0.55738   0.72261   0.00000  Uiso   1.00
H1224  H     0.23171   0.58993   0.71105   0.00000  Uiso   1.00
H1225  H     0.23699   0.55721   0.75845   0.00000  Uiso   1.00
H1226  H     0.27998   0.55029   0.71920   0.00000  Uiso   1.00
C1227  C     0.09420   0.44262   0.94405   0.00000  Uiso   1.00
H1228  H     0.10162   0.41007   0.95561   0.00000  Uiso   1.00
H1229  H     0.05336   0.44971   0.94747   0.00000  Uiso   1.00
H1230  H     0.09635   0.44279   0.90822   0.00000  Uiso   1.00
I1231  I     0.25593   0.56792   0.95331   0.00000  Uiso   1.00
I1232  I     0.07740   0.43208   0.71336   0.00000  Uiso   1.00
C1233  C     0.49926   0.42033   0.83338   0.00000  Uiso   1.00
C1234  C     0.50074   0.57967   0.83329   0.00000  Uiso   1.00
C1235  C     0.40053   0.49988   0.82142   0.00000  Uiso   1.00
C1236  C     0.59947   0.50012   0.84524   0.00000  Uiso   1.00
C1237  C     0.34532   0.49970   0.81518   0.00000  Uiso   1.00
C1238  C     0.65469   0.50030   0.85149   0.00000  Uiso   1.00
C1239  C     0.45102   0.35244   0.82420   0.00000  Uiso   1.00
C1240  C     0.54898   0.64756   0.84247   0.00000  Uiso   1.00
C1241  C     0.45198   0.64210   0.82225   0.00000  Uiso   1.00
C1242  C     0.54803   0.35790   0.84442   0.00000  Uiso   1.00
C1243  C     0.50074   0.62395   0.83264   0.00000  Uiso   1.00
C1244  C     0.49926   0.37605   0.83403   0.00000  Uiso   1.00
C1245  C     0.53414   0.52669   0.69473   0.00000  Uiso   1.00
C1246  C     0.46587   0.47331   0.97193   0.00000  Uiso   1.00
C1247  C     0.53417   0.52640   0.98042   0.00000  Uiso   1.00
C1248  C     0.46583   0.47360   0.68625   0.00000  Uiso   1.00
H1249  H     0.65788   0.49898   0.78077   0.00000  Uiso   1.00
H1250  H     0.34212   0.50102   0.88589   0.00000  Uiso   1.00
N1251  N     0.49999   0.49999   0.95240   0.00000  Uiso   1.00
N1252  N     0.50001   0.50001   0.71427   0.00000  Uiso   1.00
O1253  O     0.50000   0.43892   0.87154   0.00000  Uiso   1.00
O1254  O     0.50000   0.56108   0.79513   0.00000  Uiso   1.00
O1255  O     0.50000   0.43893   0.79510   0.00000  Uiso   1.00
O1256  O     0.50000   0.56107   0.87157   0.00000  Uiso   1.00
O1257  O     0.42392   0.50000   0.86261   0.00000  Uiso   1.00
O1258  O     0.57608   0.50000   0.80405   0.00000  Uiso   1.00
O1259  O     0.42392   0.50000   0.78617   0.00000  Uiso   1.00
O1260  O     0.57608   0.50000   0.88050   0.00000  Uiso   1.00
Zn1261 Zn    0.50000   0.49999   0.88437   0.00000  Uiso   1.00
Zn1262 Zn    0.50000   0.50001   0.78229   0.00000  Uiso   1.00
C1263  C     0.39888   0.37314   0.81828   0.00000  Uiso   1.00
H1264  H     0.40234   0.40750   0.82433   0.00000  Uiso   1.00
H1265  H     0.37763   0.36769   0.78358   0.00000  Uiso   1.00
H1266  H     0.37497   0.35942   0.84290   0.00000  Uiso   1.00
C1267  C     0.60112   0.62686   0.84839   0.00000  Uiso   1.00
H1268  H     0.59766   0.59250   0.84234   0.00000  Uiso   1.00
H1269  H     0.62503   0.64058   0.82376   0.00000  Uiso   1.00
H1270  H     0.62237   0.63231   0.88309   0.00000  Uiso   1.00
C1271  C     0.40202   0.61412   0.80948   0.00000  Uiso   1.00
H1272  H     0.40690   0.59215   0.78204   0.00000  Uiso   1.00
H1273  H     0.39344   0.59574   0.83926   0.00000  Uiso   1.00
H1274  H     0.36717   0.63139   0.79624   0.00000  Uiso   1.00
C1275  C     0.59798   0.38588   0.85719   0.00000  Uiso   1.00
H1276  H     0.59310   0.40785   0.88463   0.00000  Uiso   1.00
H1277  H     0.63283   0.36861   0.87043   0.00000  Uiso   1.00
H1278  H     0.60656   0.40426   0.82740   0.00000  Uiso   1.00
C1279  C     0.57247   0.55738   0.72261   0.00000  Uiso   1.00
H1280  H     0.56505   0.58993   0.71105   0.00000  Uiso   1.00
H1281  H     0.57032   0.55721   0.75845   0.00000  Uiso   1.00
H1282  H     0.61331   0.55029   0.71920   0.00000  Uiso   1.00
C1283  C     0.42753   0.44262   0.94405   0.00000  Uiso   1.00
H1284  H     0.43495   0.41007   0.95561   0.00000  Uiso   1.00
H1285  H     0.38669   0.44971   0.94747   0.00000  Uiso   1.00
H1286  H     0.42968   0.44279   0.90822   0.00000  Uiso   1.00
I1287  I     0.58926   0.56792   0.95331   0.00000  Uiso   1.00
I1288  I     0.41074   0.43208   0.71336   0.00000  Uiso   1.00
C1289  C     0.83259   0.42033   0.83338   0.00000  Uiso   1.00
C1290  C     0.83408   0.57967   0.83329   0.00000  Uiso   1.00
C1291  C     0.73386   0.49988   0.82142   0.00000  Uiso   1.00
C1292  C     0.93281   0.50012   0.84524   0.00000  Uiso   1.00
C1293  C     0.67865   0.49970   0.81518   0.00000  Uiso   1.00
C1294  C     0.98802   0.50030   0.85149   0.00000  Uiso   1.00
C1295  C     0.78435   0.35244   0.82420   0.00000  Uiso   1.00
C1296  C     0.88232   0.64756   0.84247   0.00000  Uiso   1.00
C1297  C     0.78531   0.64210   0.82225   0.00000  Uiso   1.00
C1298  C     0.88136   0.35790   0.84442   0.00000  Uiso   1.00
C1299  C     0.83408   0.62395   0.83264   0.00000  Uiso   1.00
C1300  C     0.83259   0.37605   0.83403   0.00000  Uiso   1.00
C1301  C     0.86747   0.52669   0.69473   0.00000  Uiso   1.00
C1302  C     0.79920   0.47331   0.97193   0.00000  Uiso   1.00
C1303  C     0.86750   0.52640   0.98042   0.00000  Uiso   1.00
C1304  C     0.79916   0.47360   0.68625   0.00000  Uiso   1.00
H1305  H     0.99122   0.49898   0.78077   0.00000  Uiso   1.00
H1306  H     0.67545   0.50102   0.88589   0.00000  Uiso   1.00
N1307  N     0.83332   0.49999   0.95240   0.00000  Uiso   1.00
N1308  N     0.83335   0.50001   0.71427   0.00000  Uiso   1.00
O1309  O     0.83333   0.43892   0.87154   0.00000  Uiso   1.00
O1310  O     0.83334   0.56108   0.79513   0.00000  Uiso   1.00
O1311  O     0.83333   0.43893   0.79510   0.00000  Uiso   1.00
O1312  O     0.83334   0.56107   0.87157   0.00000  Uiso   1.00
O1313  O     0.75725   0.50000   0.86261   0.00000  Uiso   1.00
O1314  O     0.90942   0.50000   0.80405   0.00000  Uiso   1.00
O1315  O     0.75725   0.50000   0.78617   0.00000  Uiso   1.00
O1316  O     0.90942   0.50000   0.88050   0.00000  Uiso   1.00
Zn1317 Zn    0.83333   0.49999   0.88437   0.00000  Uiso   1.00
Zn1318 Zn    0.83333   0.50001   0.78229   0.00000  Uiso   1.00
C1319  C     0.73221   0.37314   0.81828   0.00000  Uiso   1.00
H1320  H     0.73567   0.40750   0.82433   0.00000  Uiso   1.00
H1321  H     0.71097   0.36769   0.78358   0.00000  Uiso   1.00
H1322  H     0.70830   0.35942   0.84290   0.00000  Uiso   1.00
C1323  C     0.93446   0.62686   0.84839   0.00000  Uiso   1.00
H1324  H     0.93100   0.59250   0.84234   0.00000  Uiso   1.00
H1325  H     0.95836   0.64058   0.82376   0.00000  Uiso   1.00
H1326  H     0.95570   0.63231   0.88309   0.00000  Uiso   1.00
C1327  C     0.73535   0.61412   0.80948   0.00000  Uiso   1.00
H1328  H     0.74024   0.59215   0.78204   0.00000  Uiso   1.00
H1329  H     0.72677   0.59574   0.83926   0.00000  Uiso   1.00
H1330  H     0.70050   0.63139   0.79624   0.00000  Uiso   1.00
C1331  C     0.93132   0.38588   0.85719   0.00000  Uiso   1.00
H1332  H     0.92643   0.40785   0.88463   0.00000  Uiso   1.00
H1333  H     0.96617   0.36861   0.87043   0.00000  Uiso   1.00
H1334  H     0.93989   0.40426   0.82740   0.00000  Uiso   1.00
C1335  C     0.90580   0.55738   0.72261   0.00000  Uiso   1.00
H1336  H     0.89838   0.58993   0.71105   0.00000  Uiso   1.00
H1337  H     0.90365   0.55721   0.75845   0.00000  Uiso   1.00
H1338  H     0.94664   0.55029   0.71920   0.00000  Uiso   1.00
C1339  C     0.76086   0.44262   0.94405   0.00000  Uiso   1.00
H1340  H     0.76829   0.41007   0.95561   0.00000  Uiso   1.00
H1341  H     0.72002   0.44971   0.94747   0.00000  Uiso   1.00
H1342  H     0.76301   0.44279   0.90822   0.00000  Uiso   1.00
I1343  I     0.92260   0.56792   0.95331   0.00000  Uiso   1.00
I1344  I     0.74407   0.43208   0.71336   0.00000  Uiso   1.00
C1345  C     0.16592   0.75366   0.83338   0.00000  Uiso   1.00
C1346  C     0.16741   0.91300   0.83329   0.00000  Uiso   1.00
C1347  C     0.06719   0.83322   0.82142   0.00000  Uiso   1.00
C1348  C     0.26614   0.83345   0.84524   0.00000  Uiso   1.00
C1349  C     0.01198   0.83303   0.81518   0.00000  Uiso   1.00
C1350  C     0.32135   0.83364   0.85149   0.00000  Uiso   1.00
C1351  C     0.11768   0.68577   0.82420   0.00000  Uiso   1.00
C1352  C     0.21565   0.98090   0.84247   0.00000  Uiso   1.00
C1353  C     0.11864   0.97543   0.82225   0.00000  Uiso   1.00
C1354  C     0.21469   0.69123   0.84442   0.00000  Uiso   1.00
C1355  C     0.16741   0.95728   0.83264   0.00000  Uiso   1.00
C1356  C     0.16592   0.70938   0.83403   0.00000  Uiso   1.00
C1357  C     0.20080   0.86002   0.69473   0.00000  Uiso   1.00
C1358  C     0.13253   0.80664   0.97193   0.00000  Uiso   1.00
C1359  C     0.20084   0.85974   0.98042   0.00000  Uiso   1.00
C1360  C     0.13250   0.80693   0.68625   0.00000  Uiso   1.00
H1361  H     0.32455   0.83231   0.78077   0.00000  Uiso   1.00
H1362  H     0.00878   0.83435   0.88589   0.00000  Uiso   1.00
N1363  N     0.16665   0.83332   0.95240   0.00000  Uiso   1.00
N1364  N     0.16668   0.83334   0.71427   0.00000  Uiso   1.00
O1365  O     0.16666   0.77225   0.87154   0.00000  Uiso   1.00
O1366  O     0.16667   0.89442   0.79513   0.00000  Uiso   1.00
O1367  O     0.16666   0.77226   0.79510   0.00000  Uiso   1.00
O1368  O     0.16667   0.89441   0.87157   0.00000  Uiso   1.00
O1369  O     0.09058   0.83333   0.86261   0.00000  Uiso   1.00
O1370  O     0.24275   0.83334   0.80405   0.00000  Uiso   1.00
O1371  O     0.09058   0.83334   0.78617   0.00000  Uiso   1.00
O1372  O     0.24275   0.83333   0.88050   0.00000  Uiso   1.00
Zn1373 Zn    0.16667   0.83333   0.88437   0.00000  Uiso   1.00
Zn1374 Zn    0.16667   0.83334   0.78229   0.00000  Uiso   1.00
C1375  C     0.06554   0.70648   0.81828   0.00000  Uiso   1.00
H1376  H     0.06900   0.74084   0.82433   0.00000  Uiso   1.00
H1377  H     0.04430   0.70103   0.78358   0.00000  Uiso   1.00
H1378  H     0.04164   0.69275   0.84290   0.00000  Uiso   1.00
C1379  C     0.26779   0.96019   0.84839   0.00000  Uiso   1.00
H1380  H     0.26433   0.92583   0.84234   0.00000  Uiso   1.00
H1381  H     0.29170   0.97391   0.82376   0.00000  Uiso   1.00
H1382  H     0.28903   0.96564   0.88309   0.00000  Uiso   1.00
C1383  C     0.06868   0.94745   0.80948   0.00000  Uiso   1.00
H1384  H     0.07357   0.92548   0.78204   0.00000  Uiso   1.00
H1385  H     0.06011   0.92907   0.83926   0.00000  Uiso   1.00
H1386  H     0.03383   0.96472   0.79624   0.00000  Uiso   1.00
C1387  C     0.26465   0.71921   0.85719   0.00000  Uiso   1.00
H1388  H     0.25976   0.74119   0.88463   0.00000  Uiso   1.00
H1389  H     0.29950   0.70194   0.87043   0.00000  Uiso   1.00
H1390  H     0.27323   0.73759   0.82740   0.00000  Uiso   1.00
C1391  C     0.23914   0.89071   0.72261   0.00000  Uiso   1.00
H1392  H     0.23171   0.92327   0.71105   0.00000  Uiso   1.00
H1393  H     0.23699   0.89054   0.75845   0.00000  Uiso   1.00
H1394  H     0.27998   0.88363   0.71920   0.00000  Uiso   1.00
C1395  C     0.09420   0.77595   0.94405   0.00000  Uiso   1.00
H1396  H     0.10162   0.74340   0.95561   0.00000  Uiso   1.00
H1397  H     0.05336   0.78304   0.94747   0.00000  Uiso   1.00
H1398  H     0.09635   0.77613   0.90822   0.00000  Uiso   1.00
I1399  I     0.25593   0.90126   0.95331   0.00000  Uiso   1.00
I1400  I     0.07740   0.76541   0.71336   0.00000  Uiso   1.00
C1401  C     0.49926   0.75366   0.83338   0.00000  Uiso   1.00
C1402  C     0.50074   0.91300   0.83329   0.00000  Uiso   1.00
C1403  C     0.40053   0.83322   0.82142   0.00000  Uiso   1.00
C1404  C     0.59947   0.83345   0.84524   0.00000  Uiso   1.00
C1405  C     0.34532   0.83303   0.81518   0.00000  Uiso   1.00
C1406  C     0.65469   0.83364   0.85149   0.00000  Uiso   1.00
C1407  C     0.45102   0.68577   0.82420   0.00000  Uiso   1.00
C1408  C     0.54898   0.98090   0.84247   0.00000  Uiso   1.00
C1409  C     0.45198   0.97543   0.82225   0.00000  Uiso   1.00
C1410  C     0.54803   0.69123   0.84442   0.00000  Uiso   1.00
C1411  C     0.50074   0.95728   0.83264   0.00000  Uiso   1.00
C1412  C     0.49926   0.70938   0.83403   0.00000  Uiso   1.00
C1413  C     0.53414   0.86002   0.69473   0.00000  Uiso   1.00
C1414  C     0.46587   0.80664   0.97193   0.00000  Uiso   1.00
C1415  C     0.53417   0.85974   0.98042   0.00000  Uiso   1.00
C1416  C     0.46583   0.80693   0.68625   0.00000  Uiso   1.00
H1417  H     0.65788   0.83231   0.78077   0.00000  Uiso   1.00
H1418  H     0.34212   0.83435   0.88589   0.00000  Uiso   1.00
N1419  N     0.49999   0.83332   0.95240   0.00000  Uiso   1.00
N1420  N     0.50001   0.83334   0.71427   0.00000  Uiso   1.00
O1421  O     0.50000   0.77225   0.87154   0.00000  Uiso   1.00
O1422  O     0.50000   0.89442   0.79513   0.00000  Uiso   1.00
O1423  O     0.50000   0.77226   0.79510   0.00000  Uiso   1.00
O1424  O     0.50000   0.89441   0.87157   0.00000  Uiso   1.00
O1425  O     0.42392   0.83333   0.86261   0.00000  Uiso   1.00
O1426  O     0.57608   0.83334   0.80405   0.00000  Uiso   1.00
O1427  O     0.42392   0.83334   0.78617   0.00000  Uiso   1.00
O1428  O     0.57608   0.83333   0.88050   0.00000  Uiso   1.00
Zn1429 Zn    0.50000   0.83333   0.88437   0.00000  Uiso   1.00
Zn1430 Zn    0.50000   0.83334   0.78229   0.00000  Uiso   1.00
C1431  C     0.39888   0.70648   0.81828   0.00000  Uiso   1.00
H1432  H     0.40234   0.74084   0.82433   0.00000  Uiso   1.00
H1433  H     0.37763   0.70103   0.78358   0.00000  Uiso   1.00
H1434  H     0.37497   0.69275   0.84290   0.00000  Uiso   1.00
C1435  C     0.60112   0.96019   0.84839   0.00000  Uiso   1.00
H1436  H     0.59766   0.92583   0.84234   0.00000  Uiso   1.00
H1437  H     0.62503   0.97391   0.82376   0.00000  Uiso   1.00
H1438  H     0.62237   0.96564   0.88309   0.00000  Uiso   1.00
C1439  C     0.40202   0.94745   0.80948   0.00000  Uiso   1.00
H1440  H     0.40690   0.92548   0.78204   0.00000  Uiso   1.00
H1441  H     0.39344   0.92907   0.83926   0.00000  Uiso   1.00
H1442  H     0.36717   0.96472   0.79624   0.00000  Uiso   1.00
C1443  C     0.59798   0.71921   0.85719   0.00000  Uiso   1.00
H1444  H     0.59310   0.74119   0.88463   0.00000  Uiso   1.00
H1445  H     0.63283   0.70194   0.87043   0.00000  Uiso   1.00
H1446  H     0.60656   0.73759   0.82740   0.00000  Uiso   1.00
C1447  C     0.57247   0.89071   0.72261   0.00000  Uiso   1.00
H1448  H     0.56505   0.92327   0.71105   0.00000  Uiso   1.00
H1449  H     0.57032   0.89054   0.75845   0.00000  Uiso   1.00
H1450  H     0.61331   0.88363   0.71920   0.00000  Uiso   1.00
C1451  C     0.42753   0.77595   0.94405   0.00000  Uiso   1.00
H1452  H     0.43495   0.74340   0.95561   0.00000  Uiso   1.00
H1453  H     0.38669   0.78304   0.94747   0.00000  Uiso   1.00
H1454  H     0.42968   0.77613   0.90822   0.00000  Uiso   1.00
I1455  I     0.58926   0.90126   0.95331   0.00000  Uiso   1.00
I1456  I     0.41074   0.76541   0.71336   0.00000  Uiso   1.00
C1457  C     0.83259   0.75366   0.83338   0.00000  Uiso   1.00
C1458  C     0.83408   0.91300   0.83329   0.00000  Uiso   1.00
C1459  C     0.73386   0.83322   0.82142   0.00000  Uiso   1.00
C1460  C     0.93281   0.83345   0.84524   0.00000  Uiso   1.00
C1461  C     0.67865   0.83303   0.81518   0.00000  Uiso   1.00
C1462  C     0.98802   0.83364   0.85149   0.00000  Uiso   1.00
C1463  C     0.78435   0.68577   0.82420   0.00000  Uiso   1.00
C1464  C     0.88232   0.98090   0.84247   0.00000  Uiso   1.00
C1465  C     0.78531   0.97543   0.82225   0.00000  Uiso   1.00
C1466  C     0.88136   0.69123   0.84442   0.00000  Uiso   1.00
C1467  C     0.83408   0.95728   0.83264   0.00000  Uiso   1.00
C1468  C     0.83259   0.70938   0.83403   0.00000  Uiso   1.00
C1469  C     0.86747   0.86002   0.69473   0.00000  Uiso   1.00
C1470  C     0.79920   0.80664   0.97193   0.00000  Uiso   1.00
C1471  C     0.86750   0.85974   0.98042   0.00000  Uiso   1.00
C1472  C     0.79916   0.80693   0.68625   0.00000  Uiso   1.00
H1473  H     0.99122   0.83231   0.78077   0.00000  Uiso   1.00
H1474  H     0.67545   0.83435   0.88589   0.00000  Uiso   1.00
N1475  N     0.83332   0.83332   0.95240   0.00000  Uiso   1.00
N1476  N     0.83335   0.83334   0.71427   0.00000  Uiso   1.00
O1477  O     0.83333   0.77225   0.87154   0.00000  Uiso   1.00
O1478  O     0.83334   0.89442   0.79513   0.00000  Uiso   1.00
O1479  O     0.83333   0.77226   0.79510   0.00000  Uiso   1.00
O1480  O     0.83334   0.89441   0.87157   0.00000  Uiso   1.00
O1481  O     0.75725   0.83333   0.86261   0.00000  Uiso   1.00
O1482  O     0.90942   0.83334   0.80405   0.00000  Uiso   1.00
O1483  O     0.75725   0.83334   0.78617   0.00000  Uiso   1.00
O1484  O     0.90942   0.83333   0.88050   0.00000  Uiso   1.00
Zn1485 Zn    0.83333   0.83333   0.88437   0.00000  Uiso   1.00
Zn1486 Zn    0.83333   0.83334   0.78229   0.00000  Uiso   1.00
C1487  C     0.73221   0.70648   0.81828   0.00000  Uiso   1.00
H1488  H     0.73567   0.74084   0.82433   0.00000  Uiso   1.00
H1489  H     0.71097   0.70103   0.78358   0.00000  Uiso   1.00
H1490  H     0.70830   0.69275   0.84290   0.00000  Uiso   1.00
C1491  C     0.93446   0.96019   0.84839   0.00000  Uiso   1.00
H1492  H     0.93100   0.92583   0.84234   0.00000  Uiso   1.00
H1493  H     0.95836   0.97391   0.82376   0.00000  Uiso   1.00
H1494  H     0.95570   0.96564   0.88309   0.00000  Uiso   1.00
C1495  C     0.73535   0.94745   0.80948   0.00000  Uiso   1.00
H1496  H     0.74024   0.92548   0.78204   0.00000  Uiso   1.00
H1497  H     0.72677   0.92907   0.83926   0.00000  Uiso   1.00
H1498  H     0.70050   0.96472   0.79624   0.00000  Uiso   1.00
C1499  C     0.93132   0.71921   0.85719   0.00000  Uiso   1.00
H1500  H     0.92643   0.74119   0.88463   0.00000  Uiso   1.00
H1501  H     0.96617   0.70194   0.87043   0.00000  Uiso   1.00
H1502  H     0.93989   0.73759   0.82740   0.00000  Uiso   1.00
C1503  C     0.90580   0.89071   0.72261   0.00000  Uiso   1.00
H1504  H     0.89838   0.92327   0.71105   0.00000  Uiso   1.00
H1505  H     0.90365   0.89054   0.75845   0.00000  Uiso   1.00
H1506  H     0.94664   0.88363   0.71920   0.00000  Uiso   1.00
C1507  C     0.76086   0.77595   0.94405   0.00000  Uiso   1.00
H1508  H     0.76829   0.74340   0.95561   0.00000  Uiso   1.00
H1509  H     0.72002   0.78304   0.94747   0.00000  Uiso   1.00
H1510  H     0.76301   0.77613   0.90822   0.00000  Uiso   1.00
I1511  I     0.92260   0.90126   0.95331   0.00000  Uiso   1.00
I1512  I     0.74407   0.76541   0.71336   0.00000  Uiso   1.00
loop_
_geom_bond_atom_site_label_1
_geom_bond_atom_site_label_2
_geom_bond_distance
_geom_bond_site_symmetry_2
_ccdc_geom_bond_type
C1     O21     1.289   .     A
C1     C12     1.411   .     S
C1     O23     1.293   .     A
C2     O22     1.289   .     A
C2     C11     1.411   .     S
C2     O24     1.293   .     A
C3     O25     1.289   .     A
C3     O27     1.296   .     A
C3     C5      1.407   .     S
C4     O26     1.289   .     A
C4     C6      1.407   .     S
C4     O28     1.296   .     A
C5     C118    1.334   1_455 S
C5     H129    1.087   1_455 S
C6     C61     1.334   .     S
C6     H74     1.087   .     S
C7     C12     1.408   .     A
C7     C31     1.518   .     S
C7     C345    1.395   1_545 S
C8     C11     1.408   .     A
C8     C35     1.518   .     S
C8     C178    1.395   .     S
C9     C11     1.406   .     A
C9     C39     1.523   .     S
C9     C175    1.395   .     S
C10    C12     1.406   .     A
C10    C43     1.523   .     S
C10    C344    1.395   1_545 S
C13    N20     1.382   .     A
C13    C47     1.508   .     S
C13    C1023   1.430   1_554 S
C14    N19     1.382   .     A
C14    C51     1.508   .     S
C14    C520    1.430   .     S
C15    N19     1.373   .     A
C15    I55     2.136   .     S
C15    C517    1.430   .     S
C16    I56     2.136   .     S
C16    N20     1.373   .     A
C16    C1022   1.430   1_554 S
H17    C61     1.087   .     S
H18    C118    1.087   1_455 S
N19    Zn29    2.042   .     S
N20    Zn30    2.042   .     S
O21    Zn29    1.985   .     S
O22    Zn30    1.985   .     S
O23    Zn30    1.982   .     S
O24    Zn29    1.982   .     S
O25    Zn29    1.971   .     S
O26    Zn30    1.971   .     S
O27    Zn30    1.984   .     S
O28    Zn29    1.984   .     S
C31    H34     1.107   .     S
C31    H33     1.109   .     S
C31    H32     1.107   .     S
C35    H38     1.109   .     S
C35    H36     1.107   .     S
C35    H37     1.107   .     S
C39    H42     1.102   .     S
C39    H41     1.110   .     S
C39    H40     1.110   .     S
C43    H44     1.110   .     S
C43    H45     1.102   .     S
C43    H46     1.110   .     S
C47    H50     1.110   .     S
C47    H48     1.110   .     S
C47    H49     1.085   .     S
C51    H54     1.085   .     S
C51    H52     1.110   .     S
C51    H53     1.110   .     S
C57    O77     1.289   .     A
C57    C68     1.411   .     S
C57    O79     1.293   .     A
C58    O78     1.289   .     A
C58    C67     1.411   .     S
C58    O80     1.293   .     A
C59    O81     1.289   .     A
C59    O83     1.296   .     A
C59    C61     1.407   .     S
C60    O82     1.289   .     A
C60    C62     1.407   .     S
C60    O84     1.296   .     A
C62    C117    1.334   .     S
C62    H130    1.087   .     S
C63    C68     1.408   .     A
C63    C87     1.518   .     S
C63    C401    1.395   1_545 S
C64    C67     1.408   .     A
C64    C91     1.518   .     S
C64    C234    1.395   .     S
C65    C67     1.406   .     A
C65    C95     1.523   .     S
C65    C231    1.395   .     S
C66    C68     1.406   .     A
C66    C99     1.523   .     S
C66    C400    1.395   1_545 S
C69    N76     1.382   .     A
C69    C103    1.508   .     S
C69    C1079   1.430   1_554 S
C70    N75     1.382   .     A
C70    C107    1.508   .     S
C70    C576    1.430   .     S
C71    N75     1.373   .     A
C71    I111    2.136   .     S
C71    C573    1.430   .     S
C72    I112    2.136   .     S
C72    N76     1.373   .     A
C72    C1078   1.430   1_554 S
H73    C117    1.087   .     S
N75    Zn85    2.042   .     S
N76    Zn86    2.042   .     S
O77    Zn85    1.985   .     S
O78    Zn86    1.985   .     S
O79    Zn86    1.982   .     S
O80    Zn85    1.982   .     S
O81    Zn85    1.971   .     S
O82    Zn86    1.971   .     S
O83    Zn86    1.984   .     S
O84    Zn85    1.984   .     S
C87    H90     1.107   .     S
C87    H89     1.109   .     S
C87    H88     1.107   .     S
C91    H94     1.109   .     S
C91    H92     1.107   .     S
C91    H93     1.107   .     S
C95    H98     1.102   .     S
C95    H97     1.110   .     S
C95    H96     1.110   .     S
C99    H100    1.110   .     S
C99    H101    1.102   .     S
C99    H102    1.110   .     S
C103   H106    1.110   .     S
C103   H104    1.110   .     S
C103   H105    1.085   .     S
C107   H110    1.085   .     S
C107   H108    1.110   .     S
C107   H109    1.110   .     S
C113   O133    1.289   .     A
C113   C124    1.411   .     S
C113   O135    1.293   .     A
C114   O134    1.289   .     A
C114   C123    1.411   .     S
C114   O136    1.293   .     A
C115   O137    1.289   .     A
C115   O139    1.296   .     A
C115   C117    1.407   .     S
C116   O138    1.289   .     A
C116   C118    1.407   .     S
C116   O140    1.296   .     A
C118   C5      1.334   1_655 S
C118   H18     1.087   1_655 S
C119   C124    1.408   .     A
C119   C143    1.518   .     S
C119   C457    1.395   1_545 S
C120   C123    1.408   .     A
C120   C147    1.518   .     S
C120   C290    1.395   .     S
C121   C123    1.406   .     A
C121   C151    1.523   .     S
C121   C287    1.395   .     S
C122   C124    1.406   .     A
C122   C155    1.523   .     S
C122   C456    1.395   1_545 S
C125   N132    1.382   .     A
C125   C159    1.508   .     S
C125   C1135   1.430   1_554 S
C126   N131    1.382   .     A
C126   C163    1.508   .     S
C126   C632    1.430   .     S
C127   N131    1.373   .     A
C127   I167    2.136   .     S
C127   C629    1.430   .     S
C128   I168    2.136   .     S
C128   N132    1.373   .     A
C128   C1134   1.430   1_554 S
H129   C5      1.087   1_655 S
N131   Zn141   2.042   .     S
N132   Zn142   2.042   .     S
O133   Zn141   1.985   .     S
O134   Zn142   1.985   .     S
O135   Zn142   1.982   .     S
O136   Zn141   1.982   .     S
O137   Zn141   1.971   .     S
O138   Zn142   1.971   .     S
O139   Zn142   1.984   .     S
O140   Zn141   1.984   .     S
C143   H146    1.107   .     S
C143   H145    1.109   .     S
C143   H144    1.107   .     S
C147   H150    1.109   .     S
C147   H148    1.107   .     S
C147   H149    1.107   .     S
C151   H154    1.102   .     S
C151   H153    1.110   .     S
C151   H152    1.110   .     S
C155   H156    1.110   .     S
C155   H157    1.102   .     S
C155   H158    1.110   .     S
C159   H162    1.110   .     S
C159   H160    1.110   .     S
C159   H161    1.085   .     S
C163   H166    1.085   .     S
C163   H164    1.110   .     S
C163   H165    1.110   .     S
C169   O189    1.289   .     A
C169   C180    1.411   .     S
C169   O191    1.293   .     A
C170   O190    1.289   .     A
C170   C179    1.411   .     S
C170   O192    1.293   .     A
C171   O193    1.289   .     A
C171   O195    1.296   .     A
C171   C173    1.407   .     S
C172   O194    1.289   .     A
C172   C174    1.407   .     S
C172   O196    1.296   .     A
C173   C286    1.334   1_455 S
C173   H297    1.087   1_455 S
C174   C229    1.334   .     S
C174   H242    1.087   .     S
C175   C180    1.408   .     A
C175   C199    1.518   .     S
C176   C179    1.408   .     A
C176   C203    1.518   .     S
C176   C346    1.395   .     S
C177   C179    1.406   .     A
C177   C207    1.523   .     S
C177   C343    1.395   .     S
C178   C180    1.406   .     A
C178   C211    1.523   .     S
C181   N188    1.382   .     A
C181   C215    1.508   .     S
C181   C1191   1.430   1_554 S
C182   N187    1.382   .     A
C182   C219    1.508   .     S
C182   C688    1.430   .     S
C183   N187    1.373   .     A
C183   I223    2.136   .     S
C183   C685    1.430   .     S
C184   I224    2.136   .     S
C184   N188    1.373   .     A
C184   C1190   1.430   1_554 S
H185   C229    1.087   .     S
H186   C286    1.087   1_455 S
N187   Zn197   2.042   .     S
N188   Zn198   2.042   .     S
O189   Zn197   1.985   .     S
O190   Zn198   1.985   .     S
O191   Zn198   1.982   .     S
O192   Zn197   1.982   .     S
O193   Zn197   1.971   .     S
O194   Zn198   1.971   .     S
O195   Zn198   1.984   .     S
O196   Zn197   1.984   .     S
C199   H202    1.107   .     S
C199   H201    1.109   .     S
C199   H200    1.107   .     S
C203   H206    1.109   .     S
C203   H204    1.107   .     S
C203   H205    1.107   .     S
C207   H210    1.102   .     S
C207   H209    1.110   .     S
C207   H208    1.110   .     S
C211   H212    1.110   .     S
C211   H213    1.102   .     S
C211   H214    1.110   .     S
C215   H218    1.110   .     S
C215   H216    1.110   .     S
C215   H217    1.085   .     S
C219   H222    1.085   .     S
C219   H220    1.110   .     S
C219   H221    1.110   .     S
C225   O245    1.289   .     A
C225   C236    1.411   .     S
C225   O247    1.293   .     A
C226   O246    1.289   .     A
C226   C235    1.411   .     S
C226   O248    1.293   .     A
C227   O249    1.289   .     A
C227   O251    1.296   .     A
C227   C229    1.407   .     S
C228   O250    1.289   .     A
C228   C230    1.407   .     S
C228   O252    1.296   .     A
C230   C285    1.334   .     S
C230   H298    1.087   .     S
C231   C236    1.408   .     A
C231   C255    1.518   .     S
C232   C235    1.408   .     A
C232   C259    1.518   .     S
C232   C402    1.395   .     S
C233   C235    1.406   .     A
C233   C263    1.523   .     S
C233   C399    1.395   .     S
C234   C236    1.406   .     A
C234   C267    1.523   .     S
C237   N244    1.382   .     A
C237   C271    1.508   .     S
C237   C1247   1.430   1_554 S
C238   N243    1.382   .     A
C238   C275    1.508   .     S
C238   C744    1.430   .     S
C239   N243    1.373   .     A
C239   I279    2.136   .     S
C239   C741    1.430   .     S
C240   I280    2.136   .     S
C240   N244    1.373   .     A
C240   C1246   1.430   1_554 S
H241   C285    1.087   .     S
N243   Zn253   2.042   .     S
N244   Zn254   2.042   .     S
O245   Zn253   1.985   .     S
O246   Zn254   1.985   .     S
O247   Zn254   1.982   .     S
O248   Zn253   1.982   .     S
O249   Zn253   1.971   .     S
O250   Zn254   1.971   .     S
O251   Zn254   1.984   .     S
O252   Zn253   1.984   .     S
C255   H258    1.107   .     S
C255   H257    1.109   .     S
C255   H256    1.107   .     S
C259   H262    1.109   .     S
C259   H260    1.107   .     S
C259   H261    1.107   .     S
C263   H266    1.102   .     S
C263   H265    1.110   .     S
C263   H264    1.110   .     S
C267   H268    1.110   .     S
C267   H269    1.102   .     S
C267   H270    1.110   .     S
C271   H274    1.110   .     S
C271   H272    1.110   .     S
C271   H273    1.085   .     S
C275   H278    1.085   .     S
C275   H276    1.110   .     S
C275   H277    1.110   .     S
C281   O301    1.289   .     A
C281   C292    1.411   .     S
C281   O303    1.293   .     A
C282   O302    1.289   .     A
C282   C291    1.411   .     S
C282   O304    1.293   .     A
C283   O305    1.289   .     A
C283   O307    1.296   .     A
C283   C285    1.407   .     S
C284   O306    1.289   .     A
C284   C286    1.407   .     S
C284   O308    1.296   .     A
C286   C173    1.334   1_655 S
C286   H186    1.087   1_655 S
C287   C292    1.408   .     A
C287   C311    1.518   .     S
C288   C291    1.408   .     A
C288   C315    1.518   .     S
C288   C458    1.395   .     S
C289   C291    1.406   .     A
C289   C319    1.523   .     S
C289   C455    1.395   .     S
C290   C292    1.406   .     A
C290   C323    1.523   .     S
C293   N300    1.382   .     A
C293   C327    1.508   .     S
C293   C1303   1.430   1_554 S
C294   N299    1.382   .     A
C294   C331    1.508   .     S
C294   C800    1.430   .     S
C295   N299    1.373   .     A
C295   I335    2.136   .     S
C295   C797    1.430   .     S
C296   I336    2.136   .     S
C296   N300    1.373   .     A
C296   C1302   1.430   1_554 S
H297   C173    1.087   1_655 S
N299   Zn309   2.042   .     S
N300   Zn310   2.042   .     S
O301   Zn309   1.985   .     S
O302   Zn310   1.985   .     S
O303   Zn310   1.982   .     S
O304   Zn309   1.982   .     S
O305   Zn309   1.971   .     S
O306   Zn310   1.971   .     S
O307   Zn310   1.984   .     S
O308   Zn309   1.984   .     S
C311   H314    1.107   .     S
C311   H313    1.109   .     S
C311   H312    1.107   .     S
C315   H318    1.109   .     S
C315   H316    1.107   .     S
C315   H317    1.107   .     S
C319   H322    1.102   .     S
C319   H321    1.110   .     S
C319   H320    1.110   .     S
C323   H324    1.110   .     S
C323   H325    1.102   .     S
C323   H326    1.110   .     S
C327   H330    1.110   .     S
C327   H328    1.110   .     S
C327   H329    1.085   .     S
C331   H334    1.085   .     S
C331   H332    1.110   .     S
C331   H333    1.110   .     S
C337   O357    1.289   .     A
C337   C348    1.411   .     S
C337   O359    1.293   .     A
C338   O358    1.289   .     A
C338   C347    1.411   .     S
C338   O360    1.293   .     A
C339   O361    1.289   .     A
C339   O363    1.296   .     A
C339   C341    1.407   .     S
C340   O362    1.289   .     A
C340   C342    1.407   .     S
C340   O364    1.296   .     A
C341   C454    1.334   1_455 S
C341   H465    1.087   1_455 S
C342   C397    1.334   .     S
C342   H410    1.087   .     S
C343   C348    1.408   .     A
C343   C367    1.518   .     S
C344   C347    1.408   .     A
C344   C371    1.518   .     S
C344   C10     1.395   1_565 S
C345   C347    1.406   .     A
C345   C375    1.523   .     S
C345   C7      1.395   1_565 S
C346   C348    1.406   .     A
C346   C379    1.523   .     S
C349   N356    1.382   .     A
C349   C383    1.508   .     S
C349   C1359   1.430   1_554 S
C350   N355    1.382   .     A
C350   C387    1.508   .     S
C350   C856    1.430   .     S
C351   N355    1.373   .     A
C351   I391    2.136   .     S
C351   C853    1.430   .     S
C352   I392    2.136   .     S
C352   N356    1.373   .     A
C352   C1358   1.430   1_554 S
H353   C397    1.087   .     S
H354   C454    1.087   1_455 S
N355   Zn365   2.042   .     S
N356   Zn366   2.042   .     S
O357   Zn365   1.985   .     S
O358   Zn366   1.985   .     S
O359   Zn366   1.982   .     S
O360   Zn365   1.982   .     S
O361   Zn365   1.971   .     S
O362   Zn366   1.971   .     S
O363   Zn366   1.984   .     S
O364   Zn365   1.984   .     S
C367   H370    1.107   .     S
C367   H369    1.109   .     S
C367   H368    1.107   .     S
C371   H374    1.109   .     S
C371   H372    1.107   .     S
C371   H373    1.107   .     S
C375   H378    1.102   .     S
C375   H377    1.110   .     S
C375   H376    1.110   .     S
C379   H380    1.110   .     S
C379   H381    1.102   .     S
C379   H382    1.110   .     S
C383   H386    1.110   .     S
C383   H384    1.110   .     S
C383   H385    1.085   .     S
C387   H390    1.085   .     S
C387   H388    1.110   .     S
C387   H389    1.110   .     S
C393   O413    1.289   .     A
C393   C404    1.411   .     S
C393   O415    1.293   .     A
C394   O414    1.289   .     A
C394   C403    1.411   .     S
C394   O416    1.293   .     A
C395   O417    1.289   .     A
C395   O419    1.296   .     A
C395   C397    1.407   .     S
C396   O418    1.289   .     A
C396   C398    1.407   .     S
C396   O420    1.296   .     A
C398   C453    1.334   .     S
C398   H466    1.087   .     S
C399   C404    1.408   .     A
C399   C423    1.518   .     S
C400   C403    1.408   .     A
C400   C427    1.518   .     S
C400   C66     1.395   1_565 S
C401   C403    1.406   .     A
C401   C431    1.523   .     S
C401   C63     1.395   1_565 S
C402   C404    1.406   .     A
C402   C435    1.523   .     S
C405   N412    1.382   .     A
C405   C439    1.508   .     S
C405   C1415   1.430   1_554 S
C406   N411    1.382   .     A
C406   C443    1.508   .     S
C406   C912    1.430   .     S
C407   N411    1.373   .     A
C407   I447    2.136   .     S
C407   C909    1.430   .     S
C408   I448    2.136   .     S
C408   N412    1.373   .     A
C408   C1414   1.430   1_554 S
H409   C453    1.087   .     S
N411   Zn421   2.042   .     S
N412   Zn422   2.042   .     S
O413   Zn421   1.985   .     S
O414   Zn422   1.985   .     S
O415   Zn422   1.982   .     S
O416   Zn421   1.982   .     S
O417   Zn421   1.971   .     S
O418   Zn422   1.971   .     S
O419   Zn422   1.984   .     S
O420   Zn421   1.984   .     S
C423   H426    1.107   .     S
C423   H425    1.109   .     S
C423   H424    1.107   .     S
C427   H430    1.109   .     S
C427   H428    1.107   .     S
C427   H429    1.107   .     S
C431   H434    1.102   .     S
C431   H433    1.110   .     S
C431   H432    1.110   .     S
C435   H436    1.110   .     S
C435   H437    1.102   .     S
C435   H438    1.110   .     S
C439   H442    1.110   .     S
C439   H440    1.110   .     S
C439   H441    1.085   .     S
C443   H446    1.085   .     S
C443   H444    1.110   .     S
C443   H445    1.110   .     S
C449   O469    1.289   .     A
C449   C460    1.411   .     S
C449   O471    1.293   .     A
C450   O470    1.289   .     A
C450   C459    1.411   .     S
C450   O472    1.293   .     A
C451   O473    1.289   .     A
C451   O475    1.296   .     A
C451   C453    1.407   .     S
C452   O474    1.289   .     A
C452   C454    1.407   .     S
C452   O476    1.296   .     A
C454   C341    1.334   1_655 S
C454   H354    1.087   1_655 S
C455   C460    1.408   .     A
C455   C479    1.518   .     S
C456   C459    1.408   .     A
C456   C483    1.518   .     S
C456   C122    1.395   1_565 S
C457   C459    1.406   .     A
C457   C487    1.523   .     S
C457   C119    1.395   1_565 S
C458   C460    1.406   .     A
C458   C491    1.523   .     S
C461   N468    1.382   .     A
C461   C495    1.508   .     S
C461   C1471   1.430   1_554 S
C462   N467    1.382   .     A
C462   C499    1.508   .     S
C462   C968    1.430   .     S
C463   N467    1.373   .     A
C463   I503    2.136   .     S
C463   C965    1.430   .     S
C464   I504    2.136   .     S
C464   N468    1.373   .     A
C464   C1470   1.430   1_554 S
H465   C341    1.087   1_655 S
N467   Zn477   2.042   .     S
N468   Zn478   2.042   .     S
O469   Zn477   1.985   .     S
O470   Zn478   1.985   .     S
O471   Zn478   1.982   .     S
O472   Zn477   1.982   .     S
O473   Zn477   1.971   .     S
O474   Zn478   1.971   .     S
O475   Zn478   1.984   .     S
O476   Zn477   1.984   .     S
C479   H482    1.107   .     S
C479   H481    1.109   .     S
C479   H480    1.107   .     S
C483   H486    1.109   .     S
C483   H484    1.107   .     S
C483   H485    1.107   .     S
C487   H490    1.102   .     S
C487   H489    1.110   .     S
C487   H488    1.110   .     S
C491   H492    1.110   .     S
C491   H493    1.102   .     S
C491   H494    1.110   .     S
C495   H498    1.110   .     S
C495   H496    1.110   .     S
C495   H497    1.085   .     S
C499   H502    1.085   .     S
C499   H500    1.110   .     S
C499   H501    1.110   .     S
C505   O525    1.289   .     A
C505   C516    1.411   .     S
C505   O527    1.293   .     A
C506   O526    1.289   .     A
C506   C515    1.411   .     S
C506   O528    1.293   .     A
C507   O529    1.289   .     A
C507   O531    1.296   .     A
C507   C509    1.407   .     S
C508   O530    1.289   .     A
C508   C510    1.407   .     S
C508   O532    1.296   .     A
C509   C622    1.334   1_455 S
C509   H633    1.087   1_455 S
C510   C565    1.334   .     S
C510   H578    1.087   .     S
C511   C516    1.408   .     A
C511   C535    1.518   .     S
C511   C849    1.395   1_545 S
C512   C515    1.408   .     A
C512   C539    1.518   .     S
C512   C682    1.395   .     S
C513   C515    1.406   .     A
C513   C543    1.523   .     S
C513   C679    1.395   .     S
C514   C516    1.406   .     A
C514   C547    1.523   .     S
C514   C848    1.395   1_545 S
C517   N524    1.382   .     A
C517   C551    1.508   .     S
C518   N523    1.382   .     A
C518   C555    1.508   .     S
C518   C1024   1.430   .     S
C519   N523    1.373   .     A
C519   I559    2.136   .     S
C519   C1021   1.430   .     S
C520   I560    2.136   .     S
C520   N524    1.373   .     A
H521   C565    1.087   .     S
H522   C622    1.087   1_455 S
N523   Zn533   2.042   .     S
N524   Zn534   2.042   .     S
O525   Zn533   1.985   .     S
O526   Zn534   1.985   .     S
O527   Zn534   1.982   .     S
O528   Zn533   1.982   .     S
O529   Zn533   1.971   .     S
O530   Zn534   1.971   .     S
O531   Zn534   1.984   .     S
O532   Zn533   1.984   .     S
C535   H538    1.107   .     S
C535   H537    1.109   .     S
C535   H536    1.107   .     S
C539   H542    1.109   .     S
C539   H540    1.107   .     S
C539   H541    1.107   .     S
C543   H546    1.102   .     S
C543   H545    1.110   .     S
C543   H544    1.110   .     S
C547   H548    1.110   .     S
C547   H549    1.102   .     S
C547   H550    1.110   .     S
C551   H554    1.110   .     S
C551   H552    1.110   .     S
C551   H553    1.085   .     S
C555   H558    1.085   .     S
C555   H556    1.110   .     S
C555   H557    1.110   .     S
C561   O581    1.289   .     A
C561   C572    1.411   .     S
C561   O583    1.293   .     A
C562   O582    1.289   .     A
C562   C571    1.411   .     S
C562   O584    1.293   .     A
C563   O585    1.289   .     A
C563   O587    1.296   .     A
C563   C565    1.407   .     S
C564   O586    1.289   .     A
C564   C566    1.407   .     S
C564   O588    1.296   .     A
C566   C621    1.334   .     S
C566   H634    1.087   .     S
C567   C572    1.408   .     A
C567   C591    1.518   .     S
C567   C905    1.395   1_545 S
C568   C571    1.408   .     A
C568   C595    1.518   .     S
C568   C738    1.395   .     S
C569   C571    1.406   .     A
C569   C599    1.523   .     S
C569   C735    1.395   .     S
C570   C572    1.406   .     A
C570   C603    1.523   .     S
C570   C904    1.395   1_545 S
C573   N580    1.382   .     A
C573   C607    1.508   .     S
C574   N579    1.382   .     A
C574   C611    1.508   .     S
C574   C1080   1.430   .     S
C575   N579    1.373   .     A
C575   I615    2.136   .     S
C575   C1077   1.430   .     S
C576   I616    2.136   .     S
C576   N580    1.373   .     A
H577   C621    1.087   .     S
N579   Zn589   2.042   .     S
N580   Zn590   2.042   .     S
O581   Zn589   1.985   .     S
O582   Zn590   1.985   .     S
O583   Zn590   1.982   .     S
O584   Zn589   1.982   .     S
O585   Zn589   1.971   .     S
O586   Zn590   1.971   .     S
O587   Zn590   1.984   .     S
O588   Zn589   1.984   .     S
C591   H594    1.107   .     S
C591   H593    1.109   .     S
C591   H592    1.107   .     S
C595   H598    1.109   .     S
C595   H596    1.107   .     S
C595   H597    1.107   .     S
C599   H602    1.102   .     S
C599   H601    1.110   .     S
C599   H600    1.110   .     S
C603   H604    1.110   .     S
C603   H605    1.102   .     S
C603   H606    1.110   .     S
C607   H610    1.110   .     S
C607   H608    1.110   .     S
C607   H609    1.085   .     S
C611   H614    1.085   .     S
C611   H612    1.110   .     S
C611   H613    1.110   .     S
C617   O637    1.289   .     A
C617   C628    1.411   .     S
C617   O639    1.293   .     A
C618   O638    1.289   .     A
C618   C627    1.411   .     S
C618   O640    1.293   .     A
C619   O641    1.289   .     A
C619   O643    1.296   .     A
C619   C621    1.407   .     S
C620   O642    1.289   .     A
C620   C622    1.407   .     S
C620   O644    1.296   .     A
C622   C509    1.334   1_655 S
C622   H522    1.087   1_655 S
C623   C628    1.408   .     A
C623   C647    1.518   .     S
C623   C961    1.395   1_545 S
C624   C627    1.408   .     A
C624   C651    1.518   .     S
C624   C794    1.395   .     S
C625   C627    1.406   .     A
C625   C655    1.523   .     S
C625   C791    1.395   .     S
C626   C628    1.406   .     A
C626   C659    1.523   .     S
C626   C960    1.395   1_545 S
C629   N636    1.382   .     A
C629   C663    1.508   .     S
C630   N635    1.382   .     A
C630   C667    1.508   .     S
C630   C1136   1.430   .     S
C631   N635    1.373   .     A
C631   I671    2.136   .     S
C631   C1133   1.430   .     S
C632   I672    2.136   .     S
C632   N636    1.373   .     A
H633   C509    1.087   1_655 S
N635   Zn645   2.042   .     S
N636   Zn646   2.042   .     S
O637   Zn645   1.985   .     S
O638   Zn646   1.985   .     S
O639   Zn646   1.982   .     S
O640   Zn645   1.982   .     S
O641   Zn645   1.971   .     S
O642   Zn646   1.971   .     S
O643   Zn646   1.984   .     S
O644   Zn645   1.984   .     S
C647   H650    1.107   .     S
C647   H649    1.109   .     S
C647   H648    1.107   .     S
C651   H654    1.109   .     S
C651   H652    1.107   .     S
C651   H653    1.107   .     S
C655   H658    1.102   .     S
C655   H657    1.110   .     S
C655   H656    1.110   .     S
C659   H660    1.110   .     S
C659   H661    1.102   .     S
C659   H662    1.110   .     S
C663   H666    1.110   .     S
C663   H664    1.110   .     S
C663   H665    1.085   .     S
C667   H670    1.085   .     S
C667   H668    1.110   .     S
C667   H669    1.110   .     S
C673   O693    1.289   .     A
C673   C684    1.411   .     S
C673   O695    1.293   .     A
C674   O694    1.289   .     A
C674   C683    1.411   .     S
C674   O696    1.293   .     A
C675   O697    1.289   .     A
C675   O699    1.296   .     A
C675   C677    1.407   .     S
C676   O698    1.289   .     A
C676   C678    1.407   .     S
C676   O700    1.296   .     A
C677   C790    1.334   1_455 S
C677   H801    1.087   1_455 S
C678   C733    1.334   .     S
C678   H746    1.087   .     S
C679   C684    1.408   .     A
C679   C703    1.518   .     S
C680   C683    1.408   .     A
C680   C707    1.518   .     S
C680   C850    1.395   .     S
C681   C683    1.406   .     A
C681   C711    1.523   .     S
C681   C847    1.395   .     S
C682   C684    1.406   .     A
C682   C715    1.523   .     S
C685   N692    1.382   .     A
C685   C719    1.508   .     S
C686   N691    1.382   .     A
C686   C723    1.508   .     S
C686   C1192   1.430   .     S
C687   N691    1.373   .     A
C687   I727    2.136   .     S
C687   C1189   1.430   .     S
C688   I728    2.136   .     S
C688   N692    1.373   .     A
H689   C733    1.087   .     S
H690   C790    1.087   1_455 S
N691   Zn701   2.042   .     S
N692   Zn702   2.042   .     S
O693   Zn701   1.985   .     S
O694   Zn702   1.985   .     S
O695   Zn702   1.982   .     S
O696   Zn701   1.982   .     S
O697   Zn701   1.971   .     S
O698   Zn702   1.971   .     S
O699   Zn702   1.984   .     S
O700   Zn701   1.984   .     S
C703   H706    1.107   .     S
C703   H705    1.109   .     S
C703   H704    1.107   .     S
C707   H710    1.109   .     S
C707   H708    1.107   .     S
C707   H709    1.107   .     S
C711   H714    1.102   .     S
C711   H713    1.110   .     S
C711   H712    1.110   .     S
C715   H716    1.110   .     S
C715   H717    1.102   .     S
C715   H718    1.110   .     S
C719   H722    1.110   .     S
C719   H720    1.110   .     S
C719   H721    1.085   .     S
C723   H726    1.085   .     S
C723   H724    1.110   .     S
C723   H725    1.110   .     S
C729   O749    1.289   .     A
C729   C740    1.411   .     S
C729   O751    1.293   .     A
C730   O750    1.289   .     A
C730   C739    1.411   .     S
C730   O752    1.293   .     A
C731   O753    1.289   .     A
C731   O755    1.296   .     A
C731   C733    1.407   .     S
C732   O754    1.289   .     A
C732   C734    1.407   .     S
C732   O756    1.296   .     A
C734   C789    1.334   .     S
C734   H802    1.087   .     S
C735   C740    1.408   .     A
C735   C759    1.518   .     S
C736   C739    1.408   .     A
C736   C763    1.518   .     S
C736   C906    1.395   .     S
C737   C739    1.406   .     A
C737   C767    1.523   .     S
C737   C903    1.395   .     S
C738   C740    1.406   .     A
C738   C771    1.523   .     S
C741   N748    1.382   .     A
C741   C775    1.508   .     S
C742   N747    1.382   .     A
C742   C779    1.508   .     S
C742   C1248   1.430   .     S
C743   N747    1.373   .     A
C743   I783    2.136   .     S
C743   C1245   1.430   .     S
C744   I784    2.136   .     S
C744   N748    1.373   .     A
H745   C789    1.087   .     S
N747   Zn757   2.042   .     S
N748   Zn758   2.042   .     S
O749   Zn757   1.985   .     S
O750   Zn758   1.985   .     S
O751   Zn758   1.982   .     S
O752   Zn757   1.982   .     S
O753   Zn757   1.971   .     S
O754   Zn758   1.971   .     S
O755   Zn758   1.984   .     S
O756   Zn757   1.984   .     S
C759   H762    1.107   .     S
C759   H761    1.109   .     S
C759   H760    1.107   .     S
C763   H766    1.109   .     S
C763   H764    1.107   .     S
C763   H765    1.107   .     S
C767   H770    1.102   .     S
C767   H769    1.110   .     S
C767   H768    1.110   .     S
C771   H772    1.110   .     S
C771   H773    1.102   .     S
C771   H774    1.110   .     S
C775   H778    1.110   .     S
C775   H776    1.110   .     S
C775   H777    1.085   .     S
C779   H782    1.085   .     S
C779   H780    1.110   .     S
C779   H781    1.110   .     S
C785   O805    1.289   .     A
C785   C796    1.411   .     S
C785   O807    1.293   .     A
C786   O806    1.289   .     A
C786   C795    1.411   .     S
C786   O808    1.293   .     A
C787   O809    1.289   .     A
C787   O811    1.296   .     A
C787   C789    1.407   .     S
C788   O810    1.289   .     A
C788   C790    1.407   .     S
C788   O812    1.296   .     A
C790   C677    1.334   1_655 S
C790   H690    1.087   1_655 S
C791   C796    1.408   .     A
C791   C815    1.518   .     S
C792   C795    1.408   .     A
C792   C819    1.518   .     S
C792   C962    1.395   .     S
C793   C795    1.406   .     A
C793   C823    1.523   .     S
C793   C959    1.395   .     S
C794   C796    1.406   .     A
C794   C827    1.523   .     S
C797   N804    1.382   .     A
C797   C831    1.508   .     S
C798   N803    1.382   .     A
C798   C835    1.508   .     S
C798   C1304   1.430   .     S
C799   N803    1.373   .     A
C799   I839    2.136   .     S
C799   C1301   1.430   .     S
C800   I840    2.136   .     S
C800   N804    1.373   .     A
H801   C677    1.087   1_655 S
N803   Zn813   2.042   .     S
N804   Zn814   2.042   .     S
O805   Zn813   1.985   .     S
O806   Zn814   1.985   .     S
O807   Zn814   1.982   .     S
O808   Zn813   1.982   .     S
O809   Zn813   1.971   .     S
O810   Zn814   1.971   .     S
O811   Zn814   1.984   .     S
O812   Zn813   1.984   .     S
C815   H818    1.107   .     S
C815   H817    1.109   .     S
C815   H816    1.107   .     S
C819   H822    1.109   .     S
C819   H820    1.107   .     S
C819   H821    1.107   .     S
C823   H826    1.102   .     S
C823   H825    1.110   .     S
C823   H824    1.110   .     S
C827   H828    1.110   .     S
C827   H829    1.102   .     S
C827   H830    1.110   .     S
C831   H834    1.110   .     S
C831   H832    1.110   .     S
C831   H833    1.085   .     S
C835   H838    1.085   .     S
C835   H836    1.110   .     S
C835   H837    1.110   .     S
C841   O861    1.289   .     A
C841   C852    1.411   .     S
C841   O863    1.293   .     A
C842   O862    1.289   .     A
C842   C851    1.411   .     S
C842   O864    1.293   .     A
C843   O865    1.289   .     A
C843   O867    1.296   .     A
C843   C845    1.407   .     S
C844   O866    1.289   .     A
C844   C846    1.407   .     S
C844   O868    1.296   .     A
C845   C958    1.334   1_455 S
C845   H969    1.087   1_455 S
C846   C901    1.334   .     S
C846   H914    1.087   .     S
C847   C852    1.408   .     A
C847   C871    1.518   .     S
C848   C851    1.408   .     A
C848   C875    1.518   .     S
C848   C514    1.395   1_565 S
C849   C851    1.406   .     A
C849   C879    1.523   .     S
C849   C511    1.395   1_565 S
C850   C852    1.406   .     A
C850   C883    1.523   .     S
C853   N860    1.382   .     A
C853   C887    1.508   .     S
C854   N859    1.382   .     A
C854   C891    1.508   .     S
C854   C1360   1.430   .     S
C855   N859    1.373   .     A
C855   I895    2.136   .     S
C855   C1357   1.430   .     S
C856   I896    2.136   .     S
C856   N860    1.373   .     A
H857   C901    1.087   .     S
H858   C958    1.087   1_455 S
N859   Zn869   2.042   .     S
N860   Zn870   2.042   .     S
O861   Zn869   1.985   .     S
O862   Zn870   1.985   .     S
O863   Zn870   1.982   .     S
O864   Zn869   1.982   .     S
O865   Zn869   1.971   .     S
O866   Zn870   1.971   .     S
O867   Zn870   1.984   .     S
O868   Zn869   1.984   .     S
C871   H874    1.107   .     S
C871   H873    1.109   .     S
C871   H872    1.107   .     S
C875   H878    1.109   .     S
C875   H876    1.107   .     S
C875   H877    1.107   .     S
C879   H882    1.102   .     S
C879   H881    1.110   .     S
C879   H880    1.110   .     S
C883   H884    1.110   .     S
C883   H885    1.102   .     S
C883   H886    1.110   .     S
C887   H890    1.110   .     S
C887   H888    1.110   .     S
C887   H889    1.085   .     S
C891   H894    1.085   .     S
C891   H892    1.110   .     S
C891   H893    1.110   .     S
C897   O917    1.289   .     A
C897   C908    1.411   .     S
C897   O919    1.293   .     A
C898   O918    1.289   .     A
C898   C907    1.411   .     S
C898   O920    1.293   .     A
C899   O921    1.289   .     A
C899   O923    1.296   .     A
C899   C901    1.407   .     S
C900   O922    1.289   .     A
C900   C902    1.407   .     S
C900   O924    1.296   .     A
C902   C957    1.334   .     S
C902   H970    1.087   .     S
C903   C908    1.408   .     A
C903   C927    1.518   .     S
C904   C907    1.408   .     A
C904   C931    1.518   .     S
C904   C570    1.395   1_565 S
C905   C907    1.406   .     A
C905   C935    1.523   .     S
C905   C567    1.395   1_565 S
C906   C908    1.406   .     A
C906   C939    1.523   .     S
C909   N916    1.382   .     A
C909   C943    1.508   .     S
C910   N915    1.382   .     A
C910   C947    1.508   .     S
C910   C1416   1.430   .     S
C911   N915    1.373   .     A
C911   I951    2.136   .     S
C911   C1413   1.430   .     S
C912   I952    2.136   .     S
C912   N916    1.373   .     A
H913   C957    1.087   .     S
N915   Zn925   2.042   .     S
N916   Zn926   2.042   .     S
O917   Zn925   1.985   .     S
O918   Zn926   1.985   .     S
O919   Zn926   1.982   .     S
O920   Zn925   1.982   .     S
O921   Zn925   1.971   .     S
O922   Zn926   1.971   .     S
O923   Zn926   1.984   .     S
O924   Zn925   1.984   .     S
C927   H930    1.107   .     S
C927   H929    1.109   .     S
C927   H928    1.107   .     S
C931   H934    1.109   .     S
C931   H932    1.107   .     S
C931   H933    1.107   .     S
C935   H938    1.102   .     S
C935   H937    1.110   .     S
C935   H936    1.110   .     S
C939   H940    1.110   .     S
C939   H941    1.102   .     S
C939   H942    1.110   .     S
C943   H946    1.110   .     S
C943   H944    1.110   .     S
C943   H945    1.085   .     S
C947   H950    1.085   .     S
C947   H948    1.110   .     S
C947   H949    1.110   .     S
C953   O973    1.289   .     A
C953   C964    1.411   .     S
C953   O975    1.293   .     A
C954   O974    1.289   .     A
C954   C963    1.411   .     S
C954   O976    1.293   .     A
C955   O977    1.289   .     A
C955   O979    1.296   .     A
C955   C957    1.407   .     S
C956   O978    1.289   .     A
C956   C958    1.407   .     S
C956   O980    1.296   .     A
C958   C845    1.334   1_655 S
C958   H858    1.087   1_655 S
C959   C964    1.408   .     A
C959   C983    1.518   .     S
C960   C963    1.408   .     A
C960   C987    1.518   .     S
C960   C626    1.395   1_565 S
C961   C963    1.406   .     A
C961   C991    1.523   .     S
C961   C623    1.395   1_565 S
C962   C964    1.406   .     A
C962   C995    1.523   .     S
C965   N972    1.382   .     A
C965   C999    1.508   .     S
C966   N971    1.382   .     A
C966   C1003   1.508   .     S
C966   C1472   1.430   .     S
C967   N971    1.373   .     A
C967   I1007   2.136   .     S
C967   C1469   1.430   .     S
C968   I1008   2.136   .     S
C968   N972    1.373   .     A
H969   C845    1.087   1_655 S
N971   Zn981   2.042   .     S
N972   Zn982   2.042   .     S
O973   Zn981   1.985   .     S
O974   Zn982   1.985   .     S
O975   Zn982   1.982   .     S
O976   Zn981   1.982   .     S
O977   Zn981   1.971   .     S
O978   Zn982   1.971   .     S
O979   Zn982   1.984   .     S
O980   Zn981   1.984   .     S
C983   H986    1.107   .     S
C983   H985    1.109   .     S
C983   H984    1.107   .     S
C987   H990    1.109   .     S
C987   H988    1.107   .     S
C987   H989    1.107   .     S
C991   H994    1.102   .     S
C991   H993    1.110   .     S
C991   H992    1.110   .     S
C995   H996    1.110   .     S
C995   H997    1.102   .     S
C995   H998    1.110   .     S
C999   H1002   1.110   .     S
C999   H1000   1.110   .     S
C999   H1001   1.085   .     S
C1003  H1006   1.085   .     S
C1003  H1004   1.110   .     S
C1003  H1005   1.110   .     S
C1009  O1029   1.289   .     A
C1009  C1020   1.411   .     S
C1009  O1031   1.293   .     A
C1010  O1030   1.289   .     A
C1010  C1019   1.411   .     S
C1010  O1032   1.293   .     A
C1011  O1033   1.289   .     A
C1011  O1035   1.296   .     A
C1011  C1013   1.407   .     S
C1012  O1034   1.289   .     A
C1012  C1014   1.407   .     S
C1012  O1036   1.296   .     A
C1013  C1126   1.334   1_455 S
C1013  H1137   1.087   1_455 S
C1014  C1069   1.334   .     S
C1014  H1082   1.087   .     S
C1015  C1020   1.408   .     A
C1015  C1039   1.518   .     S
C1015  C1353   1.395   1_545 S
C1016  C1019   1.408   .     A
C1016  C1043   1.518   .     S
C1016  C1186   1.395   .     S
C1017  C1019   1.406   .     A
C1017  C1047   1.523   .     S
C1017  C1183   1.395   .     S
C1018  C1020   1.406   .     A
C1018  C1051   1.523   .     S
C1018  C1352   1.395   1_545 S
C1021  N1028   1.382   .     A
C1021  C1055   1.508   .     S
C1022  N1027   1.382   .     A
C1022  C1059   1.508   .     S
C1022  C16     1.430   1_556 S
C1023  N1027   1.373   .     A
C1023  I1063   2.136   .     S
C1023  C13     1.430   1_556 S
C1024  I1064   2.136   .     S
C1024  N1028   1.373   .     A
H1025  C1069   1.087   .     S
H1026  C1126   1.087   1_455 S
N1027  Zn1037  2.042   .     S
N1028  Zn1038  2.042   .     S
O1029  Zn1037  1.985   .     S
O1030  Zn1038  1.985   .     S
O1031  Zn1038  1.982   .     S
O1032  Zn1037  1.982   .     S
O1033  Zn1037  1.971   .     S
O1034  Zn1038  1.971   .     S
O1035  Zn1038  1.984   .     S
O1036  Zn1037  1.984   .     S
C1039  H1042   1.107   .     S
C1039  H1041   1.109   .     S
C1039  H1040   1.107   .     S
C1043  H1046   1.109   .     S
C1043  H1044   1.107   .     S
C1043  H1045   1.107   .     S
C1047  H1050   1.102   .     S
C1047  H1049   1.110   .     S
C1047  H1048   1.110   .     S
C1051  H1052   1.110   .     S
C1051  H1053   1.102   .     S
C1051  H1054   1.110   .     S
C1055  H1058   1.110   .     S
C1055  H1056   1.110   .     S
C1055  H1057   1.085   .     S
C1059  H1062   1.085   .     S
C1059  H1060   1.110   .     S
C1059  H1061   1.110   .     S
C1065  O1085   1.289   .     A
C1065  C1076   1.411   .     S
C1065  O1087   1.293   .     A
C1066  O1086   1.289   .     A
C1066  C1075   1.411   .     S
C1066  O1088   1.293   .     A
C1067  O1089   1.289   .     A
C1067  O1091   1.296   .     A
C1067  C1069   1.407   .     S
C1068  O1090   1.289   .     A
C1068  C1070   1.407   .     S
C1068  O1092   1.296   .     A
C1070  C1125   1.334   .     S
C1070  H1138   1.087   .     S
C1071  C1076   1.408   .     A
C1071  C1095   1.518   .     S
C1071  C1409   1.395   1_545 S
C1072  C1075   1.408   .     A
C1072  C1099   1.518   .     S
C1072  C1242   1.395   .     S
C1073  C1075   1.406   .     A
C1073  C1103   1.523   .     S
C1073  C1239   1.395   .     S
C1074  C1076   1.406   .     A
C1074  C1107   1.523   .     S
C1074  C1408   1.395   1_545 S
C1077  N1084   1.382   .     A
C1077  C1111   1.508   .     S
C1078  N1083   1.382   .     A
C1078  C1115   1.508   .     S
C1078  C72     1.430   1_556 S
C1079  N1083   1.373   .     A
C1079  I1119   2.136   .     S
C1079  C69     1.430   1_556 S
C1080  I1120   2.136   .     S
C1080  N1084   1.373   .     A
H1081  C1125   1.087   .     S
N1083  Zn1093  2.042   .     S
N1084  Zn1094  2.042   .     S
O1085  Zn1093  1.985   .     S
O1086  Zn1094  1.985   .     S
O1087  Zn1094  1.982   .     S
O1088  Zn1093  1.982   .     S
O1089  Zn1093  1.971   .     S
O1090  Zn1094  1.971   .     S
O1091  Zn1094  1.984   .     S
O1092  Zn1093  1.984   .     S
C1095  H1098   1.107   .     S
C1095  H1097   1.109   .     S
C1095  H1096   1.107   .     S
C1099  H1102   1.109   .     S
C1099  H1100   1.107   .     S
C1099  H1101   1.107   .     S
C1103  H1106   1.102   .     S
C1103  H1105   1.110   .     S
C1103  H1104   1.110   .     S
C1107  H1108   1.110   .     S
C1107  H1109   1.102   .     S
C1107  H1110   1.110   .     S
C1111  H1114   1.110   .     S
C1111  H1112   1.110   .     S
C1111  H1113   1.085   .     S
C1115  H1118   1.085   .     S
C1115  H1116   1.110   .     S
C1115  H1117   1.110   .     S
C1121  O1141   1.289   .     A
C1121  C1132   1.411   .     S
C1121  O1143   1.293   .     A
C1122  O1142   1.289   .     A
C1122  C1131   1.411   .     S
C1122  O1144   1.293   .     A
C1123  O1145   1.289   .     A
C1123  O1147   1.296   .     A
C1123  C1125   1.407   .     S
C1124  O1146   1.289   .     A
C1124  C1126   1.407   .     S
C1124  O1148   1.296   .     A
C1126  C1013   1.334   1_655 S
C1126  H1026   1.087   1_655 S
C1127  C1132   1.408   .     A
C1127  C1151   1.518   .     S
C1127  C1465   1.395   1_545 S
C1128  C1131   1.408   .     A
C1128  C1155   1.518   .     S
C1128  C1298   1.395   .     S
C1129  C1131   1.406   .     A
C1129  C1159   1.523   .     S
C1129  C1295   1.395   .     S
C1130  C1132   1.406   .     A
C1130  C1163   1.523   .     S
C1130  C1464   1.395   1_545 S
C1133  N1140   1.382   .     A
C1133  C1167   1.508   .     S
C1134  N1139   1.382   .     A
C1134  C1171   1.508   .     S
C1134  C128    1.430   1_556 S
C1135  N1139   1.373   .     A
C1135  I1175   2.136   .     S
C1135  C125    1.430   1_556 S
C1136  I1176   2.136   .     S
C1136  N1140   1.373   .     A
H1137  C1013   1.087   1_655 S
N1139  Zn1149  2.042   .     S
N1140  Zn1150  2.042   .     S
O1141  Zn1149  1.985   .     S
O1142  Zn1150  1.985   .     S
O1143  Zn1150  1.982   .     S
O1144  Zn1149  1.982   .     S
O1145  Zn1149  1.971   .     S
O1146  Zn1150  1.971   .     S
O1147  Zn1150  1.984   .     S
O1148  Zn1149  1.984   .     S
C1151  H1154   1.107   .     S
C1151  H1153   1.109   .     S
C1151  H1152   1.107   .     S
C1155  H1158   1.109   .     S
C1155  H1156   1.107   .     S
C1155  H1157   1.107   .     S
C1159  H1162   1.102   .     S
C1159  H1161   1.110   .     S
C1159  H1160   1.110   .     S
C1163  H1164   1.110   .     S
C1163  H1165   1.102   .     S
C1163  H1166   1.110   .     S
C1167  H1170   1.110   .     S
C1167  H1168   1.110   .     S
C1167  H1169   1.085   .     S
C1171  H1174   1.085   .     S
C1171  H1172   1.110   .     S
C1171  H1173   1.110   .     S
C1177  O1197   1.289   .     A
C1177  C1188   1.411   .     S
C1177  O1199   1.293   .     A
C1178  O1198   1.289   .     A
C1178  C1187   1.411   .     S
C1178  O1200   1.293   .     A
C1179  O1201   1.289   .     A
C1179  O1203   1.296   .     A
C1179  C1181   1.407   .     S
C1180  O1202   1.289   .     A
C1180  C1182   1.407   .     S
C1180  O1204   1.296   .     A
C1181  C1294   1.334   1_455 S
C1181  H1305   1.087   1_455 S
C1182  C1237   1.334   .     S
C1182  H1250   1.087   .     S
C1183  C1188   1.408   .     A
C1183  C1207   1.518   .     S
C1184  C1187   1.408   .     A
C1184  C1211   1.518   .     S
C1184  C1354   1.395   .     S
C1185  C1187   1.406   .     A
C1185  C1215   1.523   .     S
C1185  C1351   1.395   .     S
C1186  C1188   1.406   .     A
C1186  C1219   1.523   .     S
C1189  N1196   1.382   .     A
C1189  C1223   1.508   .     S
C1190  N1195   1.382   .     A
C1190  C1227   1.508   .     S
C1190  C184    1.430   1_556 S
C1191  N1195   1.373   .     A
C1191  I1231   2.136   .     S
C1191  C181    1.430   1_556 S
C1192  I1232   2.136   .     S
C1192  N1196   1.373   .     A
H1193  C1237   1.087   .     S
H1194  C1294   1.087   1_455 S
N1195  Zn1205  2.042   .     S
N1196  Zn1206  2.042   .     S
O1197  Zn1205  1.985   .     S
O1198  Zn1206  1.985   .     S
O1199  Zn1206  1.982   .     S
O1200  Zn1205  1.982   .     S
O1201  Zn1205  1.971   .     S
O1202  Zn1206  1.971   .     S
O1203  Zn1206  1.984   .     S
O1204  Zn1205  1.984   .     S
C1207  H1210   1.107   .     S
C1207  H1209   1.109   .     S
C1207  H1208   1.107   .     S
C1211  H1214   1.109   .     S
C1211  H1212   1.107   .     S
C1211  H1213   1.107   .     S
C1215  H1218   1.102   .     S
C1215  H1217   1.110   .     S
C1215  H1216   1.110   .     S
C1219  H1220   1.110   .     S
C1219  H1221   1.102   .     S
C1219  H1222   1.110   .     S
C1223  H1226   1.110   .     S
C1223  H1224   1.110   .     S
C1223  H1225   1.085   .     S
C1227  H1230   1.085   .     S
C1227  H1228   1.110   .     S
C1227  H1229   1.110   .     S
C1233  O1253   1.289   .     A
C1233  C1244   1.411   .     S
C1233  O1255   1.293   .     A
C1234  O1254   1.289   .     A
C1234  C1243   1.411   .     S
C1234  O1256   1.293   .     A
C1235  O1257   1.289   .     A
C1235  O1259   1.296   .     A
C1235  C1237   1.407   .     S
C1236  O1258   1.289   .     A
C1236  C1238   1.407   .     S
C1236  O1260   1.296   .     A
C1238  C1293   1.334   .     S
C1238  H1306   1.087   .     S
C1239  C1244   1.408   .     A
C1239  C1263   1.518   .     S
C1240  C1243   1.408   .     A
C1240  C1267   1.518   .     S
C1240  C1410   1.395   .     S
C1241  C1243   1.406   .     A
C1241  C1271   1.523   .     S
C1241  C1407   1.395   .     S
C1242  C1244   1.406   .     A
C1242  C1275   1.523   .     S
C1245  N1252   1.382   .     A
C1245  C1279   1.508   .     S
C1246  N1251   1.382   .     A
C1246  C1283   1.508   .     S
C1246  C240    1.430   1_556 S
C1247  N1251   1.373   .     A
C1247  I1287   2.136   .     S
C1247  C237    1.430   1_556 S
C1248  I1288   2.136   .     S
C1248  N1252   1.373   .     A
H1249  C1293   1.087   .     S
N1251  Zn1261  2.042   .     S
N1252  Zn1262  2.042   .     S
O1253  Zn1261  1.985   .     S
O1254  Zn1262  1.985   .     S
O1255  Zn1262  1.982   .     S
O1256  Zn1261  1.982   .     S
O1257  Zn1261  1.971   .     S
O1258  Zn1262  1.971   .     S
O1259  Zn1262  1.984   .     S
O1260  Zn1261  1.984   .     S
C1263  H1266   1.107   .     S
C1263  H1265   1.109   .     S
C1263  H1264   1.107   .     S
C1267  H1270   1.109   .     S
C1267  H1268   1.107   .     S
C1267  H1269   1.107   .     S
C1271  H1274   1.102   .     S
C1271  H1273   1.110   .     S
C1271  H1272   1.110   .     S
C1275  H1276   1.110   .     S
C1275  H1277   1.102   .     S
C1275  H1278   1.110   .     S
C1279  H1282   1.110   .     S
C1279  H1280   1.110   .     S
C1279  H1281   1.085   .     S
C1283  H1286   1.085   .     S
C1283  H1284   1.110   .     S
C1283  H1285   1.110   .     S
C1289  O1309   1.289   .     A
C1289  C1300   1.411   .     S
C1289  O1311   1.293   .     A
C1290  O1310   1.289   .     A
C1290  C1299   1.411   .     S
C1290  O1312   1.293   .     A
C1291  O1313   1.289   .     A
C1291  O1315   1.296   .     A
C1291  C1293   1.407   .     S
C1292  O1314   1.289   .     A
C1292  C1294   1.407   .     S
C1292  O1316   1.296   .     A
C1294  C1181   1.334   1_655 S
C1294  H1194   1.087   1_655 S
C1295  C1300   1.408   .     A
C1295  C1319   1.518   .     S
C1296  C1299   1.408   .     A
C1296  C1323   1.518   .     S
C1296  C1466   1.395   .     S
C1297  C1299   1.406   .     A
C1297  C1327   1.523   .     S
C1297  C1463   1.395   .     S
C1298  C1300   1.406   .     A
C1298  C1331   1.523   .     S
C1301  N1308   1.382   .     A
C1301  C1335   1.508   .     S
C1302  N1307   1.382   .     A
C1302  C1339   1.508   .     S
C1302  C296    1.430   1_556 S
C1303  N1307   1.373   .     A
C1303  I1343   2.136   .     S
C1303  C293    1.430   1_556 S
C1304  I1344   2.136   .     S
C1304  N1308   1.373   .     A
H1305  C1181   1.087   1_655 S
N1307  Zn1317  2.042   .     S
N1308  Zn1318  2.042   .     S
O1309  Zn1317  1.985   .     S
O1310  Zn1318  1.985   .     S
O1311  Zn1318  1.982   .     S
O1312  Zn1317  1.982   .     S
O1313  Zn1317  1.971   .     S
O1314  Zn1318  1.971   .     S
O1315  Zn1318  1.984   .     S
O1316  Zn1317  1.984   .     S
C1319  H1322   1.107   .     S
C1319  H1321   1.109   .     S
C1319  H1320   1.107   .     S
C1323  H1326   1.109   .     S
C1323  H1324   1.107   .     S
C1323  H1325   1.107   .     S
C1327  H1330   1.102   .     S
C1327  H1329   1.110   .     S
C1327  H1328   1.110   .     S
C1331  H1332   1.110   .     S
C1331  H1333   1.102   .     S
C1331  H1334   1.110   .     S
C1335  H1338   1.110   .     S
C1335  H1336   1.110   .     S
C1335  H1337   1.085   .     S
C1339  H1342   1.085   .     S
C1339  H1340   1.110   .     S
C1339  H1341   1.110   .     S
C1345  O1365   1.289   .     A
C1345  C1356   1.411   .     S
C1345  O1367   1.293   .     A
C1346  O1366   1.289   .     A
C1346  C1355   1.411   .     S
C1346  O1368   1.293   .     A
C1347  O1369   1.289   .     A
C1347  O1371   1.296   .     A
C1347  C1349   1.407   .     S
C1348  O1370   1.289   .     A
C1348  C1350   1.407   .     S
C1348  O1372   1.296   .     A
C1349  C1462   1.334   1_455 S
C1349  H1473   1.087   1_455 S
C1350  C1405   1.334   .     S
C1350  H1418   1.087   .     S
C1351  C1356   1.408   .     A
C1351  C1375   1.518   .     S
C1352  C1355   1.408   .     A
C1352  C1379   1.518   .     S
C1352  C1018   1.395   1_565 S
C1353  C1355   1.406   .     A
C1353  C1383   1.523   .     S
C1353  C1015   1.395   1_565 S
C1354  C1356   1.406   .     A
C1354  C1387   1.523   .     S
C1357  N1364   1.382   .     A
C1357  C1391   1.508   .     S
C1358  N1363   1.382   .     A
C1358  C1395   1.508   .     S
C1358  C352    1.430   1_556 S
C1359  N1363   1.373   .     A
C1359  I1399   2.136   .     S
C1359  C349    1.430   1_556 S
C1360  I1400   2.136   .     S
C1360  N1364   1.373   .     A
H1361  C1405   1.087   .     S
H1362  C1462   1.087   1_455 S
N1363  Zn1373  2.042   .     S
N1364  Zn1374  2.042   .     S
O1365  Zn1373  1.985   .     S
O1366  Zn1374  1.985   .     S
O1367  Zn1374  1.982   .     S
O1368  Zn1373  1.982   .     S
O1369  Zn1373  1.971   .     S
O1370  Zn1374  1.971   .     S
O1371  Zn1374  1.984   .     S
O1372  Zn1373  1.984   .     S
C1375  H1378   1.107   .     S
C1375  H1377   1.109   .     S
C1375  H1376   1.107   .     S
C1379  H1382   1.109   .     S
C1379  H1380   1.107   .     S
C1379  H1381   1.107   .     S
C1383  H1386   1.102   .     S
C1383  H1385   1.110   .     S
C1383  H1384   1.110   .     S
C1387  H1388   1.110   .     S
C1387  H1389   1.102   .     S
C1387  H1390   1.110   .     S
C1391  H1394   1.110   .     S
C1391  H1392   1.110   .     S
C1391  H1393   1.085   .     S
C1395  H1398   1.085   .     S
C1395  H1396   1.110   .     S
C1395  H1397   1.110   .     S
C1401  O1421   1.289   .     A
C1401  C1412   1.411   .     S
C1401  O1423   1.293   .     A
C1402  O1422   1.289   .     A
C1402  C1411   1.411   .     S
C1402  O1424   1.293   .     A
C1403  O1425   1.289   .     A
C1403  O1427   1.296   .     A
C1403  C1405   1.407   .     S
C1404  O1426   1.289   .     A
C1404  C1406   1.407   .     S
C1404  O1428   1.296   .     A
C1406  C1461   1.334   .     S
C1406  H1474   1.087   .     S
C1407  C1412   1.408   .     A
C1407  C1431   1.518   .     S
C1408  C1411   1.408   .     A
C1408  C1435   1.518   .     S
C1408  C1074   1.395   1_565 S
C1409  C1411   1.406   .     A
C1409  C1439   1.523   .     S
C1409  C1071   1.395   1_565 S
C1410  C1412   1.406   .     A
C1410  C1443   1.523   .     S
C1413  N1420   1.382   .     A
C1413  C1447   1.508   .     S
C1414  N1419   1.382   .     A
C1414  C1451   1.508   .     S
C1414  C408    1.430   1_556 S
C1415  N1419   1.373   .     A
C1415  I1455   2.136   .     S
C1415  C405    1.430   1_556 S
C1416  I1456   2.136   .     S
C1416  N1420   1.373   .     A
H1417  C1461   1.087   .     S
N1419  Zn1429  2.042   .     S
N1420  Zn1430  2.042   .     S
O1421  Zn1429  1.985   .     S
O1422  Zn1430  1.985   .     S
O1423  Zn1430  1.982   .     S
O1424  Zn1429  1.982   .     S
O1425  Zn1429  1.971   .     S
O1426  Zn1430  1.971   .     S
O1427  Zn1430  1.984   .     S
O1428  Zn1429  1.984   .     S
C1431  H1434   1.107   .     S
C1431  H1433   1.109   .     S
C1431  H1432   1.107   .     S
C1435  H1438   1.109   .     S
C1435  H1436   1.107   .     S
C1435  H1437   1.107   .     S
C1439  H1442   1.102   .     S
C1439  H1441   1.110   .     S
C1439  H1440   1.110   .     S
C1443  H1444   1.110   .     S
C1443  H1445   1.102   .     S
C1443  H1446   1.110   .     S
C1447  H1450   1.110   .     S
C1447  H1448   1.110   .     S
C1447  H1449   1.085   .     S
C1451  H1454   1.085   .     S
C1451  H1452   1.110   .     S
C1451  H1453   1.110   .     S
C1457  O1477   1.289   .     A
C1457  C1468   1.411   .     S
C1457  O1479   1.293   .     A
C1458  O1478   1.289   .     A
C1458  C1467   1.411   .     S
C1458  O1480   1.293   .     A
C1459  O1481   1.289   .     A
C1459  O1483   1.296   .     A
C1459  C1461   1.407   .     S
C1460  O1482   1.289   .     A
C1460  C1462   1.407   .     S
C1460  O1484   1.296   .     A
C1462  C1349   1.334   1_655 S
C1462  H1362   1.087   1_655 S
C1463  C1468   1.408   .     A
C1463  C1487   1.518   .     S
C1464  C1467   1.408   .     A
C1464  C1491   1.518   .     S
C1464  C1130   1.395   1_565 S
C1465  C1467   1.406   .     A
C1465  C1495   1.523   .     S
C1465  C1127   1.395   1_565 S
C1466  C1468   1.406   .     A
C1466  C1499   1.523   .     S
C1469  N1476   1.382   .     A
C1469  C1503   1.508   .     S
C1470  N1475   1.382   .     A
C1470  C1507   1.508   .     S
C1470  C464    1.430   1_556 S
C1471  N1475   1.373   .     A
C1471  I1511   2.136   .     S
C1471  C461    1.430   1_556 S
C1472  I1512   2.136   .     S
C1472  N1476   1.373   .     A
H1473  C1349   1.087   1_655 S
N1475  Zn1485  2.042   .     S
N1476  Zn1486  2.042   .     S
O1477  Zn1485  1.985   .     S
O1478  Zn1486  1.985   .     S
O1479  Zn1486  1.982   .     S
O1480  Zn1485  1.982   .     S
O1481  Zn1485  1.971   .     S
O1482  Zn1486  1.971   .     S
O1483  Zn1486  1.984   .     S
O1484  Zn1485  1.984   .     S
C1487  H1490   1.107   .     S
C1487  H1489   1.109   .     S
C1487  H1488   1.107   .     S
C1491  H1494   1.109   .     S
C1491  H1492   1.107   .     S
C1491  H1493   1.107   .     S
C1495  H1498   1.102   .     S
C1495  H1497   1.110   .     S
C1495  H1496   1.110   .     S
C1499  H1500   1.110   .     S
C1499  H1501   1.102   .     S
C1499  H1502   1.110   .     S
C1503  H1506   1.110   .     S
C1503  H1504   1.110   .     S
C1503  H1505   1.085   .     S
C1507  H1510   1.085   .     S
C1507  H1508   1.110   .     S
C1507  H1509   1.110   .     S
