data_str_m3_o1_o18_pcu_sym.25
_audit_creation_date              2020-01-03
_audit_creation_method            'Materials Studio'
_symmetry_space_group_name_H-M    'P1'
_symmetry_Int_Tables_number       1
_symmetry_cell_setting            triclinic
loop_
_symmetry_equiv_pos_as_xyz
  x,y,z
_cell_length_a                    29.7291
_cell_length_b                    31.9150
_cell_length_c                    31.1260
_cell_angle_alpha                 91.0674
_cell_angle_beta                  67.3807
_cell_angle_gamma                 90.8479
loop_
_atom_site_label
_atom_site_type_symbol
_atom_site_fract_x
_atom_site_fract_y
_atom_site_fract_z
_atom_site_U_iso_or_equiv
_atom_site_adp_type
_atom_site_occupancy
Br1    Br    0.01851   0.11255   0.06804   0.00000  Uiso   1.00
Br2    Br    0.31453   0.22216   0.43238   0.00000  Uiso   1.00
Br3    Br    0.26391   0.28582   0.17251   0.00000  Uiso   1.00
Br4    Br    0.06943   0.04752   0.32750   0.00000  Uiso   1.00
Br5    Br    0.07644   0.09599   0.18607   0.00000  Uiso   1.00
Br6    Br    0.25695   0.23741   0.31384   0.00000  Uiso   1.00
C7     C     0.16729   0.24654   0.24920   0.00000  Uiso   1.00
C8     C     0.12663   0.31104   0.28043   0.00000  Uiso   1.00
C9     C     0.16560   0.04265   0.25084   0.00000  Uiso   1.00
C10    C     0.16773   0.29068   0.24917   0.00000  Uiso   1.00
C11    C     0.31908   0.13817   0.22393   0.00000  Uiso   1.00
C12    C     0.01425   0.19517   0.27607   0.00000  Uiso   1.00
C13    C     0.03341   0.13798   0.22385   0.00000  Uiso   1.00
C14    C     0.29993   0.19537   0.27613   0.00000  Uiso   1.00
C15    C     0.13600   0.16665   0.33787   0.00000  Uiso   1.00
C16    C     0.19733   0.16672   0.16213   0.00000  Uiso   1.00
C17    C     0.11654   0.16427   0.38839   0.00000  Uiso   1.00
C18    C     0.16604   0.08679   0.25080   0.00000  Uiso   1.00
C19    C     0.21678   0.16938   0.11165   0.00000  Uiso   1.00
C20    C     0.05863   0.13771   0.46074   0.00000  Uiso   1.00
C21    C     0.27446   0.19661   0.03954   0.00000  Uiso   1.00
C22    C     0.07179   0.14520   0.41353   0.00000  Uiso   1.00
C23    C     0.26139   0.18876   0.08668   0.00000  Uiso   1.00
C24    C     0.14678   0.17727   0.41070   0.00000  Uiso   1.00
C25    C     0.18659   0.15651   0.08925   0.00000  Uiso   1.00
C26    C     0.13723   0.16617   0.45658   0.00000  Uiso   1.00
C27    C     0.19595   0.16812   0.04356   0.00000  Uiso   1.00
C28    C     0.09143   0.14706   0.48250   0.00000  Uiso   1.00
C29    C     0.11321   0.14581   0.04947   0.00000  Uiso   1.00
C30    C     0.24167   0.18737   0.01775   0.00000  Uiso   1.00
C31    C     0.17254   0.17272   0.47662   0.00000  Uiso   1.00
C32    C     0.16057   0.16180   0.02359   0.00000  Uiso   1.00
C33    C     0.21982   0.18892   0.45083   0.00000  Uiso   1.00
C34    C     0.07970   0.13757   0.02927   0.00000  Uiso   1.00
C35    C     0.25333   0.19710   0.47105   0.00000  Uiso   1.00
C36    C     0.20803   0.31263   0.21837   0.00000  Uiso   1.00
C37    C     0.12530   0.02071   0.28163   0.00000  Uiso   1.00
C38    C     0.20670   0.02230   0.21957   0.00000  Uiso   1.00
H39    H     0.15513   0.13828   0.10919   0.00000  Uiso   1.00
H40    H     0.09602   0.29344   0.30434   0.00000  Uiso   1.00
H41    H     0.30879   0.11541   0.20307   0.00000  Uiso   1.00
H42    H     0.02455   0.21793   0.29691   0.00000  Uiso   1.00
H43    H     0.17843   0.19515   0.39052   0.00000  Uiso   1.00
H44    H     0.28545   0.19868   0.10374   0.00000  Uiso   1.00
H45    H     0.04766   0.13524   0.39655   0.00000  Uiso   1.00
H46    H     0.02358   0.12316   0.47933   0.00000  Uiso   1.00
H47    H     0.30943   0.21136   0.02107   0.00000  Uiso   1.00
H48    H     0.10027   0.13936   0.08602   0.00000  Uiso   1.00
H49    H     0.23271   0.19567   0.41438   0.00000  Uiso   1.00
H50    H     0.23731   0.03990   0.19567   0.00000  Uiso   1.00
N51    N     0.04759   0.16668   0.25001   0.00000  Uiso   1.00
N52    N     0.28574   0.16666   0.24999   0.00000  Uiso   1.00
O53    O     0.12846   0.22775   0.25001   0.00000  Uiso   1.00
O54    O     0.20488   0.10558   0.25000   0.00000  Uiso   1.00
O55    O     0.20490   0.22774   0.25000   0.00000  Uiso   1.00
O56    O     0.12843   0.10559   0.25000   0.00000  Uiso   1.00
O57    O     0.10661   0.16667   0.31613   0.00000  Uiso   1.00
O58    O     0.22672   0.16666   0.18388   0.00000  Uiso   1.00
O59    O     0.18305   0.16666   0.31612   0.00000  Uiso   1.00
O60    O     0.15028   0.16667   0.18388   0.00000  Uiso   1.00
Zn61   Zn    0.11562   0.16667   0.25000   0.00000  Uiso   1.00
Zn62   Zn    0.21771   0.16666   0.25000   0.00000  Uiso   1.00
Br63   Br    0.35185   0.11255   0.06804   0.00000  Uiso   1.00
Br64   Br    0.64786   0.22216   0.43238   0.00000  Uiso   1.00
Br65   Br    0.59725   0.28582   0.17251   0.00000  Uiso   1.00
Br66   Br    0.40276   0.04752   0.32750   0.00000  Uiso   1.00
Br67   Br    0.40977   0.09599   0.18607   0.00000  Uiso   1.00
Br68   Br    0.59028   0.23741   0.31384   0.00000  Uiso   1.00
C69    C     0.50063   0.24654   0.24920   0.00000  Uiso   1.00
C70    C     0.45997   0.31104   0.28043   0.00000  Uiso   1.00
C71    C     0.49893   0.04265   0.25084   0.00000  Uiso   1.00
C72    C     0.50107   0.29068   0.24917   0.00000  Uiso   1.00
C73    C     0.65241   0.13817   0.22393   0.00000  Uiso   1.00
C74    C     0.34759   0.19517   0.27607   0.00000  Uiso   1.00
C75    C     0.36675   0.13798   0.22385   0.00000  Uiso   1.00
C76    C     0.63326   0.19537   0.27613   0.00000  Uiso   1.00
C77    C     0.46933   0.16665   0.33787   0.00000  Uiso   1.00
C78    C     0.53067   0.16672   0.16213   0.00000  Uiso   1.00
C79    C     0.44987   0.16427   0.38839   0.00000  Uiso   1.00
C80    C     0.49937   0.08679   0.25080   0.00000  Uiso   1.00
C81    C     0.55012   0.16938   0.11165   0.00000  Uiso   1.00
C82    C     0.39197   0.13771   0.46074   0.00000  Uiso   1.00
C83    C     0.60780   0.19661   0.03954   0.00000  Uiso   1.00
C84    C     0.40512   0.14520   0.41353   0.00000  Uiso   1.00
C85    C     0.59472   0.18876   0.08668   0.00000  Uiso   1.00
C86    C     0.48011   0.17727   0.41070   0.00000  Uiso   1.00
C87    C     0.51992   0.15651   0.08925   0.00000  Uiso   1.00
C88    C     0.47056   0.16617   0.45658   0.00000  Uiso   1.00
C89    C     0.52928   0.16812   0.04356   0.00000  Uiso   1.00
C90    C     0.42476   0.14706   0.48250   0.00000  Uiso   1.00
C91    C     0.44654   0.14581   0.04947   0.00000  Uiso   1.00
C92    C     0.57501   0.18737   0.01775   0.00000  Uiso   1.00
C93    C     0.50587   0.17272   0.47662   0.00000  Uiso   1.00
C94    C     0.49390   0.16180   0.02359   0.00000  Uiso   1.00
C95    C     0.55316   0.18892   0.45083   0.00000  Uiso   1.00
C96    C     0.41303   0.13757   0.02927   0.00000  Uiso   1.00
C97    C     0.58667   0.19710   0.47105   0.00000  Uiso   1.00
C98    C     0.54137   0.31263   0.21837   0.00000  Uiso   1.00
C99    C     0.45863   0.02071   0.28163   0.00000  Uiso   1.00
C100   C     0.54003   0.02230   0.21957   0.00000  Uiso   1.00
H101   H     0.48846   0.13828   0.10919   0.00000  Uiso   1.00
H102   H     0.42935   0.29344   0.30434   0.00000  Uiso   1.00
H103   H     0.64212   0.11541   0.20307   0.00000  Uiso   1.00
H104   H     0.35788   0.21793   0.29691   0.00000  Uiso   1.00
H105   H     0.51176   0.19515   0.39052   0.00000  Uiso   1.00
H106   H     0.61879   0.19868   0.10374   0.00000  Uiso   1.00
H107   H     0.38100   0.13524   0.39655   0.00000  Uiso   1.00
H108   H     0.35691   0.12316   0.47933   0.00000  Uiso   1.00
H109   H     0.64276   0.21136   0.02107   0.00000  Uiso   1.00
H110   H     0.43361   0.13936   0.08602   0.00000  Uiso   1.00
H111   H     0.56604   0.19567   0.41438   0.00000  Uiso   1.00
H112   H     0.57064   0.03990   0.19567   0.00000  Uiso   1.00
N113   N     0.38093   0.16668   0.25001   0.00000  Uiso   1.00
N114   N     0.61907   0.16666   0.24999   0.00000  Uiso   1.00
O115   O     0.46179   0.22775   0.25001   0.00000  Uiso   1.00
O116   O     0.53821   0.10558   0.25000   0.00000  Uiso   1.00
O117   O     0.53823   0.22774   0.25000   0.00000  Uiso   1.00
O118   O     0.46177   0.10559   0.25000   0.00000  Uiso   1.00
O119   O     0.43994   0.16667   0.31613   0.00000  Uiso   1.00
O120   O     0.56006   0.16666   0.18388   0.00000  Uiso   1.00
O121   O     0.51639   0.16666   0.31612   0.00000  Uiso   1.00
O122   O     0.48361   0.16667   0.18388   0.00000  Uiso   1.00
Zn123  Zn    0.44896   0.16667   0.25000   0.00000  Uiso   1.00
Zn124  Zn    0.55104   0.16666   0.25000   0.00000  Uiso   1.00
Br125  Br    0.68518   0.11255   0.06804   0.00000  Uiso   1.00
Br126  Br    0.98120   0.22216   0.43238   0.00000  Uiso   1.00
Br127  Br    0.93058   0.28582   0.17251   0.00000  Uiso   1.00
Br128  Br    0.73610   0.04752   0.32750   0.00000  Uiso   1.00
Br129  Br    0.74311   0.09599   0.18607   0.00000  Uiso   1.00
Br130  Br    0.92361   0.23741   0.31384   0.00000  Uiso   1.00
C131   C     0.83396   0.24654   0.24920   0.00000  Uiso   1.00
C132   C     0.79330   0.31104   0.28043   0.00000  Uiso   1.00
C133   C     0.83227   0.04265   0.25084   0.00000  Uiso   1.00
C134   C     0.83440   0.29068   0.24917   0.00000  Uiso   1.00
C135   C     0.98575   0.13817   0.22393   0.00000  Uiso   1.00
C136   C     0.68092   0.19517   0.27607   0.00000  Uiso   1.00
C137   C     0.70008   0.13798   0.22385   0.00000  Uiso   1.00
C138   C     0.96660   0.19537   0.27613   0.00000  Uiso   1.00
C139   C     0.80267   0.16665   0.33787   0.00000  Uiso   1.00
C140   C     0.86400   0.16672   0.16213   0.00000  Uiso   1.00
C141   C     0.78321   0.16427   0.38839   0.00000  Uiso   1.00
C142   C     0.83271   0.08679   0.25080   0.00000  Uiso   1.00
C143   C     0.88345   0.16938   0.11165   0.00000  Uiso   1.00
C144   C     0.72530   0.13771   0.46074   0.00000  Uiso   1.00
C145   C     0.94113   0.19661   0.03954   0.00000  Uiso   1.00
C146   C     0.73845   0.14520   0.41353   0.00000  Uiso   1.00
C147   C     0.92805   0.18876   0.08668   0.00000  Uiso   1.00
C148   C     0.81344   0.17727   0.41070   0.00000  Uiso   1.00
C149   C     0.85325   0.15651   0.08925   0.00000  Uiso   1.00
C150   C     0.80390   0.16617   0.45658   0.00000  Uiso   1.00
C151   C     0.86261   0.16812   0.04356   0.00000  Uiso   1.00
C152   C     0.75810   0.14706   0.48250   0.00000  Uiso   1.00
C153   C     0.77988   0.14581   0.04947   0.00000  Uiso   1.00
C154   C     0.90834   0.18737   0.01775   0.00000  Uiso   1.00
C155   C     0.83920   0.17272   0.47662   0.00000  Uiso   1.00
C156   C     0.82724   0.16180   0.02359   0.00000  Uiso   1.00
C157   C     0.88649   0.18892   0.45083   0.00000  Uiso   1.00
C158   C     0.74637   0.13757   0.02927   0.00000  Uiso   1.00
C159   C     0.92000   0.19710   0.47105   0.00000  Uiso   1.00
C160   C     0.87470   0.31263   0.21837   0.00000  Uiso   1.00
C161   C     0.79197   0.02071   0.28163   0.00000  Uiso   1.00
C162   C     0.87337   0.02230   0.21957   0.00000  Uiso   1.00
H163   H     0.82179   0.13828   0.10919   0.00000  Uiso   1.00
H164   H     0.76269   0.29344   0.30434   0.00000  Uiso   1.00
H165   H     0.97546   0.11541   0.20307   0.00000  Uiso   1.00
H166   H     0.69122   0.21793   0.29691   0.00000  Uiso   1.00
H167   H     0.84510   0.19515   0.39052   0.00000  Uiso   1.00
H168   H     0.95212   0.19868   0.10374   0.00000  Uiso   1.00
H169   H     0.71433   0.13524   0.39655   0.00000  Uiso   1.00
H170   H     0.69024   0.12316   0.47933   0.00000  Uiso   1.00
H171   H     0.97610   0.21136   0.02107   0.00000  Uiso   1.00
H172   H     0.76694   0.13936   0.08602   0.00000  Uiso   1.00
H173   H     0.89937   0.19567   0.41438   0.00000  Uiso   1.00
H174   H     0.90398   0.03990   0.19567   0.00000  Uiso   1.00
N175   N     0.71426   0.16668   0.25001   0.00000  Uiso   1.00
N176   N     0.95241   0.16666   0.24999   0.00000  Uiso   1.00
O177   O     0.79512   0.22775   0.25001   0.00000  Uiso   1.00
O178   O     0.87154   0.10558   0.25000   0.00000  Uiso   1.00
O179   O     0.87157   0.22774   0.25000   0.00000  Uiso   1.00
O180   O     0.79510   0.10559   0.25000   0.00000  Uiso   1.00
O181   O     0.77328   0.16667   0.31613   0.00000  Uiso   1.00
O182   O     0.89339   0.16666   0.18388   0.00000  Uiso   1.00
O183   O     0.84972   0.16666   0.31612   0.00000  Uiso   1.00
O184   O     0.81695   0.16667   0.18388   0.00000  Uiso   1.00
Zn185  Zn    0.78229   0.16667   0.25000   0.00000  Uiso   1.00
Zn186  Zn    0.88438   0.16666   0.25000   0.00000  Uiso   1.00
Br187  Br    0.01851   0.44588   0.06804   0.00000  Uiso   1.00
Br188  Br    0.31453   0.55550   0.43238   0.00000  Uiso   1.00
Br189  Br    0.26391   0.61915   0.17251   0.00000  Uiso   1.00
Br190  Br    0.06943   0.38086   0.32750   0.00000  Uiso   1.00
Br191  Br    0.07644   0.42933   0.18607   0.00000  Uiso   1.00
Br192  Br    0.25695   0.57074   0.31384   0.00000  Uiso   1.00
C193   C     0.16729   0.57987   0.24920   0.00000  Uiso   1.00
C194   C     0.12663   0.64437   0.28043   0.00000  Uiso   1.00
C195   C     0.16560   0.37599   0.25084   0.00000  Uiso   1.00
C196   C     0.16773   0.62401   0.24917   0.00000  Uiso   1.00
C197   C     0.31908   0.47150   0.22393   0.00000  Uiso   1.00
C198   C     0.01425   0.52850   0.27607   0.00000  Uiso   1.00
C199   C     0.03341   0.47131   0.22385   0.00000  Uiso   1.00
C200   C     0.29993   0.52870   0.27613   0.00000  Uiso   1.00
C201   C     0.13600   0.49998   0.33787   0.00000  Uiso   1.00
C202   C     0.19733   0.50005   0.16213   0.00000  Uiso   1.00
C203   C     0.11654   0.49761   0.38839   0.00000  Uiso   1.00
C204   C     0.16604   0.42013   0.25080   0.00000  Uiso   1.00
C205   C     0.21678   0.50272   0.11165   0.00000  Uiso   1.00
C206   C     0.05863   0.47104   0.46074   0.00000  Uiso   1.00
C207   C     0.27446   0.52994   0.03954   0.00000  Uiso   1.00
C208   C     0.07179   0.47854   0.41353   0.00000  Uiso   1.00
C209   C     0.26139   0.52210   0.08668   0.00000  Uiso   1.00
C210   C     0.14678   0.51060   0.41070   0.00000  Uiso   1.00
C211   C     0.18659   0.48984   0.08925   0.00000  Uiso   1.00
C212   C     0.13723   0.49950   0.45658   0.00000  Uiso   1.00
C213   C     0.19595   0.50145   0.04356   0.00000  Uiso   1.00
C214   C     0.09143   0.48040   0.48250   0.00000  Uiso   1.00
C215   C     0.11321   0.47914   0.04947   0.00000  Uiso   1.00
C216   C     0.24167   0.52070   0.01775   0.00000  Uiso   1.00
C217   C     0.17254   0.50605   0.47662   0.00000  Uiso   1.00
C218   C     0.16057   0.49513   0.02359   0.00000  Uiso   1.00
C219   C     0.21982   0.52226   0.45083   0.00000  Uiso   1.00
C220   C     0.07970   0.47090   0.02927   0.00000  Uiso   1.00
C221   C     0.25333   0.53043   0.47105   0.00000  Uiso   1.00
C222   C     0.20803   0.64596   0.21837   0.00000  Uiso   1.00
C223   C     0.12530   0.35404   0.28163   0.00000  Uiso   1.00
C224   C     0.20670   0.35563   0.21957   0.00000  Uiso   1.00
H225   H     0.15513   0.47161   0.10919   0.00000  Uiso   1.00
H226   H     0.09602   0.62677   0.30434   0.00000  Uiso   1.00
H227   H     0.30879   0.44874   0.20307   0.00000  Uiso   1.00
H228   H     0.02455   0.55126   0.29691   0.00000  Uiso   1.00
H229   H     0.17843   0.52849   0.39052   0.00000  Uiso   1.00
H230   H     0.28545   0.53202   0.10374   0.00000  Uiso   1.00
H231   H     0.04766   0.46857   0.39655   0.00000  Uiso   1.00
H232   H     0.02358   0.45649   0.47933   0.00000  Uiso   1.00
H233   H     0.30943   0.54469   0.02107   0.00000  Uiso   1.00
H234   H     0.10027   0.47270   0.08602   0.00000  Uiso   1.00
H235   H     0.23271   0.52900   0.41438   0.00000  Uiso   1.00
H236   H     0.23731   0.37323   0.19567   0.00000  Uiso   1.00
N237   N     0.04759   0.50001   0.25001   0.00000  Uiso   1.00
N238   N     0.28574   0.49999   0.24999   0.00000  Uiso   1.00
O239   O     0.12846   0.56108   0.25001   0.00000  Uiso   1.00
O240   O     0.20488   0.43892   0.25000   0.00000  Uiso   1.00
O241   O     0.20490   0.56107   0.25000   0.00000  Uiso   1.00
O242   O     0.12843   0.43893   0.25000   0.00000  Uiso   1.00
O243   O     0.10661   0.50001   0.31613   0.00000  Uiso   1.00
O244   O     0.22672   0.49999   0.18388   0.00000  Uiso   1.00
O245   O     0.18305   0.50000   0.31612   0.00000  Uiso   1.00
O246   O     0.15028   0.50000   0.18388   0.00000  Uiso   1.00
Zn247  Zn    0.11562   0.50001   0.25000   0.00000  Uiso   1.00
Zn248  Zn    0.21771   0.49999   0.25000   0.00000  Uiso   1.00
Br249  Br    0.35185   0.44588   0.06804   0.00000  Uiso   1.00
Br250  Br    0.64786   0.55550   0.43238   0.00000  Uiso   1.00
Br251  Br    0.59725   0.61915   0.17251   0.00000  Uiso   1.00
Br252  Br    0.40276   0.38086   0.32750   0.00000  Uiso   1.00
Br253  Br    0.40977   0.42933   0.18607   0.00000  Uiso   1.00
Br254  Br    0.59028   0.57074   0.31384   0.00000  Uiso   1.00
C255   C     0.50063   0.57987   0.24920   0.00000  Uiso   1.00
C256   C     0.45997   0.64437   0.28043   0.00000  Uiso   1.00
C257   C     0.49893   0.37599   0.25084   0.00000  Uiso   1.00
C258   C     0.50107   0.62401   0.24917   0.00000  Uiso   1.00
C259   C     0.65241   0.47150   0.22393   0.00000  Uiso   1.00
C260   C     0.34759   0.52850   0.27607   0.00000  Uiso   1.00
C261   C     0.36675   0.47131   0.22385   0.00000  Uiso   1.00
C262   C     0.63326   0.52870   0.27613   0.00000  Uiso   1.00
C263   C     0.46933   0.49998   0.33787   0.00000  Uiso   1.00
C264   C     0.53067   0.50005   0.16213   0.00000  Uiso   1.00
C265   C     0.44987   0.49761   0.38839   0.00000  Uiso   1.00
C266   C     0.49937   0.42013   0.25080   0.00000  Uiso   1.00
C267   C     0.55012   0.50272   0.11165   0.00000  Uiso   1.00
C268   C     0.39197   0.47104   0.46074   0.00000  Uiso   1.00
C269   C     0.60780   0.52994   0.03954   0.00000  Uiso   1.00
C270   C     0.40512   0.47854   0.41353   0.00000  Uiso   1.00
C271   C     0.59472   0.52210   0.08668   0.00000  Uiso   1.00
C272   C     0.48011   0.51060   0.41070   0.00000  Uiso   1.00
C273   C     0.51992   0.48984   0.08925   0.00000  Uiso   1.00
C274   C     0.47056   0.49950   0.45658   0.00000  Uiso   1.00
C275   C     0.52928   0.50145   0.04356   0.00000  Uiso   1.00
C276   C     0.42476   0.48040   0.48250   0.00000  Uiso   1.00
C277   C     0.44654   0.47914   0.04947   0.00000  Uiso   1.00
C278   C     0.57501   0.52070   0.01775   0.00000  Uiso   1.00
C279   C     0.50587   0.50605   0.47662   0.00000  Uiso   1.00
C280   C     0.49390   0.49513   0.02359   0.00000  Uiso   1.00
C281   C     0.55316   0.52226   0.45083   0.00000  Uiso   1.00
C282   C     0.41303   0.47090   0.02927   0.00000  Uiso   1.00
C283   C     0.58667   0.53043   0.47105   0.00000  Uiso   1.00
C284   C     0.54137   0.64596   0.21837   0.00000  Uiso   1.00
C285   C     0.45863   0.35404   0.28163   0.00000  Uiso   1.00
C286   C     0.54003   0.35563   0.21957   0.00000  Uiso   1.00
H287   H     0.48846   0.47161   0.10919   0.00000  Uiso   1.00
H288   H     0.42935   0.62677   0.30434   0.00000  Uiso   1.00
H289   H     0.64212   0.44874   0.20307   0.00000  Uiso   1.00
H290   H     0.35788   0.55126   0.29691   0.00000  Uiso   1.00
H291   H     0.51176   0.52849   0.39052   0.00000  Uiso   1.00
H292   H     0.61879   0.53202   0.10374   0.00000  Uiso   1.00
H293   H     0.38100   0.46857   0.39655   0.00000  Uiso   1.00
H294   H     0.35691   0.45649   0.47933   0.00000  Uiso   1.00
H295   H     0.64276   0.54469   0.02107   0.00000  Uiso   1.00
H296   H     0.43361   0.47270   0.08602   0.00000  Uiso   1.00
H297   H     0.56604   0.52900   0.41438   0.00000  Uiso   1.00
H298   H     0.57064   0.37323   0.19567   0.00000  Uiso   1.00
N299   N     0.38093   0.50001   0.25001   0.00000  Uiso   1.00
N300   N     0.61907   0.49999   0.24999   0.00000  Uiso   1.00
O301   O     0.46179   0.56108   0.25001   0.00000  Uiso   1.00
O302   O     0.53821   0.43892   0.25000   0.00000  Uiso   1.00
O303   O     0.53823   0.56107   0.25000   0.00000  Uiso   1.00
O304   O     0.46177   0.43893   0.25000   0.00000  Uiso   1.00
O305   O     0.43994   0.50001   0.31613   0.00000  Uiso   1.00
O306   O     0.56006   0.49999   0.18388   0.00000  Uiso   1.00
O307   O     0.51639   0.50000   0.31612   0.00000  Uiso   1.00
O308   O     0.48361   0.50000   0.18388   0.00000  Uiso   1.00
Zn309  Zn    0.44896   0.50001   0.25000   0.00000  Uiso   1.00
Zn310  Zn    0.55104   0.49999   0.25000   0.00000  Uiso   1.00
Br311  Br    0.68518   0.44588   0.06804   0.00000  Uiso   1.00
Br312  Br    0.98120   0.55550   0.43238   0.00000  Uiso   1.00
Br313  Br    0.93058   0.61915   0.17251   0.00000  Uiso   1.00
Br314  Br    0.73610   0.38086   0.32750   0.00000  Uiso   1.00
Br315  Br    0.74311   0.42933   0.18607   0.00000  Uiso   1.00
Br316  Br    0.92361   0.57074   0.31384   0.00000  Uiso   1.00
C317   C     0.83396   0.57987   0.24920   0.00000  Uiso   1.00
C318   C     0.79330   0.64437   0.28043   0.00000  Uiso   1.00
C319   C     0.83227   0.37599   0.25084   0.00000  Uiso   1.00
C320   C     0.83440   0.62401   0.24917   0.00000  Uiso   1.00
C321   C     0.98575   0.47150   0.22393   0.00000  Uiso   1.00
C322   C     0.68092   0.52850   0.27607   0.00000  Uiso   1.00
C323   C     0.70008   0.47131   0.22385   0.00000  Uiso   1.00
C324   C     0.96660   0.52870   0.27613   0.00000  Uiso   1.00
C325   C     0.80267   0.49998   0.33787   0.00000  Uiso   1.00
C326   C     0.86400   0.50005   0.16213   0.00000  Uiso   1.00
C327   C     0.78321   0.49761   0.38839   0.00000  Uiso   1.00
C328   C     0.83271   0.42013   0.25080   0.00000  Uiso   1.00
C329   C     0.88345   0.50272   0.11165   0.00000  Uiso   1.00
C330   C     0.72530   0.47104   0.46074   0.00000  Uiso   1.00
C331   C     0.94113   0.52994   0.03954   0.00000  Uiso   1.00
C332   C     0.73845   0.47854   0.41353   0.00000  Uiso   1.00
C333   C     0.92805   0.52210   0.08668   0.00000  Uiso   1.00
C334   C     0.81344   0.51060   0.41070   0.00000  Uiso   1.00
C335   C     0.85325   0.48984   0.08925   0.00000  Uiso   1.00
C336   C     0.80390   0.49950   0.45658   0.00000  Uiso   1.00
C337   C     0.86261   0.50145   0.04356   0.00000  Uiso   1.00
C338   C     0.75810   0.48040   0.48250   0.00000  Uiso   1.00
C339   C     0.77988   0.47914   0.04947   0.00000  Uiso   1.00
C340   C     0.90834   0.52070   0.01775   0.00000  Uiso   1.00
C341   C     0.83920   0.50605   0.47662   0.00000  Uiso   1.00
C342   C     0.82724   0.49513   0.02359   0.00000  Uiso   1.00
C343   C     0.88649   0.52226   0.45083   0.00000  Uiso   1.00
C344   C     0.74637   0.47090   0.02927   0.00000  Uiso   1.00
C345   C     0.92000   0.53043   0.47105   0.00000  Uiso   1.00
C346   C     0.87470   0.64596   0.21837   0.00000  Uiso   1.00
C347   C     0.79197   0.35404   0.28163   0.00000  Uiso   1.00
C348   C     0.87337   0.35563   0.21957   0.00000  Uiso   1.00
H349   H     0.82179   0.47161   0.10919   0.00000  Uiso   1.00
H350   H     0.76269   0.62677   0.30434   0.00000  Uiso   1.00
H351   H     0.97546   0.44874   0.20307   0.00000  Uiso   1.00
H352   H     0.69122   0.55126   0.29691   0.00000  Uiso   1.00
H353   H     0.84510   0.52849   0.39052   0.00000  Uiso   1.00
H354   H     0.95212   0.53202   0.10374   0.00000  Uiso   1.00
H355   H     0.71433   0.46857   0.39655   0.00000  Uiso   1.00
H356   H     0.69024   0.45649   0.47933   0.00000  Uiso   1.00
H357   H     0.97610   0.54469   0.02107   0.00000  Uiso   1.00
H358   H     0.76694   0.47270   0.08602   0.00000  Uiso   1.00
H359   H     0.89937   0.52900   0.41438   0.00000  Uiso   1.00
H360   H     0.90398   0.37323   0.19567   0.00000  Uiso   1.00
N361   N     0.71426   0.50001   0.25001   0.00000  Uiso   1.00
N362   N     0.95241   0.49999   0.24999   0.00000  Uiso   1.00
O363   O     0.79512   0.56108   0.25001   0.00000  Uiso   1.00
O364   O     0.87154   0.43892   0.25000   0.00000  Uiso   1.00
O365   O     0.87157   0.56107   0.25000   0.00000  Uiso   1.00
O366   O     0.79510   0.43893   0.25000   0.00000  Uiso   1.00
O367   O     0.77328   0.50001   0.31613   0.00000  Uiso   1.00
O368   O     0.89339   0.49999   0.18388   0.00000  Uiso   1.00
O369   O     0.84972   0.50000   0.31612   0.00000  Uiso   1.00
O370   O     0.81695   0.50000   0.18388   0.00000  Uiso   1.00
Zn371  Zn    0.78229   0.50001   0.25000   0.00000  Uiso   1.00
Zn372  Zn    0.88438   0.49999   0.25000   0.00000  Uiso   1.00
Br373  Br    0.01851   0.77921   0.06804   0.00000  Uiso   1.00
Br374  Br    0.31453   0.88883   0.43238   0.00000  Uiso   1.00
Br375  Br    0.26391   0.95248   0.17251   0.00000  Uiso   1.00
Br376  Br    0.06943   0.71419   0.32750   0.00000  Uiso   1.00
Br377  Br    0.07644   0.76266   0.18607   0.00000  Uiso   1.00
Br378  Br    0.25695   0.90408   0.31384   0.00000  Uiso   1.00
C379   C     0.16729   0.91321   0.24920   0.00000  Uiso   1.00
C380   C     0.12663   0.97770   0.28043   0.00000  Uiso   1.00
C381   C     0.16560   0.70932   0.25084   0.00000  Uiso   1.00
C382   C     0.16773   0.95735   0.24917   0.00000  Uiso   1.00
C383   C     0.31908   0.80484   0.22393   0.00000  Uiso   1.00
C384   C     0.01425   0.86183   0.27607   0.00000  Uiso   1.00
C385   C     0.03341   0.80464   0.22385   0.00000  Uiso   1.00
C386   C     0.29993   0.86203   0.27613   0.00000  Uiso   1.00
C387   C     0.13600   0.83332   0.33787   0.00000  Uiso   1.00
C388   C     0.19733   0.83338   0.16213   0.00000  Uiso   1.00
C389   C     0.11654   0.83094   0.38839   0.00000  Uiso   1.00
C390   C     0.16604   0.75346   0.25080   0.00000  Uiso   1.00
C391   C     0.21678   0.83605   0.11165   0.00000  Uiso   1.00
C392   C     0.05863   0.80437   0.46074   0.00000  Uiso   1.00
C393   C     0.27446   0.86328   0.03954   0.00000  Uiso   1.00
C394   C     0.07179   0.81187   0.41353   0.00000  Uiso   1.00
C395   C     0.26139   0.85543   0.08668   0.00000  Uiso   1.00
C396   C     0.14678   0.84394   0.41070   0.00000  Uiso   1.00
C397   C     0.18659   0.82318   0.08925   0.00000  Uiso   1.00
C398   C     0.13723   0.83283   0.45658   0.00000  Uiso   1.00
C399   C     0.19595   0.83478   0.04356   0.00000  Uiso   1.00
C400   C     0.09143   0.81373   0.48250   0.00000  Uiso   1.00
C401   C     0.11321   0.81247   0.04947   0.00000  Uiso   1.00
C402   C     0.24167   0.85403   0.01775   0.00000  Uiso   1.00
C403   C     0.17254   0.83938   0.47662   0.00000  Uiso   1.00
C404   C     0.16057   0.82846   0.02359   0.00000  Uiso   1.00
C405   C     0.21982   0.85559   0.45083   0.00000  Uiso   1.00
C406   C     0.07970   0.80424   0.02927   0.00000  Uiso   1.00
C407   C     0.25333   0.86376   0.47105   0.00000  Uiso   1.00
C408   C     0.20803   0.97929   0.21837   0.00000  Uiso   1.00
C409   C     0.12530   0.68738   0.28163   0.00000  Uiso   1.00
C410   C     0.20670   0.68896   0.21957   0.00000  Uiso   1.00
H411   H     0.15513   0.80494   0.10919   0.00000  Uiso   1.00
H412   H     0.09602   0.96010   0.30434   0.00000  Uiso   1.00
H413   H     0.30879   0.78208   0.20307   0.00000  Uiso   1.00
H414   H     0.02455   0.88460   0.29691   0.00000  Uiso   1.00
H415   H     0.17843   0.86182   0.39052   0.00000  Uiso   1.00
H416   H     0.28545   0.86535   0.10374   0.00000  Uiso   1.00
H417   H     0.04766   0.80190   0.39655   0.00000  Uiso   1.00
H418   H     0.02358   0.78983   0.47933   0.00000  Uiso   1.00
H419   H     0.30943   0.87803   0.02107   0.00000  Uiso   1.00
H420   H     0.10027   0.80603   0.08602   0.00000  Uiso   1.00
H421   H     0.23271   0.86234   0.41438   0.00000  Uiso   1.00
H422   H     0.23731   0.70656   0.19567   0.00000  Uiso   1.00
N423   N     0.04759   0.83334   0.25001   0.00000  Uiso   1.00
N424   N     0.28574   0.83332   0.24999   0.00000  Uiso   1.00
O425   O     0.12846   0.89442   0.25001   0.00000  Uiso   1.00
O426   O     0.20488   0.77225   0.25000   0.00000  Uiso   1.00
O427   O     0.20490   0.89441   0.25000   0.00000  Uiso   1.00
O428   O     0.12843   0.77226   0.25000   0.00000  Uiso   1.00
O429   O     0.10661   0.83334   0.31613   0.00000  Uiso   1.00
O430   O     0.22672   0.83333   0.18388   0.00000  Uiso   1.00
O431   O     0.18305   0.83333   0.31612   0.00000  Uiso   1.00
O432   O     0.15028   0.83334   0.18388   0.00000  Uiso   1.00
Zn433  Zn    0.11562   0.83334   0.25000   0.00000  Uiso   1.00
Zn434  Zn    0.21771   0.83333   0.25000   0.00000  Uiso   1.00
Br435  Br    0.35185   0.77921   0.06804   0.00000  Uiso   1.00
Br436  Br    0.64786   0.88883   0.43238   0.00000  Uiso   1.00
Br437  Br    0.59725   0.95248   0.17251   0.00000  Uiso   1.00
Br438  Br    0.40276   0.71419   0.32750   0.00000  Uiso   1.00
Br439  Br    0.40977   0.76266   0.18607   0.00000  Uiso   1.00
Br440  Br    0.59028   0.90408   0.31384   0.00000  Uiso   1.00
C441   C     0.50063   0.91321   0.24920   0.00000  Uiso   1.00
C442   C     0.45997   0.97770   0.28043   0.00000  Uiso   1.00
C443   C     0.49893   0.70932   0.25084   0.00000  Uiso   1.00
C444   C     0.50107   0.95735   0.24917   0.00000  Uiso   1.00
C445   C     0.65241   0.80484   0.22393   0.00000  Uiso   1.00
C446   C     0.34759   0.86183   0.27607   0.00000  Uiso   1.00
C447   C     0.36675   0.80464   0.22385   0.00000  Uiso   1.00
C448   C     0.63326   0.86203   0.27613   0.00000  Uiso   1.00
C449   C     0.46933   0.83332   0.33787   0.00000  Uiso   1.00
C450   C     0.53067   0.83338   0.16213   0.00000  Uiso   1.00
C451   C     0.44987   0.83094   0.38839   0.00000  Uiso   1.00
C452   C     0.49937   0.75346   0.25080   0.00000  Uiso   1.00
C453   C     0.55012   0.83605   0.11165   0.00000  Uiso   1.00
C454   C     0.39197   0.80437   0.46074   0.00000  Uiso   1.00
C455   C     0.60780   0.86328   0.03954   0.00000  Uiso   1.00
C456   C     0.40512   0.81187   0.41353   0.00000  Uiso   1.00
C457   C     0.59472   0.85543   0.08668   0.00000  Uiso   1.00
C458   C     0.48011   0.84394   0.41070   0.00000  Uiso   1.00
C459   C     0.51992   0.82318   0.08925   0.00000  Uiso   1.00
C460   C     0.47056   0.83283   0.45658   0.00000  Uiso   1.00
C461   C     0.52928   0.83478   0.04356   0.00000  Uiso   1.00
C462   C     0.42476   0.81373   0.48250   0.00000  Uiso   1.00
C463   C     0.44654   0.81247   0.04947   0.00000  Uiso   1.00
C464   C     0.57501   0.85403   0.01775   0.00000  Uiso   1.00
C465   C     0.50587   0.83938   0.47662   0.00000  Uiso   1.00
C466   C     0.49390   0.82846   0.02359   0.00000  Uiso   1.00
C467   C     0.55316   0.85559   0.45083   0.00000  Uiso   1.00
C468   C     0.41303   0.80424   0.02927   0.00000  Uiso   1.00
C469   C     0.58667   0.86376   0.47105   0.00000  Uiso   1.00
C470   C     0.54137   0.97929   0.21837   0.00000  Uiso   1.00
C471   C     0.45863   0.68738   0.28163   0.00000  Uiso   1.00
C472   C     0.54003   0.68896   0.21957   0.00000  Uiso   1.00
H473   H     0.48846   0.80494   0.10919   0.00000  Uiso   1.00
H474   H     0.42935   0.96010   0.30434   0.00000  Uiso   1.00
H475   H     0.64212   0.78208   0.20307   0.00000  Uiso   1.00
H476   H     0.35788   0.88460   0.29691   0.00000  Uiso   1.00
H477   H     0.51176   0.86182   0.39052   0.00000  Uiso   1.00
H478   H     0.61879   0.86535   0.10374   0.00000  Uiso   1.00
H479   H     0.38100   0.80190   0.39655   0.00000  Uiso   1.00
H480   H     0.35691   0.78983   0.47933   0.00000  Uiso   1.00
H481   H     0.64276   0.87803   0.02107   0.00000  Uiso   1.00
H482   H     0.43361   0.80603   0.08602   0.00000  Uiso   1.00
H483   H     0.56604   0.86234   0.41438   0.00000  Uiso   1.00
H484   H     0.57064   0.70656   0.19567   0.00000  Uiso   1.00
N485   N     0.38093   0.83334   0.25001   0.00000  Uiso   1.00
N486   N     0.61907   0.83332   0.24999   0.00000  Uiso   1.00
O487   O     0.46179   0.89442   0.25001   0.00000  Uiso   1.00
O488   O     0.53821   0.77225   0.25000   0.00000  Uiso   1.00
O489   O     0.53823   0.89441   0.25000   0.00000  Uiso   1.00
O490   O     0.46177   0.77226   0.25000   0.00000  Uiso   1.00
O491   O     0.43994   0.83334   0.31613   0.00000  Uiso   1.00
O492   O     0.56006   0.83333   0.18388   0.00000  Uiso   1.00
O493   O     0.51639   0.83333   0.31612   0.00000  Uiso   1.00
O494   O     0.48361   0.83334   0.18388   0.00000  Uiso   1.00
Zn495  Zn    0.44896   0.83334   0.25000   0.00000  Uiso   1.00
Zn496  Zn    0.55104   0.83333   0.25000   0.00000  Uiso   1.00
Br497  Br    0.68518   0.77921   0.06804   0.00000  Uiso   1.00
Br498  Br    0.98120   0.88883   0.43238   0.00000  Uiso   1.00
Br499  Br    0.93058   0.95248   0.17251   0.00000  Uiso   1.00
Br500  Br    0.73610   0.71419   0.32750   0.00000  Uiso   1.00
Br501  Br    0.74311   0.76266   0.18607   0.00000  Uiso   1.00
Br502  Br    0.92361   0.90408   0.31384   0.00000  Uiso   1.00
C503   C     0.83396   0.91321   0.24920   0.00000  Uiso   1.00
C504   C     0.79330   0.97770   0.28043   0.00000  Uiso   1.00
C505   C     0.83227   0.70932   0.25084   0.00000  Uiso   1.00
C506   C     0.83440   0.95735   0.24917   0.00000  Uiso   1.00
C507   C     0.98575   0.80484   0.22393   0.00000  Uiso   1.00
C508   C     0.68092   0.86183   0.27607   0.00000  Uiso   1.00
C509   C     0.70008   0.80464   0.22385   0.00000  Uiso   1.00
C510   C     0.96660   0.86203   0.27613   0.00000  Uiso   1.00
C511   C     0.80267   0.83332   0.33787   0.00000  Uiso   1.00
C512   C     0.86400   0.83338   0.16213   0.00000  Uiso   1.00
C513   C     0.78321   0.83094   0.38839   0.00000  Uiso   1.00
C514   C     0.83271   0.75346   0.25080   0.00000  Uiso   1.00
C515   C     0.88345   0.83605   0.11165   0.00000  Uiso   1.00
C516   C     0.72530   0.80437   0.46074   0.00000  Uiso   1.00
C517   C     0.94113   0.86328   0.03954   0.00000  Uiso   1.00
C518   C     0.73845   0.81187   0.41353   0.00000  Uiso   1.00
C519   C     0.92805   0.85543   0.08668   0.00000  Uiso   1.00
C520   C     0.81344   0.84394   0.41070   0.00000  Uiso   1.00
C521   C     0.85325   0.82318   0.08925   0.00000  Uiso   1.00
C522   C     0.80390   0.83283   0.45658   0.00000  Uiso   1.00
C523   C     0.86261   0.83478   0.04356   0.00000  Uiso   1.00
C524   C     0.75810   0.81373   0.48250   0.00000  Uiso   1.00
C525   C     0.77988   0.81247   0.04947   0.00000  Uiso   1.00
C526   C     0.90834   0.85403   0.01775   0.00000  Uiso   1.00
C527   C     0.83920   0.83938   0.47662   0.00000  Uiso   1.00
C528   C     0.82724   0.82846   0.02359   0.00000  Uiso   1.00
C529   C     0.88649   0.85559   0.45083   0.00000  Uiso   1.00
C530   C     0.74637   0.80424   0.02927   0.00000  Uiso   1.00
C531   C     0.92000   0.86376   0.47105   0.00000  Uiso   1.00
C532   C     0.87470   0.97929   0.21837   0.00000  Uiso   1.00
C533   C     0.79197   0.68738   0.28163   0.00000  Uiso   1.00
C534   C     0.87337   0.68896   0.21957   0.00000  Uiso   1.00
H535   H     0.82179   0.80494   0.10919   0.00000  Uiso   1.00
H536   H     0.76269   0.96010   0.30434   0.00000  Uiso   1.00
H537   H     0.97546   0.78208   0.20307   0.00000  Uiso   1.00
H538   H     0.69122   0.88460   0.29691   0.00000  Uiso   1.00
H539   H     0.84510   0.86182   0.39052   0.00000  Uiso   1.00
H540   H     0.95212   0.86535   0.10374   0.00000  Uiso   1.00
H541   H     0.71433   0.80190   0.39655   0.00000  Uiso   1.00
H542   H     0.69024   0.78983   0.47933   0.00000  Uiso   1.00
H543   H     0.97610   0.87803   0.02107   0.00000  Uiso   1.00
H544   H     0.76694   0.80603   0.08602   0.00000  Uiso   1.00
H545   H     0.89937   0.86234   0.41438   0.00000  Uiso   1.00
H546   H     0.90398   0.70656   0.19567   0.00000  Uiso   1.00
N547   N     0.71426   0.83334   0.25001   0.00000  Uiso   1.00
N548   N     0.95241   0.83332   0.24999   0.00000  Uiso   1.00
O549   O     0.79512   0.89442   0.25001   0.00000  Uiso   1.00
O550   O     0.87154   0.77225   0.25000   0.00000  Uiso   1.00
O551   O     0.87157   0.89441   0.25000   0.00000  Uiso   1.00
O552   O     0.79510   0.77226   0.25000   0.00000  Uiso   1.00
O553   O     0.77328   0.83334   0.31613   0.00000  Uiso   1.00
O554   O     0.89339   0.83333   0.18388   0.00000  Uiso   1.00
O555   O     0.84972   0.83333   0.31612   0.00000  Uiso   1.00
O556   O     0.81695   0.83334   0.18388   0.00000  Uiso   1.00
Zn557  Zn    0.78229   0.83334   0.25000   0.00000  Uiso   1.00
Zn558  Zn    0.88438   0.83333   0.25000   0.00000  Uiso   1.00
Br559  Br    0.01851   0.11255   0.56804   0.00000  Uiso   1.00
Br560  Br    0.31453   0.22216   0.93238   0.00000  Uiso   1.00
Br561  Br    0.26391   0.28582   0.67251   0.00000  Uiso   1.00
Br562  Br    0.06943   0.04752   0.82750   0.00000  Uiso   1.00
Br563  Br    0.07644   0.09599   0.68607   0.00000  Uiso   1.00
Br564  Br    0.25695   0.23741   0.81384   0.00000  Uiso   1.00
C565   C     0.16729   0.24654   0.74920   0.00000  Uiso   1.00
C566   C     0.12663   0.31104   0.78043   0.00000  Uiso   1.00
C567   C     0.16560   0.04265   0.75084   0.00000  Uiso   1.00
C568   C     0.16773   0.29068   0.74917   0.00000  Uiso   1.00
C569   C     0.31908   0.13817   0.72393   0.00000  Uiso   1.00
C570   C     0.01425   0.19517   0.77607   0.00000  Uiso   1.00
C571   C     0.03341   0.13798   0.72385   0.00000  Uiso   1.00
C572   C     0.29993   0.19537   0.77613   0.00000  Uiso   1.00
C573   C     0.13600   0.16665   0.83787   0.00000  Uiso   1.00
C574   C     0.19733   0.16672   0.66213   0.00000  Uiso   1.00
C575   C     0.11654   0.16427   0.88839   0.00000  Uiso   1.00
C576   C     0.16604   0.08679   0.75080   0.00000  Uiso   1.00
C577   C     0.21678   0.16938   0.61165   0.00000  Uiso   1.00
C578   C     0.05863   0.13771   0.96074   0.00000  Uiso   1.00
C579   C     0.27446   0.19661   0.53954   0.00000  Uiso   1.00
C580   C     0.07179   0.14520   0.91353   0.00000  Uiso   1.00
C581   C     0.26139   0.18876   0.58668   0.00000  Uiso   1.00
C582   C     0.14678   0.17727   0.91070   0.00000  Uiso   1.00
C583   C     0.18659   0.15651   0.58925   0.00000  Uiso   1.00
C584   C     0.13723   0.16617   0.95658   0.00000  Uiso   1.00
C585   C     0.19595   0.16812   0.54356   0.00000  Uiso   1.00
C586   C     0.09143   0.14706   0.98250   0.00000  Uiso   1.00
C587   C     0.11321   0.14581   0.54947   0.00000  Uiso   1.00
C588   C     0.24167   0.18737   0.51775   0.00000  Uiso   1.00
C589   C     0.17254   0.17272   0.97662   0.00000  Uiso   1.00
C590   C     0.16057   0.16180   0.52359   0.00000  Uiso   1.00
C591   C     0.21982   0.18892   0.95083   0.00000  Uiso   1.00
C592   C     0.07970   0.13757   0.52927   0.00000  Uiso   1.00
C593   C     0.25333   0.19710   0.97105   0.00000  Uiso   1.00
C594   C     0.20803   0.31263   0.71837   0.00000  Uiso   1.00
C595   C     0.12530   0.02071   0.78163   0.00000  Uiso   1.00
C596   C     0.20670   0.02230   0.71957   0.00000  Uiso   1.00
H597   H     0.15513   0.13828   0.60919   0.00000  Uiso   1.00
H598   H     0.09602   0.29344   0.80434   0.00000  Uiso   1.00
H599   H     0.30879   0.11541   0.70307   0.00000  Uiso   1.00
H600   H     0.02455   0.21793   0.79691   0.00000  Uiso   1.00
H601   H     0.17843   0.19515   0.89052   0.00000  Uiso   1.00
H602   H     0.28545   0.19868   0.60374   0.00000  Uiso   1.00
H603   H     0.04766   0.13524   0.89655   0.00000  Uiso   1.00
H604   H     0.02358   0.12316   0.97933   0.00000  Uiso   1.00
H605   H     0.30943   0.21136   0.52107   0.00000  Uiso   1.00
H606   H     0.10027   0.13936   0.58602   0.00000  Uiso   1.00
H607   H     0.23271   0.19567   0.91438   0.00000  Uiso   1.00
H608   H     0.23731   0.03990   0.69567   0.00000  Uiso   1.00
N609   N     0.04759   0.16668   0.75001   0.00000  Uiso   1.00
N610   N     0.28574   0.16666   0.74999   0.00000  Uiso   1.00
O611   O     0.12846   0.22775   0.75001   0.00000  Uiso   1.00
O612   O     0.20488   0.10558   0.75000   0.00000  Uiso   1.00
O613   O     0.20490   0.22774   0.75000   0.00000  Uiso   1.00
O614   O     0.12843   0.10559   0.75000   0.00000  Uiso   1.00
O615   O     0.10661   0.16667   0.81613   0.00000  Uiso   1.00
O616   O     0.22672   0.16666   0.68388   0.00000  Uiso   1.00
O617   O     0.18305   0.16666   0.81612   0.00000  Uiso   1.00
O618   O     0.15028   0.16667   0.68388   0.00000  Uiso   1.00
Zn619  Zn    0.11562   0.16667   0.75000   0.00000  Uiso   1.00
Zn620  Zn    0.21771   0.16666   0.75000   0.00000  Uiso   1.00
Br621  Br    0.35185   0.11255   0.56804   0.00000  Uiso   1.00
Br622  Br    0.64786   0.22216   0.93238   0.00000  Uiso   1.00
Br623  Br    0.59725   0.28582   0.67251   0.00000  Uiso   1.00
Br624  Br    0.40276   0.04752   0.82750   0.00000  Uiso   1.00
Br625  Br    0.40977   0.09599   0.68607   0.00000  Uiso   1.00
Br626  Br    0.59028   0.23741   0.81384   0.00000  Uiso   1.00
C627   C     0.50063   0.24654   0.74920   0.00000  Uiso   1.00
C628   C     0.45997   0.31104   0.78043   0.00000  Uiso   1.00
C629   C     0.49893   0.04265   0.75084   0.00000  Uiso   1.00
C630   C     0.50107   0.29068   0.74917   0.00000  Uiso   1.00
C631   C     0.65241   0.13817   0.72393   0.00000  Uiso   1.00
C632   C     0.34759   0.19517   0.77607   0.00000  Uiso   1.00
C633   C     0.36675   0.13798   0.72385   0.00000  Uiso   1.00
C634   C     0.63326   0.19537   0.77613   0.00000  Uiso   1.00
C635   C     0.46933   0.16665   0.83787   0.00000  Uiso   1.00
C636   C     0.53067   0.16672   0.66213   0.00000  Uiso   1.00
C637   C     0.44987   0.16427   0.88839   0.00000  Uiso   1.00
C638   C     0.49937   0.08679   0.75080   0.00000  Uiso   1.00
C639   C     0.55012   0.16938   0.61165   0.00000  Uiso   1.00
C640   C     0.39197   0.13771   0.96074   0.00000  Uiso   1.00
C641   C     0.60780   0.19661   0.53954   0.00000  Uiso   1.00
C642   C     0.40512   0.14520   0.91353   0.00000  Uiso   1.00
C643   C     0.59472   0.18876   0.58668   0.00000  Uiso   1.00
C644   C     0.48011   0.17727   0.91070   0.00000  Uiso   1.00
C645   C     0.51992   0.15651   0.58925   0.00000  Uiso   1.00
C646   C     0.47056   0.16617   0.95658   0.00000  Uiso   1.00
C647   C     0.52928   0.16812   0.54356   0.00000  Uiso   1.00
C648   C     0.42476   0.14706   0.98250   0.00000  Uiso   1.00
C649   C     0.44654   0.14581   0.54947   0.00000  Uiso   1.00
C650   C     0.57501   0.18737   0.51775   0.00000  Uiso   1.00
C651   C     0.50587   0.17272   0.97662   0.00000  Uiso   1.00
C652   C     0.49390   0.16180   0.52359   0.00000  Uiso   1.00
C653   C     0.55316   0.18892   0.95083   0.00000  Uiso   1.00
C654   C     0.41303   0.13757   0.52927   0.00000  Uiso   1.00
C655   C     0.58667   0.19710   0.97105   0.00000  Uiso   1.00
C656   C     0.54137   0.31263   0.71837   0.00000  Uiso   1.00
C657   C     0.45863   0.02071   0.78163   0.00000  Uiso   1.00
C658   C     0.54003   0.02230   0.71957   0.00000  Uiso   1.00
H659   H     0.48846   0.13828   0.60919   0.00000  Uiso   1.00
H660   H     0.42935   0.29344   0.80434   0.00000  Uiso   1.00
H661   H     0.64212   0.11541   0.70307   0.00000  Uiso   1.00
H662   H     0.35788   0.21793   0.79691   0.00000  Uiso   1.00
H663   H     0.51176   0.19515   0.89052   0.00000  Uiso   1.00
H664   H     0.61879   0.19868   0.60374   0.00000  Uiso   1.00
H665   H     0.38100   0.13524   0.89655   0.00000  Uiso   1.00
H666   H     0.35691   0.12316   0.97933   0.00000  Uiso   1.00
H667   H     0.64276   0.21136   0.52107   0.00000  Uiso   1.00
H668   H     0.43361   0.13936   0.58602   0.00000  Uiso   1.00
H669   H     0.56604   0.19567   0.91438   0.00000  Uiso   1.00
H670   H     0.57064   0.03990   0.69567   0.00000  Uiso   1.00
N671   N     0.38093   0.16668   0.75001   0.00000  Uiso   1.00
N672   N     0.61907   0.16666   0.74999   0.00000  Uiso   1.00
O673   O     0.46179   0.22775   0.75001   0.00000  Uiso   1.00
O674   O     0.53821   0.10558   0.75000   0.00000  Uiso   1.00
O675   O     0.53823   0.22774   0.75000   0.00000  Uiso   1.00
O676   O     0.46177   0.10559   0.75000   0.00000  Uiso   1.00
O677   O     0.43994   0.16667   0.81613   0.00000  Uiso   1.00
O678   O     0.56006   0.16666   0.68388   0.00000  Uiso   1.00
O679   O     0.51639   0.16666   0.81612   0.00000  Uiso   1.00
O680   O     0.48361   0.16667   0.68388   0.00000  Uiso   1.00
Zn681  Zn    0.44896   0.16667   0.75000   0.00000  Uiso   1.00
Zn682  Zn    0.55104   0.16666   0.75000   0.00000  Uiso   1.00
Br683  Br    0.68518   0.11255   0.56804   0.00000  Uiso   1.00
Br684  Br    0.98120   0.22216   0.93238   0.00000  Uiso   1.00
Br685  Br    0.93058   0.28582   0.67251   0.00000  Uiso   1.00
Br686  Br    0.73610   0.04752   0.82750   0.00000  Uiso   1.00
Br687  Br    0.74311   0.09599   0.68607   0.00000  Uiso   1.00
Br688  Br    0.92361   0.23741   0.81384   0.00000  Uiso   1.00
C689   C     0.83396   0.24654   0.74920   0.00000  Uiso   1.00
C690   C     0.79330   0.31104   0.78043   0.00000  Uiso   1.00
C691   C     0.83227   0.04265   0.75084   0.00000  Uiso   1.00
C692   C     0.83440   0.29068   0.74917   0.00000  Uiso   1.00
C693   C     0.98575   0.13817   0.72393   0.00000  Uiso   1.00
C694   C     0.68092   0.19517   0.77607   0.00000  Uiso   1.00
C695   C     0.70008   0.13798   0.72385   0.00000  Uiso   1.00
C696   C     0.96660   0.19537   0.77613   0.00000  Uiso   1.00
C697   C     0.80267   0.16665   0.83787   0.00000  Uiso   1.00
C698   C     0.86400   0.16672   0.66213   0.00000  Uiso   1.00
C699   C     0.78321   0.16427   0.88839   0.00000  Uiso   1.00
C700   C     0.83271   0.08679   0.75080   0.00000  Uiso   1.00
C701   C     0.88345   0.16938   0.61165   0.00000  Uiso   1.00
C702   C     0.72530   0.13771   0.96074   0.00000  Uiso   1.00
C703   C     0.94113   0.19661   0.53954   0.00000  Uiso   1.00
C704   C     0.73845   0.14520   0.91353   0.00000  Uiso   1.00
C705   C     0.92805   0.18876   0.58668   0.00000  Uiso   1.00
C706   C     0.81344   0.17727   0.91070   0.00000  Uiso   1.00
C707   C     0.85325   0.15651   0.58925   0.00000  Uiso   1.00
C708   C     0.80390   0.16617   0.95658   0.00000  Uiso   1.00
C709   C     0.86261   0.16812   0.54356   0.00000  Uiso   1.00
C710   C     0.75810   0.14706   0.98250   0.00000  Uiso   1.00
C711   C     0.77988   0.14581   0.54947   0.00000  Uiso   1.00
C712   C     0.90834   0.18737   0.51775   0.00000  Uiso   1.00
C713   C     0.83920   0.17272   0.97662   0.00000  Uiso   1.00
C714   C     0.82724   0.16180   0.52359   0.00000  Uiso   1.00
C715   C     0.88649   0.18892   0.95083   0.00000  Uiso   1.00
C716   C     0.74637   0.13757   0.52927   0.00000  Uiso   1.00
C717   C     0.92000   0.19710   0.97105   0.00000  Uiso   1.00
C718   C     0.87470   0.31263   0.71837   0.00000  Uiso   1.00
C719   C     0.79197   0.02071   0.78163   0.00000  Uiso   1.00
C720   C     0.87337   0.02230   0.71957   0.00000  Uiso   1.00
H721   H     0.82179   0.13828   0.60919   0.00000  Uiso   1.00
H722   H     0.76269   0.29344   0.80434   0.00000  Uiso   1.00
H723   H     0.97546   0.11541   0.70307   0.00000  Uiso   1.00
H724   H     0.69122   0.21793   0.79691   0.00000  Uiso   1.00
H725   H     0.84510   0.19515   0.89052   0.00000  Uiso   1.00
H726   H     0.95212   0.19868   0.60374   0.00000  Uiso   1.00
H727   H     0.71433   0.13524   0.89655   0.00000  Uiso   1.00
H728   H     0.69024   0.12316   0.97933   0.00000  Uiso   1.00
H729   H     0.97610   0.21136   0.52107   0.00000  Uiso   1.00
H730   H     0.76694   0.13936   0.58602   0.00000  Uiso   1.00
H731   H     0.89937   0.19567   0.91438   0.00000  Uiso   1.00
H732   H     0.90398   0.03990   0.69567   0.00000  Uiso   1.00
N733   N     0.71426   0.16668   0.75001   0.00000  Uiso   1.00
N734   N     0.95241   0.16666   0.74999   0.00000  Uiso   1.00
O735   O     0.79512   0.22775   0.75001   0.00000  Uiso   1.00
O736   O     0.87154   0.10558   0.75000   0.00000  Uiso   1.00
O737   O     0.87157   0.22774   0.75000   0.00000  Uiso   1.00
O738   O     0.79510   0.10559   0.75000   0.00000  Uiso   1.00
O739   O     0.77328   0.16667   0.81613   0.00000  Uiso   1.00
O740   O     0.89339   0.16666   0.68388   0.00000  Uiso   1.00
O741   O     0.84972   0.16666   0.81612   0.00000  Uiso   1.00
O742   O     0.81695   0.16667   0.68388   0.00000  Uiso   1.00
Zn743  Zn    0.78229   0.16667   0.75000   0.00000  Uiso   1.00
Zn744  Zn    0.88438   0.16666   0.75000   0.00000  Uiso   1.00
Br745  Br    0.01851   0.44588   0.56804   0.00000  Uiso   1.00
Br746  Br    0.31453   0.55550   0.93238   0.00000  Uiso   1.00
Br747  Br    0.26391   0.61915   0.67251   0.00000  Uiso   1.00
Br748  Br    0.06943   0.38086   0.82750   0.00000  Uiso   1.00
Br749  Br    0.07644   0.42933   0.68607   0.00000  Uiso   1.00
Br750  Br    0.25695   0.57074   0.81384   0.00000  Uiso   1.00
C751   C     0.16729   0.57987   0.74920   0.00000  Uiso   1.00
C752   C     0.12663   0.64437   0.78043   0.00000  Uiso   1.00
C753   C     0.16560   0.37599   0.75084   0.00000  Uiso   1.00
C754   C     0.16773   0.62401   0.74917   0.00000  Uiso   1.00
C755   C     0.31908   0.47150   0.72393   0.00000  Uiso   1.00
C756   C     0.01425   0.52850   0.77607   0.00000  Uiso   1.00
C757   C     0.03341   0.47131   0.72385   0.00000  Uiso   1.00
C758   C     0.29993   0.52870   0.77613   0.00000  Uiso   1.00
C759   C     0.13600   0.49998   0.83787   0.00000  Uiso   1.00
C760   C     0.19733   0.50005   0.66213   0.00000  Uiso   1.00
C761   C     0.11654   0.49761   0.88839   0.00000  Uiso   1.00
C762   C     0.16604   0.42013   0.75080   0.00000  Uiso   1.00
C763   C     0.21678   0.50272   0.61165   0.00000  Uiso   1.00
C764   C     0.05863   0.47104   0.96074   0.00000  Uiso   1.00
C765   C     0.27446   0.52994   0.53954   0.00000  Uiso   1.00
C766   C     0.07179   0.47854   0.91353   0.00000  Uiso   1.00
C767   C     0.26139   0.52210   0.58668   0.00000  Uiso   1.00
C768   C     0.14678   0.51060   0.91070   0.00000  Uiso   1.00
C769   C     0.18659   0.48984   0.58925   0.00000  Uiso   1.00
C770   C     0.13723   0.49950   0.95658   0.00000  Uiso   1.00
C771   C     0.19595   0.50145   0.54356   0.00000  Uiso   1.00
C772   C     0.09143   0.48040   0.98250   0.00000  Uiso   1.00
C773   C     0.11321   0.47914   0.54947   0.00000  Uiso   1.00
C774   C     0.24167   0.52070   0.51775   0.00000  Uiso   1.00
C775   C     0.17254   0.50605   0.97662   0.00000  Uiso   1.00
C776   C     0.16057   0.49513   0.52359   0.00000  Uiso   1.00
C777   C     0.21982   0.52226   0.95083   0.00000  Uiso   1.00
C778   C     0.07970   0.47090   0.52927   0.00000  Uiso   1.00
C779   C     0.25333   0.53043   0.97105   0.00000  Uiso   1.00
C780   C     0.20803   0.64596   0.71837   0.00000  Uiso   1.00
C781   C     0.12530   0.35404   0.78163   0.00000  Uiso   1.00
C782   C     0.20670   0.35563   0.71957   0.00000  Uiso   1.00
H783   H     0.15513   0.47161   0.60919   0.00000  Uiso   1.00
H784   H     0.09602   0.62677   0.80434   0.00000  Uiso   1.00
H785   H     0.30879   0.44874   0.70307   0.00000  Uiso   1.00
H786   H     0.02455   0.55126   0.79691   0.00000  Uiso   1.00
H787   H     0.17843   0.52849   0.89052   0.00000  Uiso   1.00
H788   H     0.28545   0.53202   0.60374   0.00000  Uiso   1.00
H789   H     0.04766   0.46857   0.89655   0.00000  Uiso   1.00
H790   H     0.02358   0.45649   0.97933   0.00000  Uiso   1.00
H791   H     0.30943   0.54469   0.52107   0.00000  Uiso   1.00
H792   H     0.10027   0.47270   0.58602   0.00000  Uiso   1.00
H793   H     0.23271   0.52900   0.91438   0.00000  Uiso   1.00
H794   H     0.23731   0.37323   0.69567   0.00000  Uiso   1.00
N795   N     0.04759   0.50001   0.75001   0.00000  Uiso   1.00
N796   N     0.28574   0.49999   0.74999   0.00000  Uiso   1.00
O797   O     0.12846   0.56108   0.75001   0.00000  Uiso   1.00
O798   O     0.20488   0.43892   0.75000   0.00000  Uiso   1.00
O799   O     0.20490   0.56107   0.75000   0.00000  Uiso   1.00
O800   O     0.12843   0.43893   0.75000   0.00000  Uiso   1.00
O801   O     0.10661   0.50001   0.81613   0.00000  Uiso   1.00
O802   O     0.22672   0.49999   0.68388   0.00000  Uiso   1.00
O803   O     0.18305   0.50000   0.81612   0.00000  Uiso   1.00
O804   O     0.15028   0.50000   0.68388   0.00000  Uiso   1.00
Zn805  Zn    0.11562   0.50001   0.75000   0.00000  Uiso   1.00
Zn806  Zn    0.21771   0.49999   0.75000   0.00000  Uiso   1.00
Br807  Br    0.35185   0.44588   0.56804   0.00000  Uiso   1.00
Br808  Br    0.64786   0.55550   0.93238   0.00000  Uiso   1.00
Br809  Br    0.59725   0.61915   0.67251   0.00000  Uiso   1.00
Br810  Br    0.40276   0.38086   0.82750   0.00000  Uiso   1.00
Br811  Br    0.40977   0.42933   0.68607   0.00000  Uiso   1.00
Br812  Br    0.59028   0.57074   0.81384   0.00000  Uiso   1.00
C813   C     0.50063   0.57987   0.74920   0.00000  Uiso   1.00
C814   C     0.45997   0.64437   0.78043   0.00000  Uiso   1.00
C815   C     0.49893   0.37599   0.75084   0.00000  Uiso   1.00
C816   C     0.50107   0.62401   0.74917   0.00000  Uiso   1.00
C817   C     0.65241   0.47150   0.72393   0.00000  Uiso   1.00
C818   C     0.34759   0.52850   0.77607   0.00000  Uiso   1.00
C819   C     0.36675   0.47131   0.72385   0.00000  Uiso   1.00
C820   C     0.63326   0.52870   0.77613   0.00000  Uiso   1.00
C821   C     0.46933   0.49998   0.83787   0.00000  Uiso   1.00
C822   C     0.53067   0.50005   0.66213   0.00000  Uiso   1.00
C823   C     0.44987   0.49761   0.88839   0.00000  Uiso   1.00
C824   C     0.49937   0.42013   0.75080   0.00000  Uiso   1.00
C825   C     0.55012   0.50272   0.61165   0.00000  Uiso   1.00
C826   C     0.39197   0.47104   0.96074   0.00000  Uiso   1.00
C827   C     0.60780   0.52994   0.53954   0.00000  Uiso   1.00
C828   C     0.40512   0.47854   0.91353   0.00000  Uiso   1.00
C829   C     0.59472   0.52210   0.58668   0.00000  Uiso   1.00
C830   C     0.48011   0.51060   0.91070   0.00000  Uiso   1.00
C831   C     0.51992   0.48984   0.58925   0.00000  Uiso   1.00
C832   C     0.47056   0.49950   0.95658   0.00000  Uiso   1.00
C833   C     0.52928   0.50145   0.54356   0.00000  Uiso   1.00
C834   C     0.42476   0.48040   0.98250   0.00000  Uiso   1.00
C835   C     0.44654   0.47914   0.54947   0.00000  Uiso   1.00
C836   C     0.57501   0.52070   0.51775   0.00000  Uiso   1.00
C837   C     0.50587   0.50605   0.97662   0.00000  Uiso   1.00
C838   C     0.49390   0.49513   0.52359   0.00000  Uiso   1.00
C839   C     0.55316   0.52226   0.95083   0.00000  Uiso   1.00
C840   C     0.41303   0.47090   0.52927   0.00000  Uiso   1.00
C841   C     0.58667   0.53043   0.97105   0.00000  Uiso   1.00
C842   C     0.54137   0.64596   0.71837   0.00000  Uiso   1.00
C843   C     0.45863   0.35404   0.78163   0.00000  Uiso   1.00
C844   C     0.54003   0.35563   0.71957   0.00000  Uiso   1.00
H845   H     0.48846   0.47161   0.60919   0.00000  Uiso   1.00
H846   H     0.42935   0.62677   0.80434   0.00000  Uiso   1.00
H847   H     0.64212   0.44874   0.70307   0.00000  Uiso   1.00
H848   H     0.35788   0.55126   0.79691   0.00000  Uiso   1.00
H849   H     0.51176   0.52849   0.89052   0.00000  Uiso   1.00
H850   H     0.61879   0.53202   0.60374   0.00000  Uiso   1.00
H851   H     0.38100   0.46857   0.89655   0.00000  Uiso   1.00
H852   H     0.35691   0.45649   0.97933   0.00000  Uiso   1.00
H853   H     0.64276   0.54469   0.52107   0.00000  Uiso   1.00
H854   H     0.43361   0.47270   0.58602   0.00000  Uiso   1.00
H855   H     0.56604   0.52900   0.91438   0.00000  Uiso   1.00
H856   H     0.57064   0.37323   0.69567   0.00000  Uiso   1.00
N857   N     0.38093   0.50001   0.75001   0.00000  Uiso   1.00
N858   N     0.61907   0.49999   0.74999   0.00000  Uiso   1.00
O859   O     0.46179   0.56108   0.75001   0.00000  Uiso   1.00
O860   O     0.53821   0.43892   0.75000   0.00000  Uiso   1.00
O861   O     0.53823   0.56107   0.75000   0.00000  Uiso   1.00
O862   O     0.46177   0.43893   0.75000   0.00000  Uiso   1.00
O863   O     0.43994   0.50001   0.81613   0.00000  Uiso   1.00
O864   O     0.56006   0.49999   0.68388   0.00000  Uiso   1.00
O865   O     0.51639   0.50000   0.81612   0.00000  Uiso   1.00
O866   O     0.48361   0.50000   0.68388   0.00000  Uiso   1.00
Zn867  Zn    0.44896   0.50001   0.75000   0.00000  Uiso   1.00
Zn868  Zn    0.55104   0.49999   0.75000   0.00000  Uiso   1.00
Br869  Br    0.68518   0.44588   0.56804   0.00000  Uiso   1.00
Br870  Br    0.98120   0.55550   0.93238   0.00000  Uiso   1.00
Br871  Br    0.93058   0.61915   0.67251   0.00000  Uiso   1.00
Br872  Br    0.73610   0.38086   0.82750   0.00000  Uiso   1.00
Br873  Br    0.74311   0.42933   0.68607   0.00000  Uiso   1.00
Br874  Br    0.92361   0.57074   0.81384   0.00000  Uiso   1.00
C875   C     0.83396   0.57987   0.74920   0.00000  Uiso   1.00
C876   C     0.79330   0.64437   0.78043   0.00000  Uiso   1.00
C877   C     0.83227   0.37599   0.75084   0.00000  Uiso   1.00
C878   C     0.83440   0.62401   0.74917   0.00000  Uiso   1.00
C879   C     0.98575   0.47150   0.72393   0.00000  Uiso   1.00
C880   C     0.68092   0.52850   0.77607   0.00000  Uiso   1.00
C881   C     0.70008   0.47131   0.72385   0.00000  Uiso   1.00
C882   C     0.96660   0.52870   0.77613   0.00000  Uiso   1.00
C883   C     0.80267   0.49998   0.83787   0.00000  Uiso   1.00
C884   C     0.86400   0.50005   0.66213   0.00000  Uiso   1.00
C885   C     0.78321   0.49761   0.88839   0.00000  Uiso   1.00
C886   C     0.83271   0.42013   0.75080   0.00000  Uiso   1.00
C887   C     0.88345   0.50272   0.61165   0.00000  Uiso   1.00
C888   C     0.72530   0.47104   0.96074   0.00000  Uiso   1.00
C889   C     0.94113   0.52994   0.53954   0.00000  Uiso   1.00
C890   C     0.73845   0.47854   0.91353   0.00000  Uiso   1.00
C891   C     0.92805   0.52210   0.58668   0.00000  Uiso   1.00
C892   C     0.81344   0.51060   0.91070   0.00000  Uiso   1.00
C893   C     0.85325   0.48984   0.58925   0.00000  Uiso   1.00
C894   C     0.80390   0.49950   0.95658   0.00000  Uiso   1.00
C895   C     0.86261   0.50145   0.54356   0.00000  Uiso   1.00
C896   C     0.75810   0.48040   0.98250   0.00000  Uiso   1.00
C897   C     0.77988   0.47914   0.54947   0.00000  Uiso   1.00
C898   C     0.90834   0.52070   0.51775   0.00000  Uiso   1.00
C899   C     0.83920   0.50605   0.97662   0.00000  Uiso   1.00
C900   C     0.82724   0.49513   0.52359   0.00000  Uiso   1.00
C901   C     0.88649   0.52226   0.95083   0.00000  Uiso   1.00
C902   C     0.74637   0.47090   0.52927   0.00000  Uiso   1.00
C903   C     0.92000   0.53043   0.97105   0.00000  Uiso   1.00
C904   C     0.87470   0.64596   0.71837   0.00000  Uiso   1.00
C905   C     0.79197   0.35404   0.78163   0.00000  Uiso   1.00
C906   C     0.87337   0.35563   0.71957   0.00000  Uiso   1.00
H907   H     0.82179   0.47161   0.60919   0.00000  Uiso   1.00
H908   H     0.76269   0.62677   0.80434   0.00000  Uiso   1.00
H909   H     0.97546   0.44874   0.70307   0.00000  Uiso   1.00
H910   H     0.69122   0.55126   0.79691   0.00000  Uiso   1.00
H911   H     0.84510   0.52849   0.89052   0.00000  Uiso   1.00
H912   H     0.95212   0.53202   0.60374   0.00000  Uiso   1.00
H913   H     0.71433   0.46857   0.89655   0.00000  Uiso   1.00
H914   H     0.69024   0.45649   0.97933   0.00000  Uiso   1.00
H915   H     0.97610   0.54469   0.52107   0.00000  Uiso   1.00
H916   H     0.76694   0.47270   0.58602   0.00000  Uiso   1.00
H917   H     0.89937   0.52900   0.91438   0.00000  Uiso   1.00
H918   H     0.90398   0.37323   0.69567   0.00000  Uiso   1.00
N919   N     0.71426   0.50001   0.75001   0.00000  Uiso   1.00
N920   N     0.95241   0.49999   0.74999   0.00000  Uiso   1.00
O921   O     0.79512   0.56108   0.75001   0.00000  Uiso   1.00
O922   O     0.87154   0.43892   0.75000   0.00000  Uiso   1.00
O923   O     0.87157   0.56107   0.75000   0.00000  Uiso   1.00
O924   O     0.79510   0.43893   0.75000   0.00000  Uiso   1.00
O925   O     0.77328   0.50001   0.81613   0.00000  Uiso   1.00
O926   O     0.89339   0.49999   0.68388   0.00000  Uiso   1.00
O927   O     0.84972   0.50000   0.81612   0.00000  Uiso   1.00
O928   O     0.81695   0.50000   0.68388   0.00000  Uiso   1.00
Zn929  Zn    0.78229   0.50001   0.75000   0.00000  Uiso   1.00
Zn930  Zn    0.88438   0.49999   0.75000   0.00000  Uiso   1.00
Br931  Br    0.01851   0.77921   0.56804   0.00000  Uiso   1.00
Br932  Br    0.31453   0.88883   0.93238   0.00000  Uiso   1.00
Br933  Br    0.26391   0.95248   0.67251   0.00000  Uiso   1.00
Br934  Br    0.06943   0.71419   0.82750   0.00000  Uiso   1.00
Br935  Br    0.07644   0.76266   0.68607   0.00000  Uiso   1.00
Br936  Br    0.25695   0.90408   0.81384   0.00000  Uiso   1.00
C937   C     0.16729   0.91321   0.74920   0.00000  Uiso   1.00
C938   C     0.12663   0.97770   0.78043   0.00000  Uiso   1.00
C939   C     0.16560   0.70932   0.75084   0.00000  Uiso   1.00
C940   C     0.16773   0.95735   0.74917   0.00000  Uiso   1.00
C941   C     0.31908   0.80484   0.72393   0.00000  Uiso   1.00
C942   C     0.01425   0.86183   0.77607   0.00000  Uiso   1.00
C943   C     0.03341   0.80464   0.72385   0.00000  Uiso   1.00
C944   C     0.29993   0.86203   0.77613   0.00000  Uiso   1.00
C945   C     0.13600   0.83332   0.83787   0.00000  Uiso   1.00
C946   C     0.19733   0.83338   0.66213   0.00000  Uiso   1.00
C947   C     0.11654   0.83094   0.88839   0.00000  Uiso   1.00
C948   C     0.16604   0.75346   0.75080   0.00000  Uiso   1.00
C949   C     0.21678   0.83605   0.61165   0.00000  Uiso   1.00
C950   C     0.05863   0.80437   0.96074   0.00000  Uiso   1.00
C951   C     0.27446   0.86328   0.53954   0.00000  Uiso   1.00
C952   C     0.07179   0.81187   0.91353   0.00000  Uiso   1.00
C953   C     0.26139   0.85543   0.58668   0.00000  Uiso   1.00
C954   C     0.14678   0.84394   0.91070   0.00000  Uiso   1.00
C955   C     0.18659   0.82318   0.58925   0.00000  Uiso   1.00
C956   C     0.13723   0.83283   0.95658   0.00000  Uiso   1.00
C957   C     0.19595   0.83478   0.54356   0.00000  Uiso   1.00
C958   C     0.09143   0.81373   0.98250   0.00000  Uiso   1.00
C959   C     0.11321   0.81247   0.54947   0.00000  Uiso   1.00
C960   C     0.24167   0.85403   0.51775   0.00000  Uiso   1.00
C961   C     0.17254   0.83938   0.97662   0.00000  Uiso   1.00
C962   C     0.16057   0.82846   0.52359   0.00000  Uiso   1.00
C963   C     0.21982   0.85559   0.95083   0.00000  Uiso   1.00
C964   C     0.07970   0.80424   0.52927   0.00000  Uiso   1.00
C965   C     0.25333   0.86376   0.97105   0.00000  Uiso   1.00
C966   C     0.20803   0.97929   0.71837   0.00000  Uiso   1.00
C967   C     0.12530   0.68738   0.78163   0.00000  Uiso   1.00
C968   C     0.20670   0.68896   0.71957   0.00000  Uiso   1.00
H969   H     0.15513   0.80494   0.60919   0.00000  Uiso   1.00
H970   H     0.09602   0.96010   0.80434   0.00000  Uiso   1.00
H971   H     0.30879   0.78208   0.70307   0.00000  Uiso   1.00
H972   H     0.02455   0.88460   0.79691   0.00000  Uiso   1.00
H973   H     0.17843   0.86182   0.89052   0.00000  Uiso   1.00
H974   H     0.28545   0.86535   0.60374   0.00000  Uiso   1.00
H975   H     0.04766   0.80190   0.89655   0.00000  Uiso   1.00
H976   H     0.02358   0.78983   0.97933   0.00000  Uiso   1.00
H977   H     0.30943   0.87803   0.52107   0.00000  Uiso   1.00
H978   H     0.10027   0.80603   0.58602   0.00000  Uiso   1.00
H979   H     0.23271   0.86234   0.91438   0.00000  Uiso   1.00
H980   H     0.23731   0.70656   0.69567   0.00000  Uiso   1.00
N981   N     0.04759   0.83334   0.75001   0.00000  Uiso   1.00
N982   N     0.28574   0.83332   0.74999   0.00000  Uiso   1.00
O983   O     0.12846   0.89442   0.75001   0.00000  Uiso   1.00
O984   O     0.20488   0.77225   0.75000   0.00000  Uiso   1.00
O985   O     0.20490   0.89441   0.75000   0.00000  Uiso   1.00
O986   O     0.12843   0.77226   0.75000   0.00000  Uiso   1.00
O987   O     0.10661   0.83334   0.81613   0.00000  Uiso   1.00
O988   O     0.22672   0.83333   0.68388   0.00000  Uiso   1.00
O989   O     0.18305   0.83333   0.81612   0.00000  Uiso   1.00
O990   O     0.15028   0.83334   0.68388   0.00000  Uiso   1.00
Zn991  Zn    0.11562   0.83334   0.75000   0.00000  Uiso   1.00
Zn992  Zn    0.21771   0.83333   0.75000   0.00000  Uiso   1.00
Br993  Br    0.35185   0.77921   0.56804   0.00000  Uiso   1.00
Br994  Br    0.64786   0.88883   0.93238   0.00000  Uiso   1.00
Br995  Br    0.59725   0.95248   0.67251   0.00000  Uiso   1.00
Br996  Br    0.40276   0.71419   0.82750   0.00000  Uiso   1.00
Br997  Br    0.40977   0.76266   0.68607   0.00000  Uiso   1.00
Br998  Br    0.59028   0.90408   0.81384   0.00000  Uiso   1.00
C999   C     0.50063   0.91321   0.74920   0.00000  Uiso   1.00
C1000  C     0.45997   0.97770   0.78043   0.00000  Uiso   1.00
C1001  C     0.49893   0.70932   0.75084   0.00000  Uiso   1.00
C1002  C     0.50107   0.95735   0.74917   0.00000  Uiso   1.00
C1003  C     0.65241   0.80484   0.72393   0.00000  Uiso   1.00
C1004  C     0.34759   0.86183   0.77607   0.00000  Uiso   1.00
C1005  C     0.36675   0.80464   0.72385   0.00000  Uiso   1.00
C1006  C     0.63326   0.86203   0.77613   0.00000  Uiso   1.00
C1007  C     0.46933   0.83332   0.83787   0.00000  Uiso   1.00
C1008  C     0.53067   0.83338   0.66213   0.00000  Uiso   1.00
C1009  C     0.44987   0.83094   0.88839   0.00000  Uiso   1.00
C1010  C     0.49937   0.75346   0.75080   0.00000  Uiso   1.00
C1011  C     0.55012   0.83605   0.61165   0.00000  Uiso   1.00
C1012  C     0.39197   0.80437   0.96074   0.00000  Uiso   1.00
C1013  C     0.60780   0.86328   0.53954   0.00000  Uiso   1.00
C1014  C     0.40512   0.81187   0.91353   0.00000  Uiso   1.00
C1015  C     0.59472   0.85543   0.58668   0.00000  Uiso   1.00
C1016  C     0.48011   0.84394   0.91070   0.00000  Uiso   1.00
C1017  C     0.51992   0.82318   0.58925   0.00000  Uiso   1.00
C1018  C     0.47056   0.83283   0.95658   0.00000  Uiso   1.00
C1019  C     0.52928   0.83478   0.54356   0.00000  Uiso   1.00
C1020  C     0.42476   0.81373   0.98250   0.00000  Uiso   1.00
C1021  C     0.44654   0.81247   0.54947   0.00000  Uiso   1.00
C1022  C     0.57501   0.85403   0.51775   0.00000  Uiso   1.00
C1023  C     0.50587   0.83938   0.97662   0.00000  Uiso   1.00
C1024  C     0.49390   0.82846   0.52359   0.00000  Uiso   1.00
C1025  C     0.55316   0.85559   0.95083   0.00000  Uiso   1.00
C1026  C     0.41303   0.80424   0.52927   0.00000  Uiso   1.00
C1027  C     0.58667   0.86376   0.97105   0.00000  Uiso   1.00
C1028  C     0.54137   0.97929   0.71837   0.00000  Uiso   1.00
C1029  C     0.45863   0.68738   0.78163   0.00000  Uiso   1.00
C1030  C     0.54003   0.68896   0.71957   0.00000  Uiso   1.00
H1031  H     0.48846   0.80494   0.60919   0.00000  Uiso   1.00
H1032  H     0.42935   0.96010   0.80434   0.00000  Uiso   1.00
H1033  H     0.64212   0.78208   0.70307   0.00000  Uiso   1.00
H1034  H     0.35788   0.88460   0.79691   0.00000  Uiso   1.00
H1035  H     0.51176   0.86182   0.89052   0.00000  Uiso   1.00
H1036  H     0.61879   0.86535   0.60374   0.00000  Uiso   1.00
H1037  H     0.38100   0.80190   0.89655   0.00000  Uiso   1.00
H1038  H     0.35691   0.78983   0.97933   0.00000  Uiso   1.00
H1039  H     0.64276   0.87803   0.52107   0.00000  Uiso   1.00
H1040  H     0.43361   0.80603   0.58602   0.00000  Uiso   1.00
H1041  H     0.56604   0.86234   0.91438   0.00000  Uiso   1.00
H1042  H     0.57064   0.70656   0.69567   0.00000  Uiso   1.00
N1043  N     0.38093   0.83334   0.75001   0.00000  Uiso   1.00
N1044  N     0.61907   0.83332   0.74999   0.00000  Uiso   1.00
O1045  O     0.46179   0.89442   0.75001   0.00000  Uiso   1.00
O1046  O     0.53821   0.77225   0.75000   0.00000  Uiso   1.00
O1047  O     0.53823   0.89441   0.75000   0.00000  Uiso   1.00
O1048  O     0.46177   0.77226   0.75000   0.00000  Uiso   1.00
O1049  O     0.43994   0.83334   0.81613   0.00000  Uiso   1.00
O1050  O     0.56006   0.83333   0.68388   0.00000  Uiso   1.00
O1051  O     0.51639   0.83333   0.81612   0.00000  Uiso   1.00
O1052  O     0.48361   0.83334   0.68388   0.00000  Uiso   1.00
Zn1053 Zn    0.44896   0.83334   0.75000   0.00000  Uiso   1.00
Zn1054 Zn    0.55104   0.83333   0.75000   0.00000  Uiso   1.00
Br1055 Br    0.68518   0.77921   0.56804   0.00000  Uiso   1.00
Br1056 Br    0.98120   0.88883   0.93238   0.00000  Uiso   1.00
Br1057 Br    0.93058   0.95248   0.67251   0.00000  Uiso   1.00
Br1058 Br    0.73610   0.71419   0.82750   0.00000  Uiso   1.00
Br1059 Br    0.74311   0.76266   0.68607   0.00000  Uiso   1.00
Br1060 Br    0.92361   0.90408   0.81384   0.00000  Uiso   1.00
C1061  C     0.83396   0.91321   0.74920   0.00000  Uiso   1.00
C1062  C     0.79330   0.97770   0.78043   0.00000  Uiso   1.00
C1063  C     0.83227   0.70932   0.75084   0.00000  Uiso   1.00
C1064  C     0.83440   0.95735   0.74917   0.00000  Uiso   1.00
C1065  C     0.98575   0.80484   0.72393   0.00000  Uiso   1.00
C1066  C     0.68092   0.86183   0.77607   0.00000  Uiso   1.00
C1067  C     0.70008   0.80464   0.72385   0.00000  Uiso   1.00
C1068  C     0.96660   0.86203   0.77613   0.00000  Uiso   1.00
C1069  C     0.80267   0.83332   0.83787   0.00000  Uiso   1.00
C1070  C     0.86400   0.83338   0.66213   0.00000  Uiso   1.00
C1071  C     0.78321   0.83094   0.88839   0.00000  Uiso   1.00
C1072  C     0.83271   0.75346   0.75080   0.00000  Uiso   1.00
C1073  C     0.88345   0.83605   0.61165   0.00000  Uiso   1.00
C1074  C     0.72530   0.80437   0.96074   0.00000  Uiso   1.00
C1075  C     0.94113   0.86328   0.53954   0.00000  Uiso   1.00
C1076  C     0.73845   0.81187   0.91353   0.00000  Uiso   1.00
C1077  C     0.92805   0.85543   0.58668   0.00000  Uiso   1.00
C1078  C     0.81344   0.84394   0.91070   0.00000  Uiso   1.00
C1079  C     0.85325   0.82318   0.58925   0.00000  Uiso   1.00
C1080  C     0.80390   0.83283   0.95658   0.00000  Uiso   1.00
C1081  C     0.86261   0.83478   0.54356   0.00000  Uiso   1.00
C1082  C     0.75810   0.81373   0.98250   0.00000  Uiso   1.00
C1083  C     0.77988   0.81247   0.54947   0.00000  Uiso   1.00
C1084  C     0.90834   0.85403   0.51775   0.00000  Uiso   1.00
C1085  C     0.83920   0.83938   0.97662   0.00000  Uiso   1.00
C1086  C     0.82724   0.82846   0.52359   0.00000  Uiso   1.00
C1087  C     0.88649   0.85559   0.95083   0.00000  Uiso   1.00
C1088  C     0.74637   0.80424   0.52927   0.00000  Uiso   1.00
C1089  C     0.92000   0.86376   0.97105   0.00000  Uiso   1.00
C1090  C     0.87470   0.97929   0.71837   0.00000  Uiso   1.00
C1091  C     0.79197   0.68738   0.78163   0.00000  Uiso   1.00
C1092  C     0.87337   0.68896   0.71957   0.00000  Uiso   1.00
H1093  H     0.82179   0.80494   0.60919   0.00000  Uiso   1.00
H1094  H     0.76269   0.96010   0.80434   0.00000  Uiso   1.00
H1095  H     0.97546   0.78208   0.70307   0.00000  Uiso   1.00
H1096  H     0.69122   0.88460   0.79691   0.00000  Uiso   1.00
H1097  H     0.84510   0.86182   0.89052   0.00000  Uiso   1.00
H1098  H     0.95212   0.86535   0.60374   0.00000  Uiso   1.00
H1099  H     0.71433   0.80190   0.89655   0.00000  Uiso   1.00
H1100  H     0.69024   0.78983   0.97933   0.00000  Uiso   1.00
H1101  H     0.97610   0.87803   0.52107   0.00000  Uiso   1.00
H1102  H     0.76694   0.80603   0.58602   0.00000  Uiso   1.00
H1103  H     0.89937   0.86234   0.91438   0.00000  Uiso   1.00
H1104  H     0.90398   0.70656   0.69567   0.00000  Uiso   1.00
N1105  N     0.71426   0.83334   0.75001   0.00000  Uiso   1.00
N1106  N     0.95241   0.83332   0.74999   0.00000  Uiso   1.00
O1107  O     0.79512   0.89442   0.75001   0.00000  Uiso   1.00
O1108  O     0.87154   0.77225   0.75000   0.00000  Uiso   1.00
O1109  O     0.87157   0.89441   0.75000   0.00000  Uiso   1.00
O1110  O     0.79510   0.77226   0.75000   0.00000  Uiso   1.00
O1111  O     0.77328   0.83334   0.81613   0.00000  Uiso   1.00
O1112  O     0.89339   0.83333   0.68388   0.00000  Uiso   1.00
O1113  O     0.84972   0.83333   0.81612   0.00000  Uiso   1.00
O1114  O     0.81695   0.83334   0.68388   0.00000  Uiso   1.00
Zn1115 Zn    0.78229   0.83334   0.75000   0.00000  Uiso   1.00
Zn1116 Zn    0.88438   0.83333   0.75000   0.00000  Uiso   1.00
loop_
_geom_bond_atom_site_label_1
_geom_bond_atom_site_label_2
_geom_bond_distance
_geom_bond_site_symmetry_2
_ccdc_geom_bond_type
Br1    C34     1.925   .     S
Br2    C35     1.925   .     S
Br3    C36     1.924   .     S
Br4    C37     1.924   .     S
Br5    C13     1.910   .     S
Br6    C14     1.910   .     S
C7     C10     1.409   .     S
C7     O55     1.285   .     A
C7     O53     1.285   .     A
C8     C10     1.396   .     A
C8     H40     1.085   .     S
C8     C223    1.373   .     S
C9     C37     1.401   .     A
C9     C38     1.395   .     A
C9     C18     1.409   .     S
C10    C36     1.401   .     A
C11    H41     1.082   .     S
C11    N52     1.359   .     A
C11    C75     1.416   .     S
C12    H42     1.082   .     S
C12    N51     1.359   .     A
C12    C138    1.416   1_455 S
C13    N51     1.380   .     A
C13    C135    1.416   1_455 S
C14    N52     1.380   .     A
C14    C74     1.416   .     S
C15    O57     1.295   .     A
C15    O59     1.299   .     A
C15    C17     1.455   .     S
C16    O58     1.295   .     A
C16    C19     1.454   .     S
C16    O60     1.299   .     A
C17    C22     1.395   .     A
C17    C24     1.386   .     A
C18    O56     1.285   .     A
C18    O54     1.285   .     A
C19    C23     1.395   .     A
C19    C25     1.386   .     A
C20    C28     1.411   .     A
C20    C22     1.392   .     A
C20    H46     1.081   .     S
C21    C30     1.411   .     A
C21    C23     1.392   .     A
C21    H47     1.081   .     S
C22    H45     1.083   .     S
C23    H44     1.083   .     S
C24    H43     1.072   .     S
C24    C26     1.396   .     A
C25    H39     1.072   .     S
C25    C27     1.396   .     A
C26    C31     1.424   .     A
C26    C28     1.423   .     A
C27    C30     1.423   .     A
C27    C32     1.423   .     A
C28    C592    1.398   .     S
C29    C32     1.419   .     A
C29    H48     1.074   .     S
C29    C34     1.387   .     A
C30    C593    1.398   1_554 S
C31    C33     1.419   .     A
C31    C590    1.414   .     S
C32    C589    1.414   1_554 S
C33    C35     1.387   .     A
C33    H49     1.074   .     S
C34    C586    1.398   1_554 S
C35    C588    1.398   .     S
C36    C224    1.373   .     S
C37    C380    1.373   1_545 S
C38    H50     1.085   .     S
C38    C408    1.373   1_545 S
N51    Zn61    2.022   .     S
N52    Zn62    2.022   .     S
O53    Zn61    1.981   .     S
O54    Zn62    1.981   .     S
O55    Zn62    1.992   .     S
O56    Zn61    1.992   .     S
O57    Zn61    1.971   .     S
O58    Zn62    1.971   .     S
O59    Zn62    1.915   .     S
O60    Zn61    1.915   .     S
Br63   C96     1.925   .     S
Br64   C97     1.925   .     S
Br65   C98     1.924   .     S
Br66   C99     1.924   .     S
Br67   C75     1.910   .     S
Br68   C76     1.910   .     S
C69    C72     1.409   .     S
C69    O117    1.285   .     A
C69    O115    1.285   .     A
C70    C72     1.396   .     A
C70    H102    1.085   .     S
C70    C285    1.373   .     S
C71    C99     1.401   .     A
C71    C100    1.395   .     A
C71    C80     1.409   .     S
C72    C98     1.401   .     A
C73    H103    1.082   .     S
C73    N114    1.359   .     A
C73    C137    1.416   .     S
C74    H104    1.082   .     S
C74    N113    1.359   .     A
C75    N113    1.380   .     A
C76    N114    1.380   .     A
C76    C136    1.416   .     S
C77    O119    1.295   .     A
C77    O121    1.299   .     A
C77    C79     1.455   .     S
C78    O120    1.295   .     A
C78    C81     1.454   .     S
C78    O122    1.299   .     A
C79    C84     1.395   .     A
C79    C86     1.386   .     A
C80    O118    1.285   .     A
C80    O116    1.285   .     A
C81    C85     1.395   .     A
C81    C87     1.386   .     A
C82    C90     1.411   .     A
C82    C84     1.392   .     A
C82    H108    1.081   .     S
C83    C92     1.411   .     A
C83    C85     1.392   .     A
C83    H109    1.081   .     S
C84    H107    1.083   .     S
C85    H106    1.083   .     S
C86    H105    1.072   .     S
C86    C88     1.396   .     A
C87    H101    1.072   .     S
C87    C89     1.396   .     A
C88    C93     1.424   .     A
C88    C90     1.423   .     A
C89    C92     1.423   .     A
C89    C94     1.423   .     A
C90    C654    1.398   .     S
C91    C94     1.419   .     A
C91    H110    1.074   .     S
C91    C96     1.387   .     A
C92    C655    1.398   1_554 S
C93    C95     1.419   .     A
C93    C652    1.414   .     S
C94    C651    1.414   1_554 S
C95    C97     1.387   .     A
C95    H111    1.074   .     S
C96    C648    1.398   1_554 S
C97    C650    1.398   .     S
C98    C286    1.373   .     S
C99    C442    1.373   1_545 S
C100   H112    1.085   .     S
C100   C470    1.373   1_545 S
N113   Zn123   2.022   .     S
N114   Zn124   2.022   .     S
O115   Zn123   1.981   .     S
O116   Zn124   1.981   .     S
O117   Zn124   1.992   .     S
O118   Zn123   1.992   .     S
O119   Zn123   1.971   .     S
O120   Zn124   1.971   .     S
O121   Zn124   1.915   .     S
O122   Zn123   1.915   .     S
Br125  C158    1.925   .     S
Br126  C159    1.925   .     S
Br127  C160    1.924   .     S
Br128  C161    1.924   .     S
Br129  C137    1.910   .     S
Br130  C138    1.910   .     S
C131   C134    1.409   .     S
C131   O179    1.285   .     A
C131   O177    1.285   .     A
C132   C134    1.396   .     A
C132   H164    1.085   .     S
C132   C347    1.373   .     S
C133   C161    1.401   .     A
C133   C162    1.395   .     A
C133   C142    1.409   .     S
C134   C160    1.401   .     A
C135   H165    1.082   .     S
C135   N176    1.359   .     A
C135   C13     1.416   1_655 S
C136   H166    1.082   .     S
C136   N175    1.359   .     A
C137   N175    1.380   .     A
C138   N176    1.380   .     A
C138   C12     1.416   1_655 S
C139   O181    1.295   .     A
C139   O183    1.299   .     A
C139   C141    1.455   .     S
C140   O182    1.295   .     A
C140   C143    1.454   .     S
C140   O184    1.299   .     A
C141   C146    1.395   .     A
C141   C148    1.386   .     A
C142   O180    1.285   .     A
C142   O178    1.285   .     A
C143   C147    1.395   .     A
C143   C149    1.386   .     A
C144   C152    1.411   .     A
C144   C146    1.392   .     A
C144   H170    1.081   .     S
C145   C154    1.411   .     A
C145   C147    1.392   .     A
C145   H171    1.081   .     S
C146   H169    1.083   .     S
C147   H168    1.083   .     S
C148   H167    1.072   .     S
C148   C150    1.396   .     A
C149   H163    1.072   .     S
C149   C151    1.396   .     A
C150   C155    1.424   .     A
C150   C152    1.423   .     A
C151   C154    1.423   .     A
C151   C156    1.423   .     A
C152   C716    1.398   .     S
C153   C156    1.419   .     A
C153   H172    1.074   .     S
C153   C158    1.387   .     A
C154   C717    1.398   1_554 S
C155   C157    1.419   .     A
C155   C714    1.414   .     S
C156   C713    1.414   1_554 S
C157   C159    1.387   .     A
C157   H173    1.074   .     S
C158   C710    1.398   1_554 S
C159   C712    1.398   .     S
C160   C348    1.373   .     S
C161   C504    1.373   1_545 S
C162   H174    1.085   .     S
C162   C532    1.373   1_545 S
N175   Zn185   2.022   .     S
N176   Zn186   2.022   .     S
O177   Zn185   1.981   .     S
O178   Zn186   1.981   .     S
O179   Zn186   1.992   .     S
O180   Zn185   1.992   .     S
O181   Zn185   1.971   .     S
O182   Zn186   1.971   .     S
O183   Zn186   1.915   .     S
O184   Zn185   1.915   .     S
Br187  C220    1.925   .     S
Br188  C221    1.925   .     S
Br189  C222    1.924   .     S
Br190  C223    1.924   .     S
Br191  C199    1.910   .     S
Br192  C200    1.910   .     S
C193   C196    1.409   .     S
C193   O241    1.285   .     A
C193   O239    1.285   .     A
C194   C196    1.396   .     A
C194   H226    1.085   .     S
C194   C409    1.373   .     S
C195   C223    1.401   .     A
C195   C224    1.395   .     A
C195   C204    1.409   .     S
C196   C222    1.401   .     A
C197   H227    1.082   .     S
C197   N238    1.359   .     A
C197   C261    1.416   .     S
C198   H228    1.082   .     S
C198   N237    1.359   .     A
C198   C324    1.416   1_455 S
C199   N237    1.380   .     A
C199   C321    1.416   1_455 S
C200   N238    1.380   .     A
C200   C260    1.416   .     S
C201   O243    1.295   .     A
C201   O245    1.299   .     A
C201   C203    1.455   .     S
C202   O244    1.295   .     A
C202   C205    1.454   .     S
C202   O246    1.299   .     A
C203   C208    1.395   .     A
C203   C210    1.386   .     A
C204   O242    1.285   .     A
C204   O240    1.285   .     A
C205   C209    1.395   .     A
C205   C211    1.386   .     A
C206   C214    1.411   .     A
C206   C208    1.392   .     A
C206   H232    1.081   .     S
C207   C216    1.411   .     A
C207   C209    1.392   .     A
C207   H233    1.081   .     S
C208   H231    1.083   .     S
C209   H230    1.083   .     S
C210   H229    1.072   .     S
C210   C212    1.396   .     A
C211   H225    1.072   .     S
C211   C213    1.396   .     A
C212   C217    1.424   .     A
C212   C214    1.423   .     A
C213   C216    1.423   .     A
C213   C218    1.423   .     A
C214   C778    1.398   .     S
C215   C218    1.419   .     A
C215   H234    1.074   .     S
C215   C220    1.387   .     A
C216   C779    1.398   1_554 S
C217   C219    1.419   .     A
C217   C776    1.414   .     S
C218   C775    1.414   1_554 S
C219   C221    1.387   .     A
C219   H235    1.074   .     S
C220   C772    1.398   1_554 S
C221   C774    1.398   .     S
C222   C410    1.373   .     S
C224   H236    1.085   .     S
N237   Zn247   2.022   .     S
N238   Zn248   2.022   .     S
O239   Zn247   1.981   .     S
O240   Zn248   1.981   .     S
O241   Zn248   1.992   .     S
O242   Zn247   1.992   .     S
O243   Zn247   1.971   .     S
O244   Zn248   1.971   .     S
O245   Zn248   1.915   .     S
O246   Zn247   1.915   .     S
Br249  C282    1.925   .     S
Br250  C283    1.925   .     S
Br251  C284    1.924   .     S
Br252  C285    1.924   .     S
Br253  C261    1.910   .     S
Br254  C262    1.910   .     S
C255   C258    1.409   .     S
C255   O303    1.285   .     A
C255   O301    1.285   .     A
C256   C258    1.396   .     A
C256   H288    1.085   .     S
C256   C471    1.373   .     S
C257   C285    1.401   .     A
C257   C286    1.395   .     A
C257   C266    1.409   .     S
C258   C284    1.401   .     A
C259   H289    1.082   .     S
C259   N300    1.359   .     A
C259   C323    1.416   .     S
C260   H290    1.082   .     S
C260   N299    1.359   .     A
C261   N299    1.380   .     A
C262   N300    1.380   .     A
C262   C322    1.416   .     S
C263   O305    1.295   .     A
C263   O307    1.299   .     A
C263   C265    1.455   .     S
C264   O306    1.295   .     A
C264   C267    1.454   .     S
C264   O308    1.299   .     A
C265   C270    1.395   .     A
C265   C272    1.386   .     A
C266   O304    1.285   .     A
C266   O302    1.285   .     A
C267   C271    1.395   .     A
C267   C273    1.386   .     A
C268   C276    1.411   .     A
C268   C270    1.392   .     A
C268   H294    1.081   .     S
C269   C278    1.411   .     A
C269   C271    1.392   .     A
C269   H295    1.081   .     S
C270   H293    1.083   .     S
C271   H292    1.083   .     S
C272   H291    1.072   .     S
C272   C274    1.396   .     A
C273   H287    1.072   .     S
C273   C275    1.396   .     A
C274   C279    1.424   .     A
C274   C276    1.423   .     A
C275   C278    1.423   .     A
C275   C280    1.423   .     A
C276   C840    1.398   .     S
C277   C280    1.419   .     A
C277   H296    1.074   .     S
C277   C282    1.387   .     A
C278   C841    1.398   1_554 S
C279   C281    1.419   .     A
C279   C838    1.414   .     S
C280   C837    1.414   1_554 S
C281   C283    1.387   .     A
C281   H297    1.074   .     S
C282   C834    1.398   1_554 S
C283   C836    1.398   .     S
C284   C472    1.373   .     S
C286   H298    1.085   .     S
N299   Zn309   2.022   .     S
N300   Zn310   2.022   .     S
O301   Zn309   1.981   .     S
O302   Zn310   1.981   .     S
O303   Zn310   1.992   .     S
O304   Zn309   1.992   .     S
O305   Zn309   1.971   .     S
O306   Zn310   1.971   .     S
O307   Zn310   1.915   .     S
O308   Zn309   1.915   .     S
Br311  C344    1.925   .     S
Br312  C345    1.925   .     S
Br313  C346    1.924   .     S
Br314  C347    1.924   .     S
Br315  C323    1.910   .     S
Br316  C324    1.910   .     S
C317   C320    1.409   .     S
C317   O365    1.285   .     A
C317   O363    1.285   .     A
C318   C320    1.396   .     A
C318   H350    1.085   .     S
C318   C533    1.373   .     S
C319   C347    1.401   .     A
C319   C348    1.395   .     A
C319   C328    1.409   .     S
C320   C346    1.401   .     A
C321   H351    1.082   .     S
C321   N362    1.359   .     A
C321   C199    1.416   1_655 S
C322   H352    1.082   .     S
C322   N361    1.359   .     A
C323   N361    1.380   .     A
C324   N362    1.380   .     A
C324   C198    1.416   1_655 S
C325   O367    1.295   .     A
C325   O369    1.299   .     A
C325   C327    1.455   .     S
C326   O368    1.295   .     A
C326   C329    1.454   .     S
C326   O370    1.299   .     A
C327   C332    1.395   .     A
C327   C334    1.386   .     A
C328   O366    1.285   .     A
C328   O364    1.285   .     A
C329   C333    1.395   .     A
C329   C335    1.386   .     A
C330   C338    1.411   .     A
C330   C332    1.392   .     A
C330   H356    1.081   .     S
C331   C340    1.411   .     A
C331   C333    1.392   .     A
C331   H357    1.081   .     S
C332   H355    1.083   .     S
C333   H354    1.083   .     S
C334   H353    1.072   .     S
C334   C336    1.396   .     A
C335   H349    1.072   .     S
C335   C337    1.396   .     A
C336   C341    1.424   .     A
C336   C338    1.423   .     A
C337   C340    1.423   .     A
C337   C342    1.423   .     A
C338   C902    1.398   .     S
C339   C342    1.419   .     A
C339   H358    1.074   .     S
C339   C344    1.387   .     A
C340   C903    1.398   1_554 S
C341   C343    1.419   .     A
C341   C900    1.414   .     S
C342   C899    1.414   1_554 S
C343   C345    1.387   .     A
C343   H359    1.074   .     S
C344   C896    1.398   1_554 S
C345   C898    1.398   .     S
C346   C534    1.373   .     S
C348   H360    1.085   .     S
N361   Zn371   2.022   .     S
N362   Zn372   2.022   .     S
O363   Zn371   1.981   .     S
O364   Zn372   1.981   .     S
O365   Zn372   1.992   .     S
O366   Zn371   1.992   .     S
O367   Zn371   1.971   .     S
O368   Zn372   1.971   .     S
O369   Zn372   1.915   .     S
O370   Zn371   1.915   .     S
Br373  C406    1.925   .     S
Br374  C407    1.925   .     S
Br375  C408    1.924   .     S
Br376  C409    1.924   .     S
Br377  C385    1.910   .     S
Br378  C386    1.910   .     S
C379   C382    1.409   .     S
C379   O427    1.285   .     A
C379   O425    1.285   .     A
C380   C382    1.396   .     A
C380   H412    1.085   .     S
C380   C37     1.373   1_565 S
C381   C409    1.401   .     A
C381   C410    1.395   .     A
C381   C390    1.409   .     S
C382   C408    1.401   .     A
C383   H413    1.082   .     S
C383   N424    1.359   .     A
C383   C447    1.416   .     S
C384   H414    1.082   .     S
C384   N423    1.359   .     A
C384   C510    1.416   1_455 S
C385   N423    1.380   .     A
C385   C507    1.416   1_455 S
C386   N424    1.380   .     A
C386   C446    1.416   .     S
C387   O429    1.295   .     A
C387   O431    1.299   .     A
C387   C389    1.455   .     S
C388   O430    1.295   .     A
C388   C391    1.454   .     S
C388   O432    1.299   .     A
C389   C394    1.395   .     A
C389   C396    1.386   .     A
C390   O428    1.285   .     A
C390   O426    1.285   .     A
C391   C395    1.395   .     A
C391   C397    1.386   .     A
C392   C400    1.411   .     A
C392   C394    1.392   .     A
C392   H418    1.081   .     S
C393   C402    1.411   .     A
C393   C395    1.392   .     A
C393   H419    1.081   .     S
C394   H417    1.083   .     S
C395   H416    1.083   .     S
C396   H415    1.072   .     S
C396   C398    1.396   .     A
C397   H411    1.072   .     S
C397   C399    1.396   .     A
C398   C403    1.424   .     A
C398   C400    1.423   .     A
C399   C402    1.423   .     A
C399   C404    1.423   .     A
C400   C964    1.398   .     S
C401   C404    1.419   .     A
C401   H420    1.074   .     S
C401   C406    1.387   .     A
C402   C965    1.398   1_554 S
C403   C405    1.419   .     A
C403   C962    1.414   .     S
C404   C961    1.414   1_554 S
C405   C407    1.387   .     A
C405   H421    1.074   .     S
C406   C958    1.398   1_554 S
C407   C960    1.398   .     S
C408   C38     1.373   1_565 S
C410   H422    1.085   .     S
N423   Zn433   2.022   .     S
N424   Zn434   2.022   .     S
O425   Zn433   1.981   .     S
O426   Zn434   1.981   .     S
O427   Zn434   1.992   .     S
O428   Zn433   1.992   .     S
O429   Zn433   1.971   .     S
O430   Zn434   1.971   .     S
O431   Zn434   1.915   .     S
O432   Zn433   1.915   .     S
Br435  C468    1.925   .     S
Br436  C469    1.925   .     S
Br437  C470    1.924   .     S
Br438  C471    1.924   .     S
Br439  C447    1.910   .     S
Br440  C448    1.910   .     S
C441   C444    1.409   .     S
C441   O489    1.285   .     A
C441   O487    1.285   .     A
C442   C444    1.396   .     A
C442   H474    1.085   .     S
C442   C99     1.373   1_565 S
C443   C471    1.401   .     A
C443   C472    1.395   .     A
C443   C452    1.409   .     S
C444   C470    1.401   .     A
C445   H475    1.082   .     S
C445   N486    1.359   .     A
C445   C509    1.416   .     S
C446   H476    1.082   .     S
C446   N485    1.359   .     A
C447   N485    1.380   .     A
C448   N486    1.380   .     A
C448   C508    1.416   .     S
C449   O491    1.295   .     A
C449   O493    1.299   .     A
C449   C451    1.455   .     S
C450   O492    1.295   .     A
C450   C453    1.454   .     S
C450   O494    1.299   .     A
C451   C456    1.395   .     A
C451   C458    1.386   .     A
C452   O490    1.285   .     A
C452   O488    1.285   .     A
C453   C457    1.395   .     A
C453   C459    1.386   .     A
C454   C462    1.411   .     A
C454   C456    1.392   .     A
C454   H480    1.081   .     S
C455   C464    1.411   .     A
C455   C457    1.392   .     A
C455   H481    1.081   .     S
C456   H479    1.083   .     S
C457   H478    1.083   .     S
C458   H477    1.072   .     S
C458   C460    1.396   .     A
C459   H473    1.072   .     S
C459   C461    1.396   .     A
C460   C465    1.424   .     A
C460   C462    1.423   .     A
C461   C464    1.423   .     A
C461   C466    1.423   .     A
C462   C1026   1.398   .     S
C463   C466    1.419   .     A
C463   H482    1.074   .     S
C463   C468    1.387   .     A
C464   C1027   1.398   1_554 S
C465   C467    1.419   .     A
C465   C1024   1.414   .     S
C466   C1023   1.414   1_554 S
C467   C469    1.387   .     A
C467   H483    1.074   .     S
C468   C1020   1.398   1_554 S
C469   C1022   1.398   .     S
C470   C100    1.373   1_565 S
C472   H484    1.085   .     S
N485   Zn495   2.022   .     S
N486   Zn496   2.022   .     S
O487   Zn495   1.981   .     S
O488   Zn496   1.981   .     S
O489   Zn496   1.992   .     S
O490   Zn495   1.992   .     S
O491   Zn495   1.971   .     S
O492   Zn496   1.971   .     S
O493   Zn496   1.915   .     S
O494   Zn495   1.915   .     S
Br497  C530    1.925   .     S
Br498  C531    1.925   .     S
Br499  C532    1.924   .     S
Br500  C533    1.924   .     S
Br501  C509    1.910   .     S
Br502  C510    1.910   .     S
C503   C506    1.409   .     S
C503   O551    1.285   .     A
C503   O549    1.285   .     A
C504   C506    1.396   .     A
C504   H536    1.085   .     S
C504   C161    1.373   1_565 S
C505   C533    1.401   .     A
C505   C534    1.395   .     A
C505   C514    1.409   .     S
C506   C532    1.401   .     A
C507   H537    1.082   .     S
C507   N548    1.359   .     A
C507   C385    1.416   1_655 S
C508   H538    1.082   .     S
C508   N547    1.359   .     A
C509   N547    1.380   .     A
C510   N548    1.380   .     A
C510   C384    1.416   1_655 S
C511   O553    1.295   .     A
C511   O555    1.299   .     A
C511   C513    1.455   .     S
C512   O554    1.295   .     A
C512   C515    1.454   .     S
C512   O556    1.299   .     A
C513   C518    1.395   .     A
C513   C520    1.386   .     A
C514   O552    1.285   .     A
C514   O550    1.285   .     A
C515   C519    1.395   .     A
C515   C521    1.386   .     A
C516   C524    1.411   .     A
C516   C518    1.392   .     A
C516   H542    1.081   .     S
C517   C526    1.411   .     A
C517   C519    1.392   .     A
C517   H543    1.081   .     S
C518   H541    1.083   .     S
C519   H540    1.083   .     S
C520   H539    1.072   .     S
C520   C522    1.396   .     A
C521   H535    1.072   .     S
C521   C523    1.396   .     A
C522   C527    1.424   .     A
C522   C524    1.423   .     A
C523   C526    1.423   .     A
C523   C528    1.423   .     A
C524   C1088   1.398   .     S
C525   C528    1.419   .     A
C525   H544    1.074   .     S
C525   C530    1.387   .     A
C526   C1089   1.398   1_554 S
C527   C529    1.419   .     A
C527   C1086   1.414   .     S
C528   C1085   1.414   1_554 S
C529   C531    1.387   .     A
C529   H545    1.074   .     S
C530   C1082   1.398   1_554 S
C531   C1084   1.398   .     S
C532   C162    1.373   1_565 S
C534   H546    1.085   .     S
N547   Zn557   2.022   .     S
N548   Zn558   2.022   .     S
O549   Zn557   1.981   .     S
O550   Zn558   1.981   .     S
O551   Zn558   1.992   .     S
O552   Zn557   1.992   .     S
O553   Zn557   1.971   .     S
O554   Zn558   1.971   .     S
O555   Zn558   1.915   .     S
O556   Zn557   1.915   .     S
Br559  C592    1.925   .     S
Br560  C593    1.925   .     S
Br561  C594    1.924   .     S
Br562  C595    1.924   .     S
Br563  C571    1.910   .     S
Br564  C572    1.910   .     S
C565   C568    1.409   .     S
C565   O613    1.285   .     A
C565   O611    1.285   .     A
C566   C568    1.396   .     A
C566   H598    1.085   .     S
C566   C781    1.373   .     S
C567   C595    1.401   .     A
C567   C596    1.395   .     A
C567   C576    1.409   .     S
C568   C594    1.401   .     A
C569   H599    1.082   .     S
C569   N610    1.359   .     A
C569   C633    1.416   .     S
C570   H600    1.082   .     S
C570   N609    1.359   .     A
C570   C696    1.416   1_455 S
C571   N609    1.380   .     A
C571   C693    1.416   1_455 S
C572   N610    1.380   .     A
C572   C632    1.416   .     S
C573   O615    1.295   .     A
C573   O617    1.299   .     A
C573   C575    1.455   .     S
C574   O616    1.295   .     A
C574   C577    1.454   .     S
C574   O618    1.299   .     A
C575   C580    1.395   .     A
C575   C582    1.386   .     A
C576   O614    1.285   .     A
C576   O612    1.285   .     A
C577   C581    1.395   .     A
C577   C583    1.386   .     A
C578   C586    1.411   .     A
C578   C580    1.392   .     A
C578   H604    1.081   .     S
C579   C588    1.411   .     A
C579   C581    1.392   .     A
C579   H605    1.081   .     S
C580   H603    1.083   .     S
C581   H602    1.083   .     S
C582   H601    1.072   .     S
C582   C584    1.396   .     A
C583   H597    1.072   .     S
C583   C585    1.396   .     A
C584   C589    1.424   .     A
C584   C586    1.423   .     A
C585   C588    1.423   .     A
C585   C590    1.423   .     A
C586   C34     1.398   1_556 S
C587   C590    1.419   .     A
C587   H606    1.074   .     S
C587   C592    1.387   .     A
C589   C591    1.419   .     A
C589   C32     1.414   1_556 S
C591   C593    1.387   .     A
C591   H607    1.074   .     S
C593   C30     1.398   1_556 S
C594   C782    1.373   .     S
C595   C938    1.373   1_545 S
C596   H608    1.085   .     S
C596   C966    1.373   1_545 S
N609   Zn619   2.022   .     S
N610   Zn620   2.022   .     S
O611   Zn619   1.981   .     S
O612   Zn620   1.981   .     S
O613   Zn620   1.992   .     S
O614   Zn619   1.992   .     S
O615   Zn619   1.971   .     S
O616   Zn620   1.971   .     S
O617   Zn620   1.915   .     S
O618   Zn619   1.915   .     S
Br621  C654    1.925   .     S
Br622  C655    1.925   .     S
Br623  C656    1.924   .     S
Br624  C657    1.924   .     S
Br625  C633    1.910   .     S
Br626  C634    1.910   .     S
C627   C630    1.409   .     S
C627   O675    1.285   .     A
C627   O673    1.285   .     A
C628   C630    1.396   .     A
C628   H660    1.085   .     S
C628   C843    1.373   .     S
C629   C657    1.401   .     A
C629   C658    1.395   .     A
C629   C638    1.409   .     S
C630   C656    1.401   .     A
C631   H661    1.082   .     S
C631   N672    1.359   .     A
C631   C695    1.416   .     S
C632   H662    1.082   .     S
C632   N671    1.359   .     A
C633   N671    1.380   .     A
C634   N672    1.380   .     A
C634   C694    1.416   .     S
C635   O677    1.295   .     A
C635   O679    1.299   .     A
C635   C637    1.455   .     S
C636   O678    1.295   .     A
C636   C639    1.454   .     S
C636   O680    1.299   .     A
C637   C642    1.395   .     A
C637   C644    1.386   .     A
C638   O676    1.285   .     A
C638   O674    1.285   .     A
C639   C643    1.395   .     A
C639   C645    1.386   .     A
C640   C648    1.411   .     A
C640   C642    1.392   .     A
C640   H666    1.081   .     S
C641   C650    1.411   .     A
C641   C643    1.392   .     A
C641   H667    1.081   .     S
C642   H665    1.083   .     S
C643   H664    1.083   .     S
C644   H663    1.072   .     S
C644   C646    1.396   .     A
C645   H659    1.072   .     S
C645   C647    1.396   .     A
C646   C651    1.424   .     A
C646   C648    1.423   .     A
C647   C650    1.423   .     A
C647   C652    1.423   .     A
C648   C96     1.398   1_556 S
C649   C652    1.419   .     A
C649   H668    1.074   .     S
C649   C654    1.387   .     A
C651   C653    1.419   .     A
C651   C94     1.414   1_556 S
C653   C655    1.387   .     A
C653   H669    1.074   .     S
C655   C92     1.398   1_556 S
C656   C844    1.373   .     S
C657   C1000   1.373   1_545 S
C658   H670    1.085   .     S
C658   C1028   1.373   1_545 S
N671   Zn681   2.022   .     S
N672   Zn682   2.022   .     S
O673   Zn681   1.981   .     S
O674   Zn682   1.981   .     S
O675   Zn682   1.992   .     S
O676   Zn681   1.992   .     S
O677   Zn681   1.971   .     S
O678   Zn682   1.971   .     S
O679   Zn682   1.915   .     S
O680   Zn681   1.915   .     S
Br683  C716    1.925   .     S
Br684  C717    1.925   .     S
Br685  C718    1.924   .     S
Br686  C719    1.924   .     S
Br687  C695    1.910   .     S
Br688  C696    1.910   .     S
C689   C692    1.409   .     S
C689   O737    1.285   .     A
C689   O735    1.285   .     A
C690   C692    1.396   .     A
C690   H722    1.085   .     S
C690   C905    1.373   .     S
C691   C719    1.401   .     A
C691   C720    1.395   .     A
C691   C700    1.409   .     S
C692   C718    1.401   .     A
C693   H723    1.082   .     S
C693   N734    1.359   .     A
C693   C571    1.416   1_655 S
C694   H724    1.082   .     S
C694   N733    1.359   .     A
C695   N733    1.380   .     A
C696   N734    1.380   .     A
C696   C570    1.416   1_655 S
C697   O739    1.295   .     A
C697   O741    1.299   .     A
C697   C699    1.455   .     S
C698   O740    1.295   .     A
C698   C701    1.454   .     S
C698   O742    1.299   .     A
C699   C704    1.395   .     A
C699   C706    1.386   .     A
C700   O738    1.285   .     A
C700   O736    1.285   .     A
C701   C705    1.395   .     A
C701   C707    1.386   .     A
C702   C710    1.411   .     A
C702   C704    1.392   .     A
C702   H728    1.081   .     S
C703   C712    1.411   .     A
C703   C705    1.392   .     A
C703   H729    1.081   .     S
C704   H727    1.083   .     S
C705   H726    1.083   .     S
C706   H725    1.072   .     S
C706   C708    1.396   .     A
C707   H721    1.072   .     S
C707   C709    1.396   .     A
C708   C713    1.424   .     A
C708   C710    1.423   .     A
C709   C712    1.423   .     A
C709   C714    1.423   .     A
C710   C158    1.398   1_556 S
C711   C714    1.419   .     A
C711   H730    1.074   .     S
C711   C716    1.387   .     A
C713   C715    1.419   .     A
C713   C156    1.414   1_556 S
C715   C717    1.387   .     A
C715   H731    1.074   .     S
C717   C154    1.398   1_556 S
C718   C906    1.373   .     S
C719   C1062   1.373   1_545 S
C720   H732    1.085   .     S
C720   C1090   1.373   1_545 S
N733   Zn743   2.022   .     S
N734   Zn744   2.022   .     S
O735   Zn743   1.981   .     S
O736   Zn744   1.981   .     S
O737   Zn744   1.992   .     S
O738   Zn743   1.992   .     S
O739   Zn743   1.971   .     S
O740   Zn744   1.971   .     S
O741   Zn744   1.915   .     S
O742   Zn743   1.915   .     S
Br745  C778    1.925   .     S
Br746  C779    1.925   .     S
Br747  C780    1.924   .     S
Br748  C781    1.924   .     S
Br749  C757    1.910   .     S
Br750  C758    1.910   .     S
C751   C754    1.409   .     S
C751   O799    1.285   .     A
C751   O797    1.285   .     A
C752   C754    1.396   .     A
C752   H784    1.085   .     S
C752   C967    1.373   .     S
C753   C781    1.401   .     A
C753   C782    1.395   .     A
C753   C762    1.409   .     S
C754   C780    1.401   .     A
C755   H785    1.082   .     S
C755   N796    1.359   .     A
C755   C819    1.416   .     S
C756   H786    1.082   .     S
C756   N795    1.359   .     A
C756   C882    1.416   1_455 S
C757   N795    1.380   .     A
C757   C879    1.416   1_455 S
C758   N796    1.380   .     A
C758   C818    1.416   .     S
C759   O801    1.295   .     A
C759   O803    1.299   .     A
C759   C761    1.455   .     S
C760   O802    1.295   .     A
C760   C763    1.454   .     S
C760   O804    1.299   .     A
C761   C766    1.395   .     A
C761   C768    1.386   .     A
C762   O800    1.285   .     A
C762   O798    1.285   .     A
C763   C767    1.395   .     A
C763   C769    1.386   .     A
C764   C772    1.411   .     A
C764   C766    1.392   .     A
C764   H790    1.081   .     S
C765   C774    1.411   .     A
C765   C767    1.392   .     A
C765   H791    1.081   .     S
C766   H789    1.083   .     S
C767   H788    1.083   .     S
C768   H787    1.072   .     S
C768   C770    1.396   .     A
C769   H783    1.072   .     S
C769   C771    1.396   .     A
C770   C775    1.424   .     A
C770   C772    1.423   .     A
C771   C774    1.423   .     A
C771   C776    1.423   .     A
C772   C220    1.398   1_556 S
C773   C776    1.419   .     A
C773   H792    1.074   .     S
C773   C778    1.387   .     A
C775   C777    1.419   .     A
C775   C218    1.414   1_556 S
C777   C779    1.387   .     A
C777   H793    1.074   .     S
C779   C216    1.398   1_556 S
C780   C968    1.373   .     S
C782   H794    1.085   .     S
N795   Zn805   2.022   .     S
N796   Zn806   2.022   .     S
O797   Zn805   1.981   .     S
O798   Zn806   1.981   .     S
O799   Zn806   1.992   .     S
O800   Zn805   1.992   .     S
O801   Zn805   1.971   .     S
O802   Zn806   1.971   .     S
O803   Zn806   1.915   .     S
O804   Zn805   1.915   .     S
Br807  C840    1.925   .     S
Br808  C841    1.925   .     S
Br809  C842    1.924   .     S
Br810  C843    1.924   .     S
Br811  C819    1.910   .     S
Br812  C820    1.910   .     S
C813   C816    1.409   .     S
C813   O861    1.285   .     A
C813   O859    1.285   .     A
C814   C816    1.396   .     A
C814   H846    1.085   .     S
C814   C1029   1.373   .     S
C815   C843    1.401   .     A
C815   C844    1.395   .     A
C815   C824    1.409   .     S
C816   C842    1.401   .     A
C817   H847    1.082   .     S
C817   N858    1.359   .     A
C817   C881    1.416   .     S
C818   H848    1.082   .     S
C818   N857    1.359   .     A
C819   N857    1.380   .     A
C820   N858    1.380   .     A
C820   C880    1.416   .     S
C821   O863    1.295   .     A
C821   O865    1.299   .     A
C821   C823    1.455   .     S
C822   O864    1.295   .     A
C822   C825    1.454   .     S
C822   O866    1.299   .     A
C823   C828    1.395   .     A
C823   C830    1.386   .     A
C824   O862    1.285   .     A
C824   O860    1.285   .     A
C825   C829    1.395   .     A
C825   C831    1.386   .     A
C826   C834    1.411   .     A
C826   C828    1.392   .     A
C826   H852    1.081   .     S
C827   C836    1.411   .     A
C827   C829    1.392   .     A
C827   H853    1.081   .     S
C828   H851    1.083   .     S
C829   H850    1.083   .     S
C830   H849    1.072   .     S
C830   C832    1.396   .     A
C831   H845    1.072   .     S
C831   C833    1.396   .     A
C832   C837    1.424   .     A
C832   C834    1.423   .     A
C833   C836    1.423   .     A
C833   C838    1.423   .     A
C834   C282    1.398   1_556 S
C835   C838    1.419   .     A
C835   H854    1.074   .     S
C835   C840    1.387   .     A
C837   C839    1.419   .     A
C837   C280    1.414   1_556 S
C839   C841    1.387   .     A
C839   H855    1.074   .     S
C841   C278    1.398   1_556 S
C842   C1030   1.373   .     S
C844   H856    1.085   .     S
N857   Zn867   2.022   .     S
N858   Zn868   2.022   .     S
O859   Zn867   1.981   .     S
O860   Zn868   1.981   .     S
O861   Zn868   1.992   .     S
O862   Zn867   1.992   .     S
O863   Zn867   1.971   .     S
O864   Zn868   1.971   .     S
O865   Zn868   1.915   .     S
O866   Zn867   1.915   .     S
Br869  C902    1.925   .     S
Br870  C903    1.925   .     S
Br871  C904    1.924   .     S
Br872  C905    1.924   .     S
Br873  C881    1.910   .     S
Br874  C882    1.910   .     S
C875   C878    1.409   .     S
C875   O923    1.285   .     A
C875   O921    1.285   .     A
C876   C878    1.396   .     A
C876   H908    1.085   .     S
C876   C1091   1.373   .     S
C877   C905    1.401   .     A
C877   C906    1.395   .     A
C877   C886    1.409   .     S
C878   C904    1.401   .     A
C879   H909    1.082   .     S
C879   N920    1.359   .     A
C879   C757    1.416   1_655 S
C880   H910    1.082   .     S
C880   N919    1.359   .     A
C881   N919    1.380   .     A
C882   N920    1.380   .     A
C882   C756    1.416   1_655 S
C883   O925    1.295   .     A
C883   O927    1.299   .     A
C883   C885    1.455   .     S
C884   O926    1.295   .     A
C884   C887    1.454   .     S
C884   O928    1.299   .     A
C885   C890    1.395   .     A
C885   C892    1.386   .     A
C886   O924    1.285   .     A
C886   O922    1.285   .     A
C887   C891    1.395   .     A
C887   C893    1.386   .     A
C888   C896    1.411   .     A
C888   C890    1.392   .     A
C888   H914    1.081   .     S
C889   C898    1.411   .     A
C889   C891    1.392   .     A
C889   H915    1.081   .     S
C890   H913    1.083   .     S
C891   H912    1.083   .     S
C892   H911    1.072   .     S
C892   C894    1.396   .     A
C893   H907    1.072   .     S
C893   C895    1.396   .     A
C894   C899    1.424   .     A
C894   C896    1.423   .     A
C895   C898    1.423   .     A
C895   C900    1.423   .     A
C896   C344    1.398   1_556 S
C897   C900    1.419   .     A
C897   H916    1.074   .     S
C897   C902    1.387   .     A
C899   C901    1.419   .     A
C899   C342    1.414   1_556 S
C901   C903    1.387   .     A
C901   H917    1.074   .     S
C903   C340    1.398   1_556 S
C904   C1092   1.373   .     S
C906   H918    1.085   .     S
N919   Zn929   2.022   .     S
N920   Zn930   2.022   .     S
O921   Zn929   1.981   .     S
O922   Zn930   1.981   .     S
O923   Zn930   1.992   .     S
O924   Zn929   1.992   .     S
O925   Zn929   1.971   .     S
O926   Zn930   1.971   .     S
O927   Zn930   1.915   .     S
O928   Zn929   1.915   .     S
Br931  C964    1.925   .     S
Br932  C965    1.925   .     S
Br933  C966    1.924   .     S
Br934  C967    1.924   .     S
Br935  C943    1.910   .     S
Br936  C944    1.910   .     S
C937   C940    1.409   .     S
C937   O985    1.285   .     A
C937   O983    1.285   .     A
C938   C940    1.396   .     A
C938   H970    1.085   .     S
C938   C595    1.373   1_565 S
C939   C967    1.401   .     A
C939   C968    1.395   .     A
C939   C948    1.409   .     S
C940   C966    1.401   .     A
C941   H971    1.082   .     S
C941   N982    1.359   .     A
C941   C1005   1.416   .     S
C942   H972    1.082   .     S
C942   N981    1.359   .     A
C942   C1068   1.416   1_455 S
C943   N981    1.380   .     A
C943   C1065   1.416   1_455 S
C944   N982    1.380   .     A
C944   C1004   1.416   .     S
C945   O987    1.295   .     A
C945   O989    1.299   .     A
C945   C947    1.455   .     S
C946   O988    1.295   .     A
C946   C949    1.454   .     S
C946   O990    1.299   .     A
C947   C952    1.395   .     A
C947   C954    1.386   .     A
C948   O986    1.285   .     A
C948   O984    1.285   .     A
C949   C953    1.395   .     A
C949   C955    1.386   .     A
C950   C958    1.411   .     A
C950   C952    1.392   .     A
C950   H976    1.081   .     S
C951   C960    1.411   .     A
C951   C953    1.392   .     A
C951   H977    1.081   .     S
C952   H975    1.083   .     S
C953   H974    1.083   .     S
C954   H973    1.072   .     S
C954   C956    1.396   .     A
C955   H969    1.072   .     S
C955   C957    1.396   .     A
C956   C961    1.424   .     A
C956   C958    1.423   .     A
C957   C960    1.423   .     A
C957   C962    1.423   .     A
C958   C406    1.398   1_556 S
C959   C962    1.419   .     A
C959   H978    1.074   .     S
C959   C964    1.387   .     A
C961   C963    1.419   .     A
C961   C404    1.414   1_556 S
C963   C965    1.387   .     A
C963   H979    1.074   .     S
C965   C402    1.398   1_556 S
C966   C596    1.373   1_565 S
C968   H980    1.085   .     S
N981   Zn991   2.022   .     S
N982   Zn992   2.022   .     S
O983   Zn991   1.981   .     S
O984   Zn992   1.981   .     S
O985   Zn992   1.992   .     S
O986   Zn991   1.992   .     S
O987   Zn991   1.971   .     S
O988   Zn992   1.971   .     S
O989   Zn992   1.915   .     S
O990   Zn991   1.915   .     S
Br993  C1026   1.925   .     S
Br994  C1027   1.925   .     S
Br995  C1028   1.924   .     S
Br996  C1029   1.924   .     S
Br997  C1005   1.910   .     S
Br998  C1006   1.910   .     S
C999   C1002   1.409   .     S
C999   O1047   1.285   .     A
C999   O1045   1.285   .     A
C1000  C1002   1.396   .     A
C1000  H1032   1.085   .     S
C1000  C657    1.373   1_565 S
C1001  C1029   1.401   .     A
C1001  C1030   1.395   .     A
C1001  C1010   1.409   .     S
C1002  C1028   1.401   .     A
C1003  H1033   1.082   .     S
C1003  N1044   1.359   .     A
C1003  C1067   1.416   .     S
C1004  H1034   1.082   .     S
C1004  N1043   1.359   .     A
C1005  N1043   1.380   .     A
C1006  N1044   1.380   .     A
C1006  C1066   1.416   .     S
C1007  O1049   1.295   .     A
C1007  O1051   1.299   .     A
C1007  C1009   1.455   .     S
C1008  O1050   1.295   .     A
C1008  C1011   1.454   .     S
C1008  O1052   1.299   .     A
C1009  C1014   1.395   .     A
C1009  C1016   1.386   .     A
C1010  O1048   1.285   .     A
C1010  O1046   1.285   .     A
C1011  C1015   1.395   .     A
C1011  C1017   1.386   .     A
C1012  C1020   1.411   .     A
C1012  C1014   1.392   .     A
C1012  H1038   1.081   .     S
C1013  C1022   1.411   .     A
C1013  C1015   1.392   .     A
C1013  H1039   1.081   .     S
C1014  H1037   1.083   .     S
C1015  H1036   1.083   .     S
C1016  H1035   1.072   .     S
C1016  C1018   1.396   .     A
C1017  H1031   1.072   .     S
C1017  C1019   1.396   .     A
C1018  C1023   1.424   .     A
C1018  C1020   1.423   .     A
C1019  C1022   1.423   .     A
C1019  C1024   1.423   .     A
C1020  C468    1.398   1_556 S
C1021  C1024   1.419   .     A
C1021  H1040   1.074   .     S
C1021  C1026   1.387   .     A
C1023  C1025   1.419   .     A
C1023  C466    1.414   1_556 S
C1025  C1027   1.387   .     A
C1025  H1041   1.074   .     S
C1027  C464    1.398   1_556 S
C1028  C658    1.373   1_565 S
C1030  H1042   1.085   .     S
N1043  Zn1053  2.022   .     S
N1044  Zn1054  2.022   .     S
O1045  Zn1053  1.981   .     S
O1046  Zn1054  1.981   .     S
O1047  Zn1054  1.992   .     S
O1048  Zn1053  1.992   .     S
O1049  Zn1053  1.971   .     S
O1050  Zn1054  1.971   .     S
O1051  Zn1054  1.915   .     S
O1052  Zn1053  1.915   .     S
Br1055 C1088   1.925   .     S
Br1056 C1089   1.925   .     S
Br1057 C1090   1.924   .     S
Br1058 C1091   1.924   .     S
Br1059 C1067   1.910   .     S
Br1060 C1068   1.910   .     S
C1061  C1064   1.409   .     S
C1061  O1109   1.285   .     A
C1061  O1107   1.285   .     A
C1062  C1064   1.396   .     A
C1062  H1094   1.085   .     S
C1062  C719    1.373   1_565 S
C1063  C1091   1.401   .     A
C1063  C1092   1.395   .     A
C1063  C1072   1.409   .     S
C1064  C1090   1.401   .     A
C1065  H1095   1.082   .     S
C1065  N1106   1.359   .     A
C1065  C943    1.416   1_655 S
C1066  H1096   1.082   .     S
C1066  N1105   1.359   .     A
C1067  N1105   1.380   .     A
C1068  N1106   1.380   .     A
C1068  C942    1.416   1_655 S
C1069  O1111   1.295   .     A
C1069  O1113   1.299   .     A
C1069  C1071   1.455   .     S
C1070  O1112   1.295   .     A
C1070  C1073   1.454   .     S
C1070  O1114   1.299   .     A
C1071  C1076   1.395   .     A
C1071  C1078   1.386   .     A
C1072  O1110   1.285   .     A
C1072  O1108   1.285   .     A
C1073  C1077   1.395   .     A
C1073  C1079   1.386   .     A
C1074  C1082   1.411   .     A
C1074  C1076   1.392   .     A
C1074  H1100   1.081   .     S
C1075  C1084   1.411   .     A
C1075  C1077   1.392   .     A
C1075  H1101   1.081   .     S
C1076  H1099   1.083   .     S
C1077  H1098   1.083   .     S
C1078  H1097   1.072   .     S
C1078  C1080   1.396   .     A
C1079  H1093   1.072   .     S
C1079  C1081   1.396   .     A
C1080  C1085   1.424   .     A
C1080  C1082   1.423   .     A
C1081  C1084   1.423   .     A
C1081  C1086   1.423   .     A
C1082  C530    1.398   1_556 S
C1083  C1086   1.419   .     A
C1083  H1102   1.074   .     S
C1083  C1088   1.387   .     A
C1085  C1087   1.419   .     A
C1085  C528    1.414   1_556 S
C1087  C1089   1.387   .     A
C1087  H1103   1.074   .     S
C1089  C526    1.398   1_556 S
C1090  C720    1.373   1_565 S
C1092  H1104   1.085   .     S
N1105  Zn1115  2.022   .     S
N1106  Zn1116  2.022   .     S
O1107  Zn1115  1.981   .     S
O1108  Zn1116  1.981   .     S
O1109  Zn1116  1.992   .     S
O1110  Zn1115  1.992   .     S
O1111  Zn1115  1.971   .     S
O1112  Zn1116  1.971   .     S
O1113  Zn1116  1.915   .     S
O1114  Zn1115  1.915   .     S
