data_str_m2_o10_o16_pcu_sym.19
_audit_creation_date              2020-01-03
_audit_creation_method            'Materials Studio'
_symmetry_space_group_name_H-M    'P1'
_symmetry_Int_Tables_number       1
_symmetry_cell_setting            triclinic
loop_
_symmetry_equiv_pos_as_xyz
  x,y,z
_cell_length_a                    22.3915
_cell_length_b                    26.0703
_cell_length_c                    26.8571
_cell_angle_alpha                 94.0659
_cell_angle_beta                  78.5040
_cell_angle_gamma                 102.9991
loop_
_atom_site_label
_atom_site_type_symbol
_atom_site_fract_x
_atom_site_fract_y
_atom_site_fract_z
_atom_site_U_iso_or_equiv
_atom_site_adp_type
_atom_site_occupancy
C1     C     0.18188   0.26668   0.25108   0.00000  Uiso   1.00
C2     C     0.11634   0.13567   0.39853   0.00000  Uiso   1.00
C3     C     0.19076   0.32260   0.25044   0.00000  Uiso   1.00
C4     C     0.13352   0.15513   0.34560   0.00000  Uiso   1.00
C5     C     0.14293   0.01068   0.24822   0.00000  Uiso   1.00
C6     C     0.15161   0.06663   0.24845   0.00000  Uiso   1.00
C7     C     0.19982   0.17029   0.15320   0.00000  Uiso   1.00
C8     C     0.29582   0.19551   0.02220   0.00000  Uiso   1.00
C9     C     0.21828   0.17280   0.09796   0.00000  Uiso   1.00
C10    C     0.05461   0.11204   0.41832   0.00000  Uiso   1.00
C11    C     0.03567   0.10230   0.46995   0.00000  Uiso   1.00
C12    C     0.14170   0.13861   0.48374   0.00000  Uiso   1.00
C13    C     0.07765   0.11819   0.00291   0.00000  Uiso   1.00
C14    C     0.22893   0.05890   0.37134   0.00000  Uiso   1.00
C15    C     0.16163   0.14024   0.43028   0.00000  Uiso   1.00
C16    C     0.18725   0.15624   0.01514   0.00000  Uiso   1.00
C17    C     0.25053   0.17586   0.49231   0.00000  Uiso   1.00
C18    C     0.26915   0.17081   0.44006   0.00000  Uiso   1.00
C19    C     0.22624   0.14504   0.41081   0.00000  Uiso   1.00
C20    C     0.17232   0.15532   0.06827   0.00000  Uiso   1.00
C21    C     0.27993   0.19339   0.07483   0.00000  Uiso   1.00
Cu22   Cu    0.10710   0.16105   0.24435   0.00000  Uiso   1.00
Cu23   Cu    0.22623   0.17228   0.25564   0.00000  Uiso   1.00
H24    H     0.31570   0.20770   0.09735   0.00000  Uiso   1.00
H25    H     0.32068   0.08467   0.48490   0.00000  Uiso   1.00
H26    H     0.23713   0.01294   0.25160   0.00000  Uiso   1.00
H27    H     0.29396   0.12834   0.35030   0.00000  Uiso   1.00
H28    H     0.25084   0.03947   0.33662   0.00000  Uiso   1.00
H29    H     0.17745   0.04599   0.37561   0.00000  Uiso   1.00
H30    H     0.24421   0.04633   0.40459   0.00000  Uiso   1.00
H31    H     0.09668   0.32033   0.24654   0.00000  Uiso   1.00
H32    H     0.00402   0.20657   0.28921   0.00000  Uiso   1.00
H33    H     0.32933   0.12683   0.21073   0.00000  Uiso   1.00
H34    H     0.31805   0.18165   0.42286   0.00000  Uiso   1.00
H35    H     0.01074   0.21064   0.00475   0.00000  Uiso   1.00
H36    H     0.12526   0.14029   0.08751   0.00000  Uiso   1.00
H37    H     0.02102   0.10123   0.39379   0.00000  Uiso   1.00
H38    H     0.05867   0.11272   0.04276   0.00000  Uiso   1.00
N39    N     0.31574   0.18074   0.26416   0.00000  Uiso   1.00
N40    N     0.01759   0.15259   0.23584   0.00000  Uiso   1.00
N41    N     0.24780   0.11548   0.36679   0.00000  Uiso   1.00
O42    O     0.12797   0.23807   0.24633   0.00000  Uiso   1.00
O43    O     0.22858   0.24755   0.25586   0.00000  Uiso   1.00
O44    O     0.09181   0.15960   0.31839   0.00000  Uiso   1.00
O45    O     0.19242   0.16908   0.32793   0.00000  Uiso   1.00
O46    O     0.10476   0.08578   0.24413   0.00000  Uiso   1.00
O47    O     0.20536   0.09526   0.25367   0.00000  Uiso   1.00
O48    O     0.14092   0.16425   0.17207   0.00000  Uiso   1.00
O49    O     0.24152   0.17373   0.18160   0.00000  Uiso   1.00
C50    C     0.51521   0.26668   0.25108   0.00000  Uiso   1.00
C51    C     0.44967   0.13567   0.39853   0.00000  Uiso   1.00
C52    C     0.52410   0.32260   0.25044   0.00000  Uiso   1.00
C53    C     0.46686   0.15513   0.34560   0.00000  Uiso   1.00
C54    C     0.47626   0.01068   0.24822   0.00000  Uiso   1.00
C55    C     0.48495   0.06663   0.24845   0.00000  Uiso   1.00
C56    C     0.53316   0.17029   0.15320   0.00000  Uiso   1.00
C57    C     0.62915   0.19551   0.02220   0.00000  Uiso   1.00
C58    C     0.55162   0.17280   0.09796   0.00000  Uiso   1.00
C59    C     0.38795   0.11204   0.41832   0.00000  Uiso   1.00
C60    C     0.36900   0.10230   0.46995   0.00000  Uiso   1.00
C61    C     0.47503   0.13861   0.48374   0.00000  Uiso   1.00
C62    C     0.41099   0.11819   0.00291   0.00000  Uiso   1.00
C63    C     0.56226   0.05890   0.37134   0.00000  Uiso   1.00
C64    C     0.49496   0.14024   0.43028   0.00000  Uiso   1.00
C65    C     0.52058   0.15624   0.01514   0.00000  Uiso   1.00
C66    C     0.58387   0.17586   0.49231   0.00000  Uiso   1.00
C67    C     0.60249   0.17081   0.44006   0.00000  Uiso   1.00
C68    C     0.55957   0.14504   0.41081   0.00000  Uiso   1.00
C69    C     0.50565   0.15532   0.06827   0.00000  Uiso   1.00
C70    C     0.61326   0.19339   0.07483   0.00000  Uiso   1.00
Cu71   Cu    0.44043   0.16105   0.24435   0.00000  Uiso   1.00
Cu72   Cu    0.55957   0.17228   0.25564   0.00000  Uiso   1.00
H73    H     0.64903   0.20770   0.09735   0.00000  Uiso   1.00
H74    H     0.65401   0.08467   0.48490   0.00000  Uiso   1.00
H75    H     0.57046   0.01294   0.25160   0.00000  Uiso   1.00
H76    H     0.62729   0.12834   0.35030   0.00000  Uiso   1.00
H77    H     0.58418   0.03947   0.33662   0.00000  Uiso   1.00
H78    H     0.51078   0.04599   0.37561   0.00000  Uiso   1.00
H79    H     0.57755   0.04633   0.40459   0.00000  Uiso   1.00
H80    H     0.43001   0.32033   0.24654   0.00000  Uiso   1.00
H81    H     0.33735   0.20657   0.28921   0.00000  Uiso   1.00
H82    H     0.66267   0.12683   0.21073   0.00000  Uiso   1.00
H83    H     0.65138   0.18165   0.42286   0.00000  Uiso   1.00
H84    H     0.34407   0.21064   0.00475   0.00000  Uiso   1.00
H85    H     0.45859   0.14029   0.08751   0.00000  Uiso   1.00
H86    H     0.35436   0.10123   0.39379   0.00000  Uiso   1.00
H87    H     0.39201   0.11272   0.04276   0.00000  Uiso   1.00
N88    N     0.64908   0.18074   0.26416   0.00000  Uiso   1.00
N89    N     0.35092   0.15259   0.23584   0.00000  Uiso   1.00
N90    N     0.58113   0.11548   0.36679   0.00000  Uiso   1.00
O91    O     0.46131   0.23807   0.24633   0.00000  Uiso   1.00
O92    O     0.56191   0.24755   0.25586   0.00000  Uiso   1.00
O93    O     0.42515   0.15960   0.31839   0.00000  Uiso   1.00
O94    O     0.52575   0.16908   0.32793   0.00000  Uiso   1.00
O95    O     0.43809   0.08578   0.24413   0.00000  Uiso   1.00
O96    O     0.53869   0.09526   0.25367   0.00000  Uiso   1.00
O97    O     0.47425   0.16425   0.17207   0.00000  Uiso   1.00
O98    O     0.57485   0.17373   0.18160   0.00000  Uiso   1.00
C99    C     0.84854   0.26668   0.25108   0.00000  Uiso   1.00
C100   C     0.78301   0.13567   0.39853   0.00000  Uiso   1.00
C101   C     0.85743   0.32260   0.25044   0.00000  Uiso   1.00
C102   C     0.80019   0.15513   0.34560   0.00000  Uiso   1.00
C103   C     0.80960   0.01068   0.24822   0.00000  Uiso   1.00
C104   C     0.81828   0.06663   0.24845   0.00000  Uiso   1.00
C105   C     0.86649   0.17029   0.15320   0.00000  Uiso   1.00
C106   C     0.96249   0.19551   0.02220   0.00000  Uiso   1.00
C107   C     0.88495   0.17280   0.09796   0.00000  Uiso   1.00
C108   C     0.72128   0.11204   0.41832   0.00000  Uiso   1.00
C109   C     0.70233   0.10230   0.46995   0.00000  Uiso   1.00
C110   C     0.80837   0.13861   0.48374   0.00000  Uiso   1.00
C111   C     0.74432   0.11819   0.00291   0.00000  Uiso   1.00
C112   C     0.89560   0.05890   0.37134   0.00000  Uiso   1.00
C113   C     0.82829   0.14024   0.43028   0.00000  Uiso   1.00
C114   C     0.85391   0.15624   0.01514   0.00000  Uiso   1.00
C115   C     0.91720   0.17586   0.49231   0.00000  Uiso   1.00
C116   C     0.93582   0.17081   0.44006   0.00000  Uiso   1.00
C117   C     0.89291   0.14504   0.41081   0.00000  Uiso   1.00
C118   C     0.83898   0.15532   0.06827   0.00000  Uiso   1.00
C119   C     0.94659   0.19339   0.07483   0.00000  Uiso   1.00
Cu120  Cu    0.77377   0.16105   0.24435   0.00000  Uiso   1.00
Cu121  Cu    0.89290   0.17228   0.25564   0.00000  Uiso   1.00
H122   H     0.98237   0.20770   0.09735   0.00000  Uiso   1.00
H123   H     0.98735   0.08467   0.48490   0.00000  Uiso   1.00
H124   H     0.90380   0.01294   0.25160   0.00000  Uiso   1.00
H125   H     0.96063   0.12834   0.35030   0.00000  Uiso   1.00
H126   H     0.91751   0.03947   0.33662   0.00000  Uiso   1.00
H127   H     0.84412   0.04599   0.37561   0.00000  Uiso   1.00
H128   H     0.91088   0.04633   0.40459   0.00000  Uiso   1.00
H129   H     0.76334   0.32033   0.24654   0.00000  Uiso   1.00
H130   H     0.67069   0.20657   0.28921   0.00000  Uiso   1.00
H131   H     0.99600   0.12683   0.21073   0.00000  Uiso   1.00
H132   H     0.98472   0.18165   0.42286   0.00000  Uiso   1.00
H133   H     0.67740   0.21064   0.00475   0.00000  Uiso   1.00
H134   H     0.79193   0.14029   0.08751   0.00000  Uiso   1.00
H135   H     0.68769   0.10123   0.39379   0.00000  Uiso   1.00
H136   H     0.72534   0.11272   0.04276   0.00000  Uiso   1.00
N137   N     0.98241   0.18074   0.26416   0.00000  Uiso   1.00
N138   N     0.68426   0.15259   0.23584   0.00000  Uiso   1.00
N139   N     0.91446   0.11548   0.36679   0.00000  Uiso   1.00
O140   O     0.79464   0.23807   0.24633   0.00000  Uiso   1.00
O141   O     0.89524   0.24755   0.25586   0.00000  Uiso   1.00
O142   O     0.75848   0.15960   0.31839   0.00000  Uiso   1.00
O143   O     0.85908   0.16908   0.32793   0.00000  Uiso   1.00
O144   O     0.77142   0.08578   0.24413   0.00000  Uiso   1.00
O145   O     0.87203   0.09526   0.25367   0.00000  Uiso   1.00
O146   O     0.80758   0.16425   0.17207   0.00000  Uiso   1.00
O147   O     0.90819   0.17373   0.18160   0.00000  Uiso   1.00
C148   C     0.18188   0.60002   0.25108   0.00000  Uiso   1.00
C149   C     0.11634   0.46901   0.39853   0.00000  Uiso   1.00
C150   C     0.19076   0.65594   0.25044   0.00000  Uiso   1.00
C151   C     0.13352   0.48847   0.34560   0.00000  Uiso   1.00
C152   C     0.14293   0.34402   0.24822   0.00000  Uiso   1.00
C153   C     0.15161   0.39997   0.24845   0.00000  Uiso   1.00
C154   C     0.19982   0.50362   0.15320   0.00000  Uiso   1.00
C155   C     0.29582   0.52884   0.02220   0.00000  Uiso   1.00
C156   C     0.21828   0.50613   0.09796   0.00000  Uiso   1.00
C157   C     0.05461   0.44538   0.41832   0.00000  Uiso   1.00
C158   C     0.03567   0.43563   0.46995   0.00000  Uiso   1.00
C159   C     0.14170   0.47194   0.48374   0.00000  Uiso   1.00
C160   C     0.07765   0.45152   0.00291   0.00000  Uiso   1.00
C161   C     0.22893   0.39223   0.37134   0.00000  Uiso   1.00
C162   C     0.16163   0.47358   0.43028   0.00000  Uiso   1.00
C163   C     0.18725   0.48958   0.01514   0.00000  Uiso   1.00
C164   C     0.25053   0.50919   0.49231   0.00000  Uiso   1.00
C165   C     0.26915   0.50415   0.44006   0.00000  Uiso   1.00
C166   C     0.22624   0.47837   0.41081   0.00000  Uiso   1.00
C167   C     0.17232   0.48865   0.06827   0.00000  Uiso   1.00
C168   C     0.27993   0.52672   0.07483   0.00000  Uiso   1.00
Cu169  Cu    0.10710   0.49439   0.24435   0.00000  Uiso   1.00
Cu170  Cu    0.22623   0.50561   0.25564   0.00000  Uiso   1.00
H171   H     0.31570   0.54103   0.09735   0.00000  Uiso   1.00
H172   H     0.32068   0.41800   0.48490   0.00000  Uiso   1.00
H173   H     0.23713   0.34627   0.25160   0.00000  Uiso   1.00
H174   H     0.29396   0.46167   0.35030   0.00000  Uiso   1.00
H175   H     0.25084   0.37280   0.33662   0.00000  Uiso   1.00
H176   H     0.17745   0.37932   0.37561   0.00000  Uiso   1.00
H177   H     0.24421   0.37967   0.40459   0.00000  Uiso   1.00
H178   H     0.09668   0.65366   0.24654   0.00000  Uiso   1.00
H179   H     0.00402   0.53991   0.28921   0.00000  Uiso   1.00
H180   H     0.32933   0.46016   0.21073   0.00000  Uiso   1.00
H181   H     0.31805   0.51498   0.42286   0.00000  Uiso   1.00
H182   H     0.01074   0.54397   0.00475   0.00000  Uiso   1.00
H183   H     0.12526   0.47362   0.08751   0.00000  Uiso   1.00
H184   H     0.02102   0.43456   0.39379   0.00000  Uiso   1.00
H185   H     0.05867   0.44605   0.04276   0.00000  Uiso   1.00
N186   N     0.31574   0.51407   0.26416   0.00000  Uiso   1.00
N187   N     0.01759   0.48593   0.23584   0.00000  Uiso   1.00
N188   N     0.24780   0.44881   0.36679   0.00000  Uiso   1.00
O189   O     0.12797   0.57141   0.24633   0.00000  Uiso   1.00
O190   O     0.22858   0.58089   0.25586   0.00000  Uiso   1.00
O191   O     0.09181   0.49293   0.31839   0.00000  Uiso   1.00
O192   O     0.19242   0.50241   0.32793   0.00000  Uiso   1.00
O193   O     0.10476   0.41911   0.24413   0.00000  Uiso   1.00
O194   O     0.20536   0.42859   0.25367   0.00000  Uiso   1.00
O195   O     0.14092   0.49759   0.17207   0.00000  Uiso   1.00
O196   O     0.24152   0.50707   0.18160   0.00000  Uiso   1.00
C197   C     0.51521   0.60002   0.25108   0.00000  Uiso   1.00
C198   C     0.44967   0.46901   0.39853   0.00000  Uiso   1.00
C199   C     0.52410   0.65594   0.25044   0.00000  Uiso   1.00
C200   C     0.46686   0.48847   0.34560   0.00000  Uiso   1.00
C201   C     0.47626   0.34402   0.24822   0.00000  Uiso   1.00
C202   C     0.48495   0.39997   0.24845   0.00000  Uiso   1.00
C203   C     0.53316   0.50362   0.15320   0.00000  Uiso   1.00
C204   C     0.62915   0.52884   0.02220   0.00000  Uiso   1.00
C205   C     0.55162   0.50613   0.09796   0.00000  Uiso   1.00
C206   C     0.38795   0.44538   0.41832   0.00000  Uiso   1.00
C207   C     0.36900   0.43563   0.46995   0.00000  Uiso   1.00
C208   C     0.47503   0.47194   0.48374   0.00000  Uiso   1.00
C209   C     0.41099   0.45152   0.00291   0.00000  Uiso   1.00
C210   C     0.56226   0.39223   0.37134   0.00000  Uiso   1.00
C211   C     0.49496   0.47358   0.43028   0.00000  Uiso   1.00
C212   C     0.52058   0.48958   0.01514   0.00000  Uiso   1.00
C213   C     0.58387   0.50919   0.49231   0.00000  Uiso   1.00
C214   C     0.60249   0.50415   0.44006   0.00000  Uiso   1.00
C215   C     0.55957   0.47837   0.41081   0.00000  Uiso   1.00
C216   C     0.50565   0.48865   0.06827   0.00000  Uiso   1.00
C217   C     0.61326   0.52672   0.07483   0.00000  Uiso   1.00
Cu218  Cu    0.44043   0.49439   0.24435   0.00000  Uiso   1.00
Cu219  Cu    0.55957   0.50561   0.25564   0.00000  Uiso   1.00
H220   H     0.64903   0.54103   0.09735   0.00000  Uiso   1.00
H221   H     0.65401   0.41800   0.48490   0.00000  Uiso   1.00
H222   H     0.57046   0.34627   0.25160   0.00000  Uiso   1.00
H223   H     0.62729   0.46167   0.35030   0.00000  Uiso   1.00
H224   H     0.58418   0.37280   0.33662   0.00000  Uiso   1.00
H225   H     0.51078   0.37932   0.37561   0.00000  Uiso   1.00
H226   H     0.57755   0.37967   0.40459   0.00000  Uiso   1.00
H227   H     0.43001   0.65366   0.24654   0.00000  Uiso   1.00
H228   H     0.33735   0.53991   0.28921   0.00000  Uiso   1.00
H229   H     0.66267   0.46016   0.21073   0.00000  Uiso   1.00
H230   H     0.65138   0.51498   0.42286   0.00000  Uiso   1.00
H231   H     0.34407   0.54397   0.00475   0.00000  Uiso   1.00
H232   H     0.45859   0.47362   0.08751   0.00000  Uiso   1.00
H233   H     0.35436   0.43456   0.39379   0.00000  Uiso   1.00
H234   H     0.39201   0.44605   0.04276   0.00000  Uiso   1.00
N235   N     0.64908   0.51407   0.26416   0.00000  Uiso   1.00
N236   N     0.35092   0.48593   0.23584   0.00000  Uiso   1.00
N237   N     0.58113   0.44881   0.36679   0.00000  Uiso   1.00
O238   O     0.46131   0.57141   0.24633   0.00000  Uiso   1.00
O239   O     0.56191   0.58089   0.25586   0.00000  Uiso   1.00
O240   O     0.42515   0.49293   0.31839   0.00000  Uiso   1.00
O241   O     0.52575   0.50241   0.32793   0.00000  Uiso   1.00
O242   O     0.43809   0.41911   0.24413   0.00000  Uiso   1.00
O243   O     0.53869   0.42859   0.25367   0.00000  Uiso   1.00
O244   O     0.47425   0.49759   0.17207   0.00000  Uiso   1.00
O245   O     0.57485   0.50707   0.18160   0.00000  Uiso   1.00
C246   C     0.84854   0.60002   0.25108   0.00000  Uiso   1.00
C247   C     0.78301   0.46901   0.39853   0.00000  Uiso   1.00
C248   C     0.85743   0.65594   0.25044   0.00000  Uiso   1.00
C249   C     0.80019   0.48847   0.34560   0.00000  Uiso   1.00
C250   C     0.80960   0.34402   0.24822   0.00000  Uiso   1.00
C251   C     0.81828   0.39997   0.24845   0.00000  Uiso   1.00
C252   C     0.86649   0.50362   0.15320   0.00000  Uiso   1.00
C253   C     0.96249   0.52884   0.02220   0.00000  Uiso   1.00
C254   C     0.88495   0.50613   0.09796   0.00000  Uiso   1.00
C255   C     0.72128   0.44538   0.41832   0.00000  Uiso   1.00
C256   C     0.70233   0.43563   0.46995   0.00000  Uiso   1.00
C257   C     0.80837   0.47194   0.48374   0.00000  Uiso   1.00
C258   C     0.74432   0.45152   0.00291   0.00000  Uiso   1.00
C259   C     0.89560   0.39223   0.37134   0.00000  Uiso   1.00
C260   C     0.82829   0.47358   0.43028   0.00000  Uiso   1.00
C261   C     0.85391   0.48958   0.01514   0.00000  Uiso   1.00
C262   C     0.91720   0.50919   0.49231   0.00000  Uiso   1.00
C263   C     0.93582   0.50415   0.44006   0.00000  Uiso   1.00
C264   C     0.89291   0.47837   0.41081   0.00000  Uiso   1.00
C265   C     0.83898   0.48865   0.06827   0.00000  Uiso   1.00
C266   C     0.94659   0.52672   0.07483   0.00000  Uiso   1.00
Cu267  Cu    0.77377   0.49439   0.24435   0.00000  Uiso   1.00
Cu268  Cu    0.89290   0.50561   0.25564   0.00000  Uiso   1.00
H269   H     0.98237   0.54103   0.09735   0.00000  Uiso   1.00
H270   H     0.98735   0.41800   0.48490   0.00000  Uiso   1.00
H271   H     0.90380   0.34627   0.25160   0.00000  Uiso   1.00
H272   H     0.96063   0.46167   0.35030   0.00000  Uiso   1.00
H273   H     0.91751   0.37280   0.33662   0.00000  Uiso   1.00
H274   H     0.84412   0.37932   0.37561   0.00000  Uiso   1.00
H275   H     0.91088   0.37967   0.40459   0.00000  Uiso   1.00
H276   H     0.76334   0.65366   0.24654   0.00000  Uiso   1.00
H277   H     0.67069   0.53991   0.28921   0.00000  Uiso   1.00
H278   H     0.99600   0.46016   0.21073   0.00000  Uiso   1.00
H279   H     0.98472   0.51498   0.42286   0.00000  Uiso   1.00
H280   H     0.67740   0.54397   0.00475   0.00000  Uiso   1.00
H281   H     0.79193   0.47362   0.08751   0.00000  Uiso   1.00
H282   H     0.68769   0.43456   0.39379   0.00000  Uiso   1.00
H283   H     0.72534   0.44605   0.04276   0.00000  Uiso   1.00
N284   N     0.98241   0.51407   0.26416   0.00000  Uiso   1.00
N285   N     0.68426   0.48593   0.23584   0.00000  Uiso   1.00
N286   N     0.91446   0.44881   0.36679   0.00000  Uiso   1.00
O287   O     0.79464   0.57141   0.24633   0.00000  Uiso   1.00
O288   O     0.89524   0.58089   0.25586   0.00000  Uiso   1.00
O289   O     0.75848   0.49293   0.31839   0.00000  Uiso   1.00
O290   O     0.85908   0.50241   0.32793   0.00000  Uiso   1.00
O291   O     0.77142   0.41911   0.24413   0.00000  Uiso   1.00
O292   O     0.87203   0.42859   0.25367   0.00000  Uiso   1.00
O293   O     0.80758   0.49759   0.17207   0.00000  Uiso   1.00
O294   O     0.90819   0.50707   0.18160   0.00000  Uiso   1.00
C295   C     0.18188   0.93335   0.25108   0.00000  Uiso   1.00
C296   C     0.11634   0.80234   0.39853   0.00000  Uiso   1.00
C297   C     0.19076   0.98927   0.25044   0.00000  Uiso   1.00
C298   C     0.13352   0.82180   0.34560   0.00000  Uiso   1.00
C299   C     0.14293   0.67735   0.24822   0.00000  Uiso   1.00
C300   C     0.15161   0.73330   0.24845   0.00000  Uiso   1.00
C301   C     0.19982   0.83696   0.15320   0.00000  Uiso   1.00
C302   C     0.29582   0.86217   0.02220   0.00000  Uiso   1.00
C303   C     0.21828   0.83947   0.09796   0.00000  Uiso   1.00
C304   C     0.05461   0.77871   0.41832   0.00000  Uiso   1.00
C305   C     0.03567   0.76897   0.46995   0.00000  Uiso   1.00
C306   C     0.14170   0.80528   0.48374   0.00000  Uiso   1.00
C307   C     0.07765   0.78486   0.00291   0.00000  Uiso   1.00
C308   C     0.22893   0.72557   0.37134   0.00000  Uiso   1.00
C309   C     0.16163   0.80691   0.43028   0.00000  Uiso   1.00
C310   C     0.18725   0.82291   0.01514   0.00000  Uiso   1.00
C311   C     0.25053   0.84252   0.49231   0.00000  Uiso   1.00
C312   C     0.26915   0.83748   0.44006   0.00000  Uiso   1.00
C313   C     0.22624   0.81170   0.41081   0.00000  Uiso   1.00
C314   C     0.17232   0.82198   0.06827   0.00000  Uiso   1.00
C315   C     0.27993   0.86005   0.07483   0.00000  Uiso   1.00
Cu316  Cu    0.10710   0.82772   0.24435   0.00000  Uiso   1.00
Cu317  Cu    0.22623   0.83895   0.25564   0.00000  Uiso   1.00
H318   H     0.31570   0.87436   0.09735   0.00000  Uiso   1.00
H319   H     0.32068   0.75133   0.48490   0.00000  Uiso   1.00
H320   H     0.23713   0.67961   0.25160   0.00000  Uiso   1.00
H321   H     0.29396   0.79500   0.35030   0.00000  Uiso   1.00
H322   H     0.25084   0.70614   0.33662   0.00000  Uiso   1.00
H323   H     0.17745   0.71266   0.37561   0.00000  Uiso   1.00
H324   H     0.24421   0.71300   0.40459   0.00000  Uiso   1.00
H325   H     0.09668   0.98699   0.24654   0.00000  Uiso   1.00
H326   H     0.00402   0.87324   0.28921   0.00000  Uiso   1.00
H327   H     0.32933   0.79350   0.21073   0.00000  Uiso   1.00
H328   H     0.31805   0.84831   0.42286   0.00000  Uiso   1.00
H329   H     0.01074   0.87731   0.00475   0.00000  Uiso   1.00
H330   H     0.12526   0.80695   0.08751   0.00000  Uiso   1.00
H331   H     0.02102   0.76789   0.39379   0.00000  Uiso   1.00
H332   H     0.05867   0.77938   0.04276   0.00000  Uiso   1.00
N333   N     0.31574   0.84741   0.26416   0.00000  Uiso   1.00
N334   N     0.01759   0.81926   0.23584   0.00000  Uiso   1.00
N335   N     0.24780   0.78215   0.36679   0.00000  Uiso   1.00
O336   O     0.12797   0.90474   0.24633   0.00000  Uiso   1.00
O337   O     0.22858   0.91422   0.25586   0.00000  Uiso   1.00
O338   O     0.09181   0.82627   0.31839   0.00000  Uiso   1.00
O339   O     0.19242   0.83575   0.32793   0.00000  Uiso   1.00
O340   O     0.10476   0.75245   0.24413   0.00000  Uiso   1.00
O341   O     0.20536   0.76193   0.25367   0.00000  Uiso   1.00
O342   O     0.14092   0.83092   0.17207   0.00000  Uiso   1.00
O343   O     0.24152   0.84040   0.18160   0.00000  Uiso   1.00
C344   C     0.51521   0.93335   0.25108   0.00000  Uiso   1.00
C345   C     0.44967   0.80234   0.39853   0.00000  Uiso   1.00
C346   C     0.52410   0.98927   0.25044   0.00000  Uiso   1.00
C347   C     0.46686   0.82180   0.34560   0.00000  Uiso   1.00
C348   C     0.47626   0.67735   0.24822   0.00000  Uiso   1.00
C349   C     0.48495   0.73330   0.24845   0.00000  Uiso   1.00
C350   C     0.53316   0.83696   0.15320   0.00000  Uiso   1.00
C351   C     0.62915   0.86217   0.02220   0.00000  Uiso   1.00
C352   C     0.55162   0.83947   0.09796   0.00000  Uiso   1.00
C353   C     0.38795   0.77871   0.41832   0.00000  Uiso   1.00
C354   C     0.36900   0.76897   0.46995   0.00000  Uiso   1.00
C355   C     0.47503   0.80528   0.48374   0.00000  Uiso   1.00
C356   C     0.41099   0.78486   0.00291   0.00000  Uiso   1.00
C357   C     0.56226   0.72557   0.37134   0.00000  Uiso   1.00
C358   C     0.49496   0.80691   0.43028   0.00000  Uiso   1.00
C359   C     0.52058   0.82291   0.01514   0.00000  Uiso   1.00
C360   C     0.58387   0.84252   0.49231   0.00000  Uiso   1.00
C361   C     0.60249   0.83748   0.44006   0.00000  Uiso   1.00
C362   C     0.55957   0.81170   0.41081   0.00000  Uiso   1.00
C363   C     0.50565   0.82198   0.06827   0.00000  Uiso   1.00
C364   C     0.61326   0.86005   0.07483   0.00000  Uiso   1.00
Cu365  Cu    0.44043   0.82772   0.24435   0.00000  Uiso   1.00
Cu366  Cu    0.55957   0.83895   0.25564   0.00000  Uiso   1.00
H367   H     0.64903   0.87436   0.09735   0.00000  Uiso   1.00
H368   H     0.65401   0.75133   0.48490   0.00000  Uiso   1.00
H369   H     0.57046   0.67961   0.25160   0.00000  Uiso   1.00
H370   H     0.62729   0.79500   0.35030   0.00000  Uiso   1.00
H371   H     0.58418   0.70614   0.33662   0.00000  Uiso   1.00
H372   H     0.51078   0.71266   0.37561   0.00000  Uiso   1.00
H373   H     0.57755   0.71300   0.40459   0.00000  Uiso   1.00
H374   H     0.43001   0.98699   0.24654   0.00000  Uiso   1.00
H375   H     0.33735   0.87324   0.28921   0.00000  Uiso   1.00
H376   H     0.66267   0.79350   0.21073   0.00000  Uiso   1.00
H377   H     0.65138   0.84831   0.42286   0.00000  Uiso   1.00
H378   H     0.34407   0.87731   0.00475   0.00000  Uiso   1.00
H379   H     0.45859   0.80695   0.08751   0.00000  Uiso   1.00
H380   H     0.35436   0.76789   0.39379   0.00000  Uiso   1.00
H381   H     0.39201   0.77938   0.04276   0.00000  Uiso   1.00
N382   N     0.64908   0.84741   0.26416   0.00000  Uiso   1.00
N383   N     0.35092   0.81926   0.23584   0.00000  Uiso   1.00
N384   N     0.58113   0.78215   0.36679   0.00000  Uiso   1.00
O385   O     0.46131   0.90474   0.24633   0.00000  Uiso   1.00
O386   O     0.56191   0.91422   0.25586   0.00000  Uiso   1.00
O387   O     0.42515   0.82627   0.31839   0.00000  Uiso   1.00
O388   O     0.52575   0.83575   0.32793   0.00000  Uiso   1.00
O389   O     0.43809   0.75245   0.24413   0.00000  Uiso   1.00
O390   O     0.53869   0.76193   0.25367   0.00000  Uiso   1.00
O391   O     0.47425   0.83092   0.17207   0.00000  Uiso   1.00
O392   O     0.57485   0.84040   0.18160   0.00000  Uiso   1.00
C393   C     0.84854   0.93335   0.25108   0.00000  Uiso   1.00
C394   C     0.78301   0.80234   0.39853   0.00000  Uiso   1.00
C395   C     0.85743   0.98927   0.25044   0.00000  Uiso   1.00
C396   C     0.80019   0.82180   0.34560   0.00000  Uiso   1.00
C397   C     0.80960   0.67735   0.24822   0.00000  Uiso   1.00
C398   C     0.81828   0.73330   0.24845   0.00000  Uiso   1.00
C399   C     0.86649   0.83696   0.15320   0.00000  Uiso   1.00
C400   C     0.96249   0.86217   0.02220   0.00000  Uiso   1.00
C401   C     0.88495   0.83947   0.09796   0.00000  Uiso   1.00
C402   C     0.72128   0.77871   0.41832   0.00000  Uiso   1.00
C403   C     0.70233   0.76897   0.46995   0.00000  Uiso   1.00
C404   C     0.80837   0.80528   0.48374   0.00000  Uiso   1.00
C405   C     0.74432   0.78486   0.00291   0.00000  Uiso   1.00
C406   C     0.89560   0.72557   0.37134   0.00000  Uiso   1.00
C407   C     0.82829   0.80691   0.43028   0.00000  Uiso   1.00
C408   C     0.85391   0.82291   0.01514   0.00000  Uiso   1.00
C409   C     0.91720   0.84252   0.49231   0.00000  Uiso   1.00
C410   C     0.93582   0.83748   0.44006   0.00000  Uiso   1.00
C411   C     0.89291   0.81170   0.41081   0.00000  Uiso   1.00
C412   C     0.83898   0.82198   0.06827   0.00000  Uiso   1.00
C413   C     0.94659   0.86005   0.07483   0.00000  Uiso   1.00
Cu414  Cu    0.77377   0.82772   0.24435   0.00000  Uiso   1.00
Cu415  Cu    0.89290   0.83895   0.25564   0.00000  Uiso   1.00
H416   H     0.98237   0.87436   0.09735   0.00000  Uiso   1.00
H417   H     0.98735   0.75133   0.48490   0.00000  Uiso   1.00
H418   H     0.90380   0.67961   0.25160   0.00000  Uiso   1.00
H419   H     0.96063   0.79500   0.35030   0.00000  Uiso   1.00
H420   H     0.91751   0.70614   0.33662   0.00000  Uiso   1.00
H421   H     0.84412   0.71266   0.37561   0.00000  Uiso   1.00
H422   H     0.91088   0.71300   0.40459   0.00000  Uiso   1.00
H423   H     0.76334   0.98699   0.24654   0.00000  Uiso   1.00
H424   H     0.67069   0.87324   0.28921   0.00000  Uiso   1.00
H425   H     0.99600   0.79350   0.21073   0.00000  Uiso   1.00
H426   H     0.98472   0.84831   0.42286   0.00000  Uiso   1.00
H427   H     0.67740   0.87731   0.00475   0.00000  Uiso   1.00
H428   H     0.79193   0.80695   0.08751   0.00000  Uiso   1.00
H429   H     0.68769   0.76789   0.39379   0.00000  Uiso   1.00
H430   H     0.72534   0.77938   0.04276   0.00000  Uiso   1.00
N431   N     0.98241   0.84741   0.26416   0.00000  Uiso   1.00
N432   N     0.68426   0.81926   0.23584   0.00000  Uiso   1.00
N433   N     0.91446   0.78215   0.36679   0.00000  Uiso   1.00
O434   O     0.79464   0.90474   0.24633   0.00000  Uiso   1.00
O435   O     0.89524   0.91422   0.25586   0.00000  Uiso   1.00
O436   O     0.75848   0.82627   0.31839   0.00000  Uiso   1.00
O437   O     0.85908   0.83575   0.32793   0.00000  Uiso   1.00
O438   O     0.77142   0.75245   0.24413   0.00000  Uiso   1.00
O439   O     0.87203   0.76193   0.25367   0.00000  Uiso   1.00
O440   O     0.80758   0.83092   0.17207   0.00000  Uiso   1.00
O441   O     0.90819   0.84040   0.18160   0.00000  Uiso   1.00
C442   C     0.18188   0.26668   0.75108   0.00000  Uiso   1.00
C443   C     0.11634   0.13567   0.89853   0.00000  Uiso   1.00
C444   C     0.19076   0.32260   0.75044   0.00000  Uiso   1.00
C445   C     0.13352   0.15513   0.84560   0.00000  Uiso   1.00
C446   C     0.14293   0.01068   0.74822   0.00000  Uiso   1.00
C447   C     0.15161   0.06663   0.74845   0.00000  Uiso   1.00
C448   C     0.19982   0.17029   0.65320   0.00000  Uiso   1.00
C449   C     0.29582   0.19551   0.52220   0.00000  Uiso   1.00
C450   C     0.21828   0.17280   0.59796   0.00000  Uiso   1.00
C451   C     0.05461   0.11204   0.91832   0.00000  Uiso   1.00
C452   C     0.03567   0.10230   0.96995   0.00000  Uiso   1.00
C453   C     0.14170   0.13861   0.98374   0.00000  Uiso   1.00
C454   C     0.07765   0.11819   0.50291   0.00000  Uiso   1.00
C455   C     0.22893   0.05890   0.87134   0.00000  Uiso   1.00
C456   C     0.16163   0.14024   0.93028   0.00000  Uiso   1.00
C457   C     0.18725   0.15624   0.51514   0.00000  Uiso   1.00
C458   C     0.25053   0.17586   0.99231   0.00000  Uiso   1.00
C459   C     0.26915   0.17081   0.94006   0.00000  Uiso   1.00
C460   C     0.22624   0.14504   0.91081   0.00000  Uiso   1.00
C461   C     0.17232   0.15532   0.56827   0.00000  Uiso   1.00
C462   C     0.27993   0.19339   0.57483   0.00000  Uiso   1.00
Cu463  Cu    0.10710   0.16105   0.74435   0.00000  Uiso   1.00
Cu464  Cu    0.22623   0.17228   0.75564   0.00000  Uiso   1.00
H465   H     0.31570   0.20770   0.59735   0.00000  Uiso   1.00
H466   H     0.32068   0.08467   0.98490   0.00000  Uiso   1.00
H467   H     0.23713   0.01294   0.75160   0.00000  Uiso   1.00
H468   H     0.29396   0.12834   0.85030   0.00000  Uiso   1.00
H469   H     0.25084   0.03947   0.83662   0.00000  Uiso   1.00
H470   H     0.17745   0.04599   0.87561   0.00000  Uiso   1.00
H471   H     0.24421   0.04633   0.90459   0.00000  Uiso   1.00
H472   H     0.09668   0.32033   0.74654   0.00000  Uiso   1.00
H473   H     0.00402   0.20657   0.78921   0.00000  Uiso   1.00
H474   H     0.32933   0.12683   0.71073   0.00000  Uiso   1.00
H475   H     0.31805   0.18165   0.92286   0.00000  Uiso   1.00
H476   H     0.01074   0.21064   0.50475   0.00000  Uiso   1.00
H477   H     0.12526   0.14029   0.58751   0.00000  Uiso   1.00
H478   H     0.02102   0.10123   0.89379   0.00000  Uiso   1.00
H479   H     0.05867   0.11272   0.54276   0.00000  Uiso   1.00
N480   N     0.31574   0.18074   0.76416   0.00000  Uiso   1.00
N481   N     0.01759   0.15259   0.73584   0.00000  Uiso   1.00
N482   N     0.24780   0.11548   0.86679   0.00000  Uiso   1.00
O483   O     0.12797   0.23807   0.74633   0.00000  Uiso   1.00
O484   O     0.22858   0.24755   0.75586   0.00000  Uiso   1.00
O485   O     0.09181   0.15960   0.81839   0.00000  Uiso   1.00
O486   O     0.19242   0.16908   0.82793   0.00000  Uiso   1.00
O487   O     0.10476   0.08578   0.74413   0.00000  Uiso   1.00
O488   O     0.20536   0.09526   0.75367   0.00000  Uiso   1.00
O489   O     0.14092   0.16425   0.67207   0.00000  Uiso   1.00
O490   O     0.24152   0.17373   0.68160   0.00000  Uiso   1.00
C491   C     0.51521   0.26668   0.75108   0.00000  Uiso   1.00
C492   C     0.44967   0.13567   0.89853   0.00000  Uiso   1.00
C493   C     0.52410   0.32260   0.75044   0.00000  Uiso   1.00
C494   C     0.46686   0.15513   0.84560   0.00000  Uiso   1.00
C495   C     0.47626   0.01068   0.74822   0.00000  Uiso   1.00
C496   C     0.48495   0.06663   0.74845   0.00000  Uiso   1.00
C497   C     0.53316   0.17029   0.65320   0.00000  Uiso   1.00
C498   C     0.62915   0.19551   0.52220   0.00000  Uiso   1.00
C499   C     0.55162   0.17280   0.59796   0.00000  Uiso   1.00
C500   C     0.38795   0.11204   0.91832   0.00000  Uiso   1.00
C501   C     0.36900   0.10230   0.96995   0.00000  Uiso   1.00
C502   C     0.47503   0.13861   0.98374   0.00000  Uiso   1.00
C503   C     0.41099   0.11819   0.50291   0.00000  Uiso   1.00
C504   C     0.56226   0.05890   0.87134   0.00000  Uiso   1.00
C505   C     0.49496   0.14024   0.93028   0.00000  Uiso   1.00
C506   C     0.52058   0.15624   0.51514   0.00000  Uiso   1.00
C507   C     0.58387   0.17586   0.99231   0.00000  Uiso   1.00
C508   C     0.60249   0.17081   0.94006   0.00000  Uiso   1.00
C509   C     0.55957   0.14504   0.91081   0.00000  Uiso   1.00
C510   C     0.50565   0.15532   0.56827   0.00000  Uiso   1.00
C511   C     0.61326   0.19339   0.57483   0.00000  Uiso   1.00
Cu512  Cu    0.44043   0.16105   0.74435   0.00000  Uiso   1.00
Cu513  Cu    0.55957   0.17228   0.75564   0.00000  Uiso   1.00
H514   H     0.64903   0.20770   0.59735   0.00000  Uiso   1.00
H515   H     0.65401   0.08467   0.98490   0.00000  Uiso   1.00
H516   H     0.57046   0.01294   0.75160   0.00000  Uiso   1.00
H517   H     0.62729   0.12834   0.85030   0.00000  Uiso   1.00
H518   H     0.58418   0.03947   0.83662   0.00000  Uiso   1.00
H519   H     0.51078   0.04599   0.87561   0.00000  Uiso   1.00
H520   H     0.57755   0.04633   0.90459   0.00000  Uiso   1.00
H521   H     0.43001   0.32033   0.74654   0.00000  Uiso   1.00
H522   H     0.33735   0.20657   0.78921   0.00000  Uiso   1.00
H523   H     0.66267   0.12683   0.71073   0.00000  Uiso   1.00
H524   H     0.65138   0.18165   0.92286   0.00000  Uiso   1.00
H525   H     0.34407   0.21064   0.50475   0.00000  Uiso   1.00
H526   H     0.45859   0.14029   0.58751   0.00000  Uiso   1.00
H527   H     0.35436   0.10123   0.89379   0.00000  Uiso   1.00
H528   H     0.39201   0.11272   0.54276   0.00000  Uiso   1.00
N529   N     0.64908   0.18074   0.76416   0.00000  Uiso   1.00
N530   N     0.35092   0.15259   0.73584   0.00000  Uiso   1.00
N531   N     0.58113   0.11548   0.86679   0.00000  Uiso   1.00
O532   O     0.46131   0.23807   0.74633   0.00000  Uiso   1.00
O533   O     0.56191   0.24755   0.75586   0.00000  Uiso   1.00
O534   O     0.42515   0.15960   0.81839   0.00000  Uiso   1.00
O535   O     0.52575   0.16908   0.82793   0.00000  Uiso   1.00
O536   O     0.43809   0.08578   0.74413   0.00000  Uiso   1.00
O537   O     0.53869   0.09526   0.75367   0.00000  Uiso   1.00
O538   O     0.47425   0.16425   0.67207   0.00000  Uiso   1.00
O539   O     0.57485   0.17373   0.68160   0.00000  Uiso   1.00
C540   C     0.84854   0.26668   0.75108   0.00000  Uiso   1.00
C541   C     0.78301   0.13567   0.89853   0.00000  Uiso   1.00
C542   C     0.85743   0.32260   0.75044   0.00000  Uiso   1.00
C543   C     0.80019   0.15513   0.84560   0.00000  Uiso   1.00
C544   C     0.80960   0.01068   0.74822   0.00000  Uiso   1.00
C545   C     0.81828   0.06663   0.74845   0.00000  Uiso   1.00
C546   C     0.86649   0.17029   0.65320   0.00000  Uiso   1.00
C547   C     0.96249   0.19551   0.52220   0.00000  Uiso   1.00
C548   C     0.88495   0.17280   0.59796   0.00000  Uiso   1.00
C549   C     0.72128   0.11204   0.91832   0.00000  Uiso   1.00
C550   C     0.70233   0.10230   0.96995   0.00000  Uiso   1.00
C551   C     0.80837   0.13861   0.98374   0.00000  Uiso   1.00
C552   C     0.74432   0.11819   0.50291   0.00000  Uiso   1.00
C553   C     0.89560   0.05890   0.87134   0.00000  Uiso   1.00
C554   C     0.82829   0.14024   0.93028   0.00000  Uiso   1.00
C555   C     0.85391   0.15624   0.51514   0.00000  Uiso   1.00
C556   C     0.91720   0.17586   0.99231   0.00000  Uiso   1.00
C557   C     0.93582   0.17081   0.94006   0.00000  Uiso   1.00
C558   C     0.89291   0.14504   0.91081   0.00000  Uiso   1.00
C559   C     0.83898   0.15532   0.56827   0.00000  Uiso   1.00
C560   C     0.94659   0.19339   0.57483   0.00000  Uiso   1.00
Cu561  Cu    0.77377   0.16105   0.74435   0.00000  Uiso   1.00
Cu562  Cu    0.89290   0.17228   0.75564   0.00000  Uiso   1.00
H563   H     0.98237   0.20770   0.59735   0.00000  Uiso   1.00
H564   H     0.98735   0.08467   0.98490   0.00000  Uiso   1.00
H565   H     0.90380   0.01294   0.75160   0.00000  Uiso   1.00
H566   H     0.96063   0.12834   0.85030   0.00000  Uiso   1.00
H567   H     0.91751   0.03947   0.83662   0.00000  Uiso   1.00
H568   H     0.84412   0.04599   0.87561   0.00000  Uiso   1.00
H569   H     0.91088   0.04633   0.90459   0.00000  Uiso   1.00
H570   H     0.76334   0.32033   0.74654   0.00000  Uiso   1.00
H571   H     0.67069   0.20657   0.78921   0.00000  Uiso   1.00
H572   H     0.99600   0.12683   0.71073   0.00000  Uiso   1.00
H573   H     0.98472   0.18165   0.92286   0.00000  Uiso   1.00
H574   H     0.67740   0.21064   0.50475   0.00000  Uiso   1.00
H575   H     0.79193   0.14029   0.58751   0.00000  Uiso   1.00
H576   H     0.68769   0.10123   0.89379   0.00000  Uiso   1.00
H577   H     0.72534   0.11272   0.54276   0.00000  Uiso   1.00
N578   N     0.98241   0.18074   0.76416   0.00000  Uiso   1.00
N579   N     0.68426   0.15259   0.73584   0.00000  Uiso   1.00
N580   N     0.91446   0.11548   0.86679   0.00000  Uiso   1.00
O581   O     0.79464   0.23807   0.74633   0.00000  Uiso   1.00
O582   O     0.89524   0.24755   0.75586   0.00000  Uiso   1.00
O583   O     0.75848   0.15960   0.81839   0.00000  Uiso   1.00
O584   O     0.85908   0.16908   0.82793   0.00000  Uiso   1.00
O585   O     0.77142   0.08578   0.74413   0.00000  Uiso   1.00
O586   O     0.87203   0.09526   0.75367   0.00000  Uiso   1.00
O587   O     0.80758   0.16425   0.67207   0.00000  Uiso   1.00
O588   O     0.90819   0.17373   0.68160   0.00000  Uiso   1.00
C589   C     0.18188   0.60002   0.75108   0.00000  Uiso   1.00
C590   C     0.11634   0.46901   0.89853   0.00000  Uiso   1.00
C591   C     0.19076   0.65594   0.75044   0.00000  Uiso   1.00
C592   C     0.13352   0.48847   0.84560   0.00000  Uiso   1.00
C593   C     0.14293   0.34402   0.74822   0.00000  Uiso   1.00
C594   C     0.15161   0.39997   0.74845   0.00000  Uiso   1.00
C595   C     0.19982   0.50362   0.65320   0.00000  Uiso   1.00
C596   C     0.29582   0.52884   0.52220   0.00000  Uiso   1.00
C597   C     0.21828   0.50613   0.59796   0.00000  Uiso   1.00
C598   C     0.05461   0.44538   0.91832   0.00000  Uiso   1.00
C599   C     0.03567   0.43563   0.96995   0.00000  Uiso   1.00
C600   C     0.14170   0.47194   0.98374   0.00000  Uiso   1.00
C601   C     0.07765   0.45152   0.50291   0.00000  Uiso   1.00
C602   C     0.22893   0.39223   0.87134   0.00000  Uiso   1.00
C603   C     0.16163   0.47358   0.93028   0.00000  Uiso   1.00
C604   C     0.18725   0.48958   0.51514   0.00000  Uiso   1.00
C605   C     0.25053   0.50919   0.99231   0.00000  Uiso   1.00
C606   C     0.26915   0.50415   0.94006   0.00000  Uiso   1.00
C607   C     0.22624   0.47837   0.91081   0.00000  Uiso   1.00
C608   C     0.17232   0.48865   0.56827   0.00000  Uiso   1.00
C609   C     0.27993   0.52672   0.57483   0.00000  Uiso   1.00
Cu610  Cu    0.10710   0.49439   0.74435   0.00000  Uiso   1.00
Cu611  Cu    0.22623   0.50561   0.75564   0.00000  Uiso   1.00
H612   H     0.31570   0.54103   0.59735   0.00000  Uiso   1.00
H613   H     0.32068   0.41800   0.98490   0.00000  Uiso   1.00
H614   H     0.23713   0.34627   0.75160   0.00000  Uiso   1.00
H615   H     0.29396   0.46167   0.85030   0.00000  Uiso   1.00
H616   H     0.25084   0.37280   0.83662   0.00000  Uiso   1.00
H617   H     0.17745   0.37932   0.87561   0.00000  Uiso   1.00
H618   H     0.24421   0.37967   0.90459   0.00000  Uiso   1.00
H619   H     0.09668   0.65366   0.74654   0.00000  Uiso   1.00
H620   H     0.00402   0.53991   0.78921   0.00000  Uiso   1.00
H621   H     0.32933   0.46016   0.71073   0.00000  Uiso   1.00
H622   H     0.31805   0.51498   0.92286   0.00000  Uiso   1.00
H623   H     0.01074   0.54397   0.50475   0.00000  Uiso   1.00
H624   H     0.12526   0.47362   0.58751   0.00000  Uiso   1.00
H625   H     0.02102   0.43456   0.89379   0.00000  Uiso   1.00
H626   H     0.05867   0.44605   0.54276   0.00000  Uiso   1.00
N627   N     0.31574   0.51407   0.76416   0.00000  Uiso   1.00
N628   N     0.01759   0.48593   0.73584   0.00000  Uiso   1.00
N629   N     0.24780   0.44881   0.86679   0.00000  Uiso   1.00
O630   O     0.12797   0.57141   0.74633   0.00000  Uiso   1.00
O631   O     0.22858   0.58089   0.75586   0.00000  Uiso   1.00
O632   O     0.09181   0.49293   0.81839   0.00000  Uiso   1.00
O633   O     0.19242   0.50241   0.82793   0.00000  Uiso   1.00
O634   O     0.10476   0.41911   0.74413   0.00000  Uiso   1.00
O635   O     0.20536   0.42859   0.75367   0.00000  Uiso   1.00
O636   O     0.14092   0.49759   0.67207   0.00000  Uiso   1.00
O637   O     0.24152   0.50707   0.68160   0.00000  Uiso   1.00
C638   C     0.51521   0.60002   0.75108   0.00000  Uiso   1.00
C639   C     0.44967   0.46901   0.89853   0.00000  Uiso   1.00
C640   C     0.52410   0.65594   0.75044   0.00000  Uiso   1.00
C641   C     0.46686   0.48847   0.84560   0.00000  Uiso   1.00
C642   C     0.47626   0.34402   0.74822   0.00000  Uiso   1.00
C643   C     0.48495   0.39997   0.74845   0.00000  Uiso   1.00
C644   C     0.53316   0.50362   0.65320   0.00000  Uiso   1.00
C645   C     0.62915   0.52884   0.52220   0.00000  Uiso   1.00
C646   C     0.55162   0.50613   0.59796   0.00000  Uiso   1.00
C647   C     0.38795   0.44538   0.91832   0.00000  Uiso   1.00
C648   C     0.36900   0.43563   0.96995   0.00000  Uiso   1.00
C649   C     0.47503   0.47194   0.98374   0.00000  Uiso   1.00
C650   C     0.41099   0.45152   0.50291   0.00000  Uiso   1.00
C651   C     0.56226   0.39223   0.87134   0.00000  Uiso   1.00
C652   C     0.49496   0.47358   0.93028   0.00000  Uiso   1.00
C653   C     0.52058   0.48958   0.51514   0.00000  Uiso   1.00
C654   C     0.58387   0.50919   0.99231   0.00000  Uiso   1.00
C655   C     0.60249   0.50415   0.94006   0.00000  Uiso   1.00
C656   C     0.55957   0.47837   0.91081   0.00000  Uiso   1.00
C657   C     0.50565   0.48865   0.56827   0.00000  Uiso   1.00
C658   C     0.61326   0.52672   0.57483   0.00000  Uiso   1.00
Cu659  Cu    0.44043   0.49439   0.74435   0.00000  Uiso   1.00
Cu660  Cu    0.55957   0.50561   0.75564   0.00000  Uiso   1.00
H661   H     0.64903   0.54103   0.59735   0.00000  Uiso   1.00
H662   H     0.65401   0.41800   0.98490   0.00000  Uiso   1.00
H663   H     0.57046   0.34627   0.75160   0.00000  Uiso   1.00
H664   H     0.62729   0.46167   0.85030   0.00000  Uiso   1.00
H665   H     0.58418   0.37280   0.83662   0.00000  Uiso   1.00
H666   H     0.51078   0.37932   0.87561   0.00000  Uiso   1.00
H667   H     0.57755   0.37967   0.90459   0.00000  Uiso   1.00
H668   H     0.43001   0.65366   0.74654   0.00000  Uiso   1.00
H669   H     0.33735   0.53991   0.78921   0.00000  Uiso   1.00
H670   H     0.66267   0.46016   0.71073   0.00000  Uiso   1.00
H671   H     0.65138   0.51498   0.92286   0.00000  Uiso   1.00
H672   H     0.34407   0.54397   0.50475   0.00000  Uiso   1.00
H673   H     0.45859   0.47362   0.58751   0.00000  Uiso   1.00
H674   H     0.35436   0.43456   0.89379   0.00000  Uiso   1.00
H675   H     0.39201   0.44605   0.54276   0.00000  Uiso   1.00
N676   N     0.64908   0.51407   0.76416   0.00000  Uiso   1.00
N677   N     0.35092   0.48593   0.73584   0.00000  Uiso   1.00
N678   N     0.58113   0.44881   0.86679   0.00000  Uiso   1.00
O679   O     0.46131   0.57141   0.74633   0.00000  Uiso   1.00
O680   O     0.56191   0.58089   0.75586   0.00000  Uiso   1.00
O681   O     0.42515   0.49293   0.81839   0.00000  Uiso   1.00
O682   O     0.52575   0.50241   0.82793   0.00000  Uiso   1.00
O683   O     0.43809   0.41911   0.74413   0.00000  Uiso   1.00
O684   O     0.53869   0.42859   0.75367   0.00000  Uiso   1.00
O685   O     0.47425   0.49759   0.67207   0.00000  Uiso   1.00
O686   O     0.57485   0.50707   0.68160   0.00000  Uiso   1.00
C687   C     0.84854   0.60002   0.75108   0.00000  Uiso   1.00
C688   C     0.78301   0.46901   0.89853   0.00000  Uiso   1.00
C689   C     0.85743   0.65594   0.75044   0.00000  Uiso   1.00
C690   C     0.80019   0.48847   0.84560   0.00000  Uiso   1.00
C691   C     0.80960   0.34402   0.74822   0.00000  Uiso   1.00
C692   C     0.81828   0.39997   0.74845   0.00000  Uiso   1.00
C693   C     0.86649   0.50362   0.65320   0.00000  Uiso   1.00
C694   C     0.96249   0.52884   0.52220   0.00000  Uiso   1.00
C695   C     0.88495   0.50613   0.59796   0.00000  Uiso   1.00
C696   C     0.72128   0.44538   0.91832   0.00000  Uiso   1.00
C697   C     0.70233   0.43563   0.96995   0.00000  Uiso   1.00
C698   C     0.80837   0.47194   0.98374   0.00000  Uiso   1.00
C699   C     0.74432   0.45152   0.50291   0.00000  Uiso   1.00
C700   C     0.89560   0.39223   0.87134   0.00000  Uiso   1.00
C701   C     0.82829   0.47358   0.93028   0.00000  Uiso   1.00
C702   C     0.85391   0.48958   0.51514   0.00000  Uiso   1.00
C703   C     0.91720   0.50919   0.99231   0.00000  Uiso   1.00
C704   C     0.93582   0.50415   0.94006   0.00000  Uiso   1.00
C705   C     0.89291   0.47837   0.91081   0.00000  Uiso   1.00
C706   C     0.83898   0.48865   0.56827   0.00000  Uiso   1.00
C707   C     0.94659   0.52672   0.57483   0.00000  Uiso   1.00
Cu708  Cu    0.77377   0.49439   0.74435   0.00000  Uiso   1.00
Cu709  Cu    0.89290   0.50561   0.75564   0.00000  Uiso   1.00
H710   H     0.98237   0.54103   0.59735   0.00000  Uiso   1.00
H711   H     0.98735   0.41800   0.98490   0.00000  Uiso   1.00
H712   H     0.90380   0.34627   0.75160   0.00000  Uiso   1.00
H713   H     0.96063   0.46167   0.85030   0.00000  Uiso   1.00
H714   H     0.91751   0.37280   0.83662   0.00000  Uiso   1.00
H715   H     0.84412   0.37932   0.87561   0.00000  Uiso   1.00
H716   H     0.91088   0.37967   0.90459   0.00000  Uiso   1.00
H717   H     0.76334   0.65366   0.74654   0.00000  Uiso   1.00
H718   H     0.67069   0.53991   0.78921   0.00000  Uiso   1.00
H719   H     0.99600   0.46016   0.71073   0.00000  Uiso   1.00
H720   H     0.98472   0.51498   0.92286   0.00000  Uiso   1.00
H721   H     0.67740   0.54397   0.50475   0.00000  Uiso   1.00
H722   H     0.79193   0.47362   0.58751   0.00000  Uiso   1.00
H723   H     0.68769   0.43456   0.89379   0.00000  Uiso   1.00
H724   H     0.72534   0.44605   0.54276   0.00000  Uiso   1.00
N725   N     0.98241   0.51407   0.76416   0.00000  Uiso   1.00
N726   N     0.68426   0.48593   0.73584   0.00000  Uiso   1.00
N727   N     0.91446   0.44881   0.86679   0.00000  Uiso   1.00
O728   O     0.79464   0.57141   0.74633   0.00000  Uiso   1.00
O729   O     0.89524   0.58089   0.75586   0.00000  Uiso   1.00
O730   O     0.75848   0.49293   0.81839   0.00000  Uiso   1.00
O731   O     0.85908   0.50241   0.82793   0.00000  Uiso   1.00
O732   O     0.77142   0.41911   0.74413   0.00000  Uiso   1.00
O733   O     0.87203   0.42859   0.75367   0.00000  Uiso   1.00
O734   O     0.80758   0.49759   0.67207   0.00000  Uiso   1.00
O735   O     0.90819   0.50707   0.68160   0.00000  Uiso   1.00
C736   C     0.18188   0.93335   0.75108   0.00000  Uiso   1.00
C737   C     0.11634   0.80234   0.89853   0.00000  Uiso   1.00
C738   C     0.19076   0.98927   0.75044   0.00000  Uiso   1.00
C739   C     0.13352   0.82180   0.84560   0.00000  Uiso   1.00
C740   C     0.14293   0.67735   0.74822   0.00000  Uiso   1.00
C741   C     0.15161   0.73330   0.74845   0.00000  Uiso   1.00
C742   C     0.19982   0.83696   0.65320   0.00000  Uiso   1.00
C743   C     0.29582   0.86217   0.52220   0.00000  Uiso   1.00
C744   C     0.21828   0.83947   0.59796   0.00000  Uiso   1.00
C745   C     0.05461   0.77871   0.91832   0.00000  Uiso   1.00
C746   C     0.03567   0.76897   0.96995   0.00000  Uiso   1.00
C747   C     0.14170   0.80528   0.98374   0.00000  Uiso   1.00
C748   C     0.07765   0.78486   0.50291   0.00000  Uiso   1.00
C749   C     0.22893   0.72557   0.87134   0.00000  Uiso   1.00
C750   C     0.16163   0.80691   0.93028   0.00000  Uiso   1.00
C751   C     0.18725   0.82291   0.51514   0.00000  Uiso   1.00
C752   C     0.25053   0.84252   0.99231   0.00000  Uiso   1.00
C753   C     0.26915   0.83748   0.94006   0.00000  Uiso   1.00
C754   C     0.22624   0.81170   0.91081   0.00000  Uiso   1.00
C755   C     0.17232   0.82198   0.56827   0.00000  Uiso   1.00
C756   C     0.27993   0.86005   0.57483   0.00000  Uiso   1.00
Cu757  Cu    0.10710   0.82772   0.74435   0.00000  Uiso   1.00
Cu758  Cu    0.22623   0.83895   0.75564   0.00000  Uiso   1.00
H759   H     0.31570   0.87436   0.59735   0.00000  Uiso   1.00
H760   H     0.32068   0.75133   0.98490   0.00000  Uiso   1.00
H761   H     0.23713   0.67961   0.75160   0.00000  Uiso   1.00
H762   H     0.29396   0.79500   0.85030   0.00000  Uiso   1.00
H763   H     0.25084   0.70614   0.83662   0.00000  Uiso   1.00
H764   H     0.17745   0.71266   0.87561   0.00000  Uiso   1.00
H765   H     0.24421   0.71300   0.90459   0.00000  Uiso   1.00
H766   H     0.09668   0.98699   0.74654   0.00000  Uiso   1.00
H767   H     0.00402   0.87324   0.78921   0.00000  Uiso   1.00
H768   H     0.32933   0.79350   0.71073   0.00000  Uiso   1.00
H769   H     0.31805   0.84831   0.92286   0.00000  Uiso   1.00
H770   H     0.01074   0.87731   0.50475   0.00000  Uiso   1.00
H771   H     0.12526   0.80695   0.58751   0.00000  Uiso   1.00
H772   H     0.02102   0.76789   0.89379   0.00000  Uiso   1.00
H773   H     0.05867   0.77938   0.54276   0.00000  Uiso   1.00
N774   N     0.31574   0.84741   0.76416   0.00000  Uiso   1.00
N775   N     0.01759   0.81926   0.73584   0.00000  Uiso   1.00
N776   N     0.24780   0.78215   0.86679   0.00000  Uiso   1.00
O777   O     0.12797   0.90474   0.74633   0.00000  Uiso   1.00
O778   O     0.22858   0.91422   0.75586   0.00000  Uiso   1.00
O779   O     0.09181   0.82627   0.81839   0.00000  Uiso   1.00
O780   O     0.19242   0.83575   0.82793   0.00000  Uiso   1.00
O781   O     0.10476   0.75245   0.74413   0.00000  Uiso   1.00
O782   O     0.20536   0.76193   0.75367   0.00000  Uiso   1.00
O783   O     0.14092   0.83092   0.67207   0.00000  Uiso   1.00
O784   O     0.24152   0.84040   0.68160   0.00000  Uiso   1.00
C785   C     0.51521   0.93335   0.75108   0.00000  Uiso   1.00
C786   C     0.44967   0.80234   0.89853   0.00000  Uiso   1.00
C787   C     0.52410   0.98927   0.75044   0.00000  Uiso   1.00
C788   C     0.46686   0.82180   0.84560   0.00000  Uiso   1.00
C789   C     0.47626   0.67735   0.74822   0.00000  Uiso   1.00
C790   C     0.48495   0.73330   0.74845   0.00000  Uiso   1.00
C791   C     0.53316   0.83696   0.65320   0.00000  Uiso   1.00
C792   C     0.62915   0.86217   0.52220   0.00000  Uiso   1.00
C793   C     0.55162   0.83947   0.59796   0.00000  Uiso   1.00
C794   C     0.38795   0.77871   0.91832   0.00000  Uiso   1.00
C795   C     0.36900   0.76897   0.96995   0.00000  Uiso   1.00
C796   C     0.47503   0.80528   0.98374   0.00000  Uiso   1.00
C797   C     0.41099   0.78486   0.50291   0.00000  Uiso   1.00
C798   C     0.56226   0.72557   0.87134   0.00000  Uiso   1.00
C799   C     0.49496   0.80691   0.93028   0.00000  Uiso   1.00
C800   C     0.52058   0.82291   0.51514   0.00000  Uiso   1.00
C801   C     0.58387   0.84252   0.99231   0.00000  Uiso   1.00
C802   C     0.60249   0.83748   0.94006   0.00000  Uiso   1.00
C803   C     0.55957   0.81170   0.91081   0.00000  Uiso   1.00
C804   C     0.50565   0.82198   0.56827   0.00000  Uiso   1.00
C805   C     0.61326   0.86005   0.57483   0.00000  Uiso   1.00
Cu806  Cu    0.44043   0.82772   0.74435   0.00000  Uiso   1.00
Cu807  Cu    0.55957   0.83895   0.75564   0.00000  Uiso   1.00
H808   H     0.64903   0.87436   0.59735   0.00000  Uiso   1.00
H809   H     0.65401   0.75133   0.98490   0.00000  Uiso   1.00
H810   H     0.57046   0.67961   0.75160   0.00000  Uiso   1.00
H811   H     0.62729   0.79500   0.85030   0.00000  Uiso   1.00
H812   H     0.58418   0.70614   0.83662   0.00000  Uiso   1.00
H813   H     0.51078   0.71266   0.87561   0.00000  Uiso   1.00
H814   H     0.57755   0.71300   0.90459   0.00000  Uiso   1.00
H815   H     0.43001   0.98699   0.74654   0.00000  Uiso   1.00
H816   H     0.33735   0.87324   0.78921   0.00000  Uiso   1.00
H817   H     0.66267   0.79350   0.71073   0.00000  Uiso   1.00
H818   H     0.65138   0.84831   0.92286   0.00000  Uiso   1.00
H819   H     0.34407   0.87731   0.50475   0.00000  Uiso   1.00
H820   H     0.45859   0.80695   0.58751   0.00000  Uiso   1.00
H821   H     0.35436   0.76789   0.89379   0.00000  Uiso   1.00
H822   H     0.39201   0.77938   0.54276   0.00000  Uiso   1.00
N823   N     0.64908   0.84741   0.76416   0.00000  Uiso   1.00
N824   N     0.35092   0.81926   0.73584   0.00000  Uiso   1.00
N825   N     0.58113   0.78215   0.86679   0.00000  Uiso   1.00
O826   O     0.46131   0.90474   0.74633   0.00000  Uiso   1.00
O827   O     0.56191   0.91422   0.75586   0.00000  Uiso   1.00
O828   O     0.42515   0.82627   0.81839   0.00000  Uiso   1.00
O829   O     0.52575   0.83575   0.82793   0.00000  Uiso   1.00
O830   O     0.43809   0.75245   0.74413   0.00000  Uiso   1.00
O831   O     0.53869   0.76193   0.75367   0.00000  Uiso   1.00
O832   O     0.47425   0.83092   0.67207   0.00000  Uiso   1.00
O833   O     0.57485   0.84040   0.68160   0.00000  Uiso   1.00
C834   C     0.84854   0.93335   0.75108   0.00000  Uiso   1.00
C835   C     0.78301   0.80234   0.89853   0.00000  Uiso   1.00
C836   C     0.85743   0.98927   0.75044   0.00000  Uiso   1.00
C837   C     0.80019   0.82180   0.84560   0.00000  Uiso   1.00
C838   C     0.80960   0.67735   0.74822   0.00000  Uiso   1.00
C839   C     0.81828   0.73330   0.74845   0.00000  Uiso   1.00
C840   C     0.86649   0.83696   0.65320   0.00000  Uiso   1.00
C841   C     0.96249   0.86217   0.52220   0.00000  Uiso   1.00
C842   C     0.88495   0.83947   0.59796   0.00000  Uiso   1.00
C843   C     0.72128   0.77871   0.91832   0.00000  Uiso   1.00
C844   C     0.70233   0.76897   0.96995   0.00000  Uiso   1.00
C845   C     0.80837   0.80528   0.98374   0.00000  Uiso   1.00
C846   C     0.74432   0.78486   0.50291   0.00000  Uiso   1.00
C847   C     0.89560   0.72557   0.87134   0.00000  Uiso   1.00
C848   C     0.82829   0.80691   0.93028   0.00000  Uiso   1.00
C849   C     0.85391   0.82291   0.51514   0.00000  Uiso   1.00
C850   C     0.91720   0.84252   0.99231   0.00000  Uiso   1.00
C851   C     0.93582   0.83748   0.94006   0.00000  Uiso   1.00
C852   C     0.89291   0.81170   0.91081   0.00000  Uiso   1.00
C853   C     0.83898   0.82198   0.56827   0.00000  Uiso   1.00
C854   C     0.94659   0.86005   0.57483   0.00000  Uiso   1.00
Cu855  Cu    0.77377   0.82772   0.74435   0.00000  Uiso   1.00
Cu856  Cu    0.89290   0.83895   0.75564   0.00000  Uiso   1.00
H857   H     0.98237   0.87436   0.59735   0.00000  Uiso   1.00
H858   H     0.98735   0.75133   0.98490   0.00000  Uiso   1.00
H859   H     0.90380   0.67961   0.75160   0.00000  Uiso   1.00
H860   H     0.96063   0.79500   0.85030   0.00000  Uiso   1.00
H861   H     0.91751   0.70614   0.83662   0.00000  Uiso   1.00
H862   H     0.84412   0.71266   0.87561   0.00000  Uiso   1.00
H863   H     0.91088   0.71300   0.90459   0.00000  Uiso   1.00
H864   H     0.76334   0.98699   0.74654   0.00000  Uiso   1.00
H865   H     0.67069   0.87324   0.78921   0.00000  Uiso   1.00
H866   H     0.99600   0.79350   0.71073   0.00000  Uiso   1.00
H867   H     0.98472   0.84831   0.92286   0.00000  Uiso   1.00
H868   H     0.67740   0.87731   0.50475   0.00000  Uiso   1.00
H869   H     0.79193   0.80695   0.58751   0.00000  Uiso   1.00
H870   H     0.68769   0.76789   0.89379   0.00000  Uiso   1.00
H871   H     0.72534   0.77938   0.54276   0.00000  Uiso   1.00
N872   N     0.98241   0.84741   0.76416   0.00000  Uiso   1.00
N873   N     0.68426   0.81926   0.73584   0.00000  Uiso   1.00
N874   N     0.91446   0.78215   0.86679   0.00000  Uiso   1.00
O875   O     0.79464   0.90474   0.74633   0.00000  Uiso   1.00
O876   O     0.89524   0.91422   0.75586   0.00000  Uiso   1.00
O877   O     0.75848   0.82627   0.81839   0.00000  Uiso   1.00
O878   O     0.85908   0.83575   0.82793   0.00000  Uiso   1.00
O879   O     0.77142   0.75245   0.74413   0.00000  Uiso   1.00
O880   O     0.87203   0.76193   0.75367   0.00000  Uiso   1.00
O881   O     0.80758   0.83092   0.67207   0.00000  Uiso   1.00
O882   O     0.90819   0.84040   0.68160   0.00000  Uiso   1.00
loop_
_geom_bond_atom_site_label_1
_geom_bond_atom_site_label_2
_geom_bond_distance
_geom_bond_site_symmetry_2
_ccdc_geom_bond_type
C1     O42     1.293   .     A
C1     O43     1.287   .     A
C1     C3      1.427   .     S
C2     C4      1.491   .     S
C2     C15     1.430   .     A
C2     C10     1.394   .     A
C3     C152    1.327   .     S
C3     H173    1.087   .     S
C4     O45     1.287   .     A
C4     O44     1.324   .     A
C5     C6      1.427   .     S
C5     C297    1.327   1_545 S
C5     H325    1.088   1_545 S
C6     O46     1.287   .     A
C6     O47     1.294   .     A
C7     O48     1.293   .     A
C7     O49     1.303   .     A
C7     C9      1.461   .     S
C8     C21     1.389   .     A
C8     C458    1.403   1_554 S
C8     H84     1.084   .     S
C9     C20     1.403   .     A
C9     C21     1.397   .     A
C10    H37     1.075   .     S
C10    C11     1.391   .     A
C11    C454    1.394   .     S
C11    H123    1.083   1_455 S
C12    C15     1.417   .     A
C12    C454    1.416   .     S
C12    C457    1.428   .     S
C13    H38     1.077   .     S
C13    C453    1.416   1_554 S
C13    C452    1.394   1_554 S
C14    H28     1.109   .     S
C14    H30     1.112   .     S
C14    N41     1.447   .     S
C14    H29     1.111   .     S
C15    C19     1.417   .     A
C16    C20     1.400   .     A
C16    C453    1.428   1_554 S
C16    C458    1.420   1_554 S
C17    C18     1.388   .     A
C17    C457    1.420   .     S
C17    C449    1.403   .     S
C18    H34     1.082   .     S
C18    C19     1.388   .     A
C19    N41     1.427   .     S
C20    H36     1.075   .     S
C21    H24     1.083   .     S
Cu22   O48     1.939   .     S
Cu22   N40     2.024   .     S
Cu22   O42     1.956   .     S
Cu22   O46     1.951   .     S
Cu22   Cu23    2.693   .     S
Cu22   O44     1.951   .     S
Cu23   O45     1.939   .     S
Cu23   N39     2.024   .     S
Cu23   O49     1.951   .     S
Cu23   O47     1.956   .     S
Cu23   O43     1.951   .     S
H25    C60     1.083   .     S
H26    C297    1.087   1_545 S
H27    N41     1.029   .     S
H31    C152    1.088   .     S
H32    N137    1.029   1_455 S
H33    N89     1.029   .     S
H35    C106    1.084   1_455 S
N39    H81     1.029   .     S
N39    N89     1.296   .     S
N40    N137    1.296   1_455 S
N40    H131    1.029   1_455 S
C50    O91     1.293   .     A
C50    O92     1.287   .     A
C50    C52     1.427   .     S
C51    C53     1.491   .     S
C51    C64     1.430   .     A
C51    C59     1.394   .     A
C52    C201    1.327   .     S
C52    H222    1.087   .     S
C53    O94     1.287   .     A
C53    O93     1.324   .     A
C54    C55     1.427   .     S
C54    C346    1.327   1_545 S
C54    H374    1.088   1_545 S
C55    O95     1.287   .     A
C55    O96     1.294   .     A
C56    O97     1.293   .     A
C56    O98     1.303   .     A
C56    C58     1.461   .     S
C57    C70     1.389   .     A
C57    C507    1.403   1_554 S
C57    H133    1.084   .     S
C58    C69     1.403   .     A
C58    C70     1.397   .     A
C59    H86     1.075   .     S
C59    C60     1.391   .     A
C60    C503    1.394   .     S
C61    C64     1.417   .     A
C61    C503    1.416   .     S
C61    C506    1.428   .     S
C62    H87     1.077   .     S
C62    C502    1.416   1_554 S
C62    C501    1.394   1_554 S
C63    H77     1.109   .     S
C63    H79     1.112   .     S
C63    N90     1.447   .     S
C63    H78     1.111   .     S
C64    C68     1.417   .     A
C65    C69     1.400   .     A
C65    C502    1.428   1_554 S
C65    C507    1.420   1_554 S
C66    C67     1.388   .     A
C66    C506    1.420   .     S
C66    C498    1.403   .     S
C67    H83     1.082   .     S
C67    C68     1.388   .     A
C68    N90     1.427   .     S
C69    H85     1.075   .     S
C70    H73     1.083   .     S
Cu71   O97     1.939   .     S
Cu71   N89     2.024   .     S
Cu71   O91     1.956   .     S
Cu71   O95     1.951   .     S
Cu71   Cu72    2.693   .     S
Cu71   O93     1.951   .     S
Cu72   O94     1.939   .     S
Cu72   N88     2.024   .     S
Cu72   O98     1.951   .     S
Cu72   O96     1.956   .     S
Cu72   O92     1.951   .     S
H74    C109    1.083   .     S
H75    C346    1.087   1_545 S
H76    N90     1.029   .     S
H80    C201    1.088   .     S
H82    N138    1.029   .     S
N88    H130    1.029   .     S
N88    N138    1.296   .     S
C99    O140    1.293   .     A
C99    O141    1.287   .     A
C99    C101    1.427   .     S
C100   C102    1.491   .     S
C100   C113    1.430   .     A
C100   C108    1.394   .     A
C101   C250    1.327   .     S
C101   H271    1.087   .     S
C102   O143    1.287   .     A
C102   O142    1.324   .     A
C103   C104    1.427   .     S
C103   C395    1.327   1_545 S
C103   H423    1.088   1_545 S
C104   O144    1.287   .     A
C104   O145    1.294   .     A
C105   O146    1.293   .     A
C105   O147    1.303   .     A
C105   C107    1.461   .     S
C106   C119    1.389   .     A
C106   C556    1.403   1_554 S
C106   H35     1.084   1_655 S
C107   C118    1.403   .     A
C107   C119    1.397   .     A
C108   H135    1.075   .     S
C108   C109    1.391   .     A
C109   C552    1.394   .     S
C110   C113    1.417   .     A
C110   C552    1.416   .     S
C110   C555    1.428   .     S
C111   H136    1.077   .     S
C111   C551    1.416   1_554 S
C111   C550    1.394   1_554 S
C112   H126    1.109   .     S
C112   H128    1.112   .     S
C112   N139    1.447   .     S
C112   H127    1.111   .     S
C113   C117    1.417   .     A
C114   C118    1.400   .     A
C114   C551    1.428   1_554 S
C114   C556    1.420   1_554 S
C115   C116    1.388   .     A
C115   C555    1.420   .     S
C115   C547    1.403   .     S
C116   H132    1.082   .     S
C116   C117    1.388   .     A
C117   N139    1.427   .     S
C118   H134    1.075   .     S
C119   H122    1.083   .     S
Cu120  O146    1.939   .     S
Cu120  N138    2.024   .     S
Cu120  O140    1.956   .     S
Cu120  O144    1.951   .     S
Cu120  Cu121   2.693   .     S
Cu120  O142    1.951   .     S
Cu121  O143    1.939   .     S
Cu121  N137    2.024   .     S
Cu121  O147    1.951   .     S
Cu121  O145    1.956   .     S
Cu121  O141    1.951   .     S
H123   C11     1.083   1_655 S
H124   C395    1.087   1_545 S
H125   N139    1.029   .     S
H129   C250    1.088   .     S
H131   N40     1.029   1_655 S
N137   H32     1.029   1_655 S
N137   N40     1.296   1_655 S
C148   O189    1.293   .     A
C148   O190    1.287   .     A
C148   C150    1.427   .     S
C149   C151    1.491   .     S
C149   C162    1.430   .     A
C149   C157    1.394   .     A
C150   C299    1.327   .     S
C150   H320    1.087   .     S
C151   O192    1.287   .     A
C151   O191    1.324   .     A
C152   C153    1.427   .     S
C153   O193    1.287   .     A
C153   O194    1.294   .     A
C154   O195    1.293   .     A
C154   O196    1.303   .     A
C154   C156    1.461   .     S
C155   C168    1.389   .     A
C155   C605    1.403   1_554 S
C155   H231    1.084   .     S
C156   C167    1.403   .     A
C156   C168    1.397   .     A
C157   H184    1.075   .     S
C157   C158    1.391   .     A
C158   C601    1.394   .     S
C158   H270    1.083   1_455 S
C159   C162    1.417   .     A
C159   C601    1.416   .     S
C159   C604    1.428   .     S
C160   H185    1.077   .     S
C160   C600    1.416   1_554 S
C160   C599    1.394   1_554 S
C161   H175    1.109   .     S
C161   H177    1.112   .     S
C161   N188    1.447   .     S
C161   H176    1.111   .     S
C162   C166    1.417   .     A
C163   C167    1.400   .     A
C163   C600    1.428   1_554 S
C163   C605    1.420   1_554 S
C164   C165    1.388   .     A
C164   C604    1.420   .     S
C164   C596    1.403   .     S
C165   H181    1.082   .     S
C165   C166    1.388   .     A
C166   N188    1.427   .     S
C167   H183    1.075   .     S
C168   H171    1.083   .     S
Cu169  O195    1.939   .     S
Cu169  N187    2.024   .     S
Cu169  O189    1.956   .     S
Cu169  O193    1.951   .     S
Cu169  Cu170   2.693   .     S
Cu169  O191    1.951   .     S
Cu170  O192    1.939   .     S
Cu170  N186    2.024   .     S
Cu170  O196    1.951   .     S
Cu170  O194    1.956   .     S
Cu170  O190    1.951   .     S
H172   C207    1.083   .     S
H174   N188    1.029   .     S
H178   C299    1.088   .     S
H179   N284    1.029   1_455 S
H180   N236    1.029   .     S
H182   C253    1.084   1_455 S
N186   H228    1.029   .     S
N186   N236    1.296   .     S
N187   N284    1.296   1_455 S
N187   H278    1.029   1_455 S
C197   O238    1.293   .     A
C197   O239    1.287   .     A
C197   C199    1.427   .     S
C198   C200    1.491   .     S
C198   C211    1.430   .     A
C198   C206    1.394   .     A
C199   C348    1.327   .     S
C199   H369    1.087   .     S
C200   O241    1.287   .     A
C200   O240    1.324   .     A
C201   C202    1.427   .     S
C202   O242    1.287   .     A
C202   O243    1.294   .     A
C203   O244    1.293   .     A
C203   O245    1.303   .     A
C203   C205    1.461   .     S
C204   C217    1.389   .     A
C204   C654    1.403   1_554 S
C204   H280    1.084   .     S
C205   C216    1.403   .     A
C205   C217    1.397   .     A
C206   H233    1.075   .     S
C206   C207    1.391   .     A
C207   C650    1.394   .     S
C208   C211    1.417   .     A
C208   C650    1.416   .     S
C208   C653    1.428   .     S
C209   H234    1.077   .     S
C209   C649    1.416   1_554 S
C209   C648    1.394   1_554 S
C210   H224    1.109   .     S
C210   H226    1.112   .     S
C210   N237    1.447   .     S
C210   H225    1.111   .     S
C211   C215    1.417   .     A
C212   C216    1.400   .     A
C212   C649    1.428   1_554 S
C212   C654    1.420   1_554 S
C213   C214    1.388   .     A
C213   C653    1.420   .     S
C213   C645    1.403   .     S
C214   H230    1.082   .     S
C214   C215    1.388   .     A
C215   N237    1.427   .     S
C216   H232    1.075   .     S
C217   H220    1.083   .     S
Cu218  O244    1.939   .     S
Cu218  N236    2.024   .     S
Cu218  O238    1.956   .     S
Cu218  O242    1.951   .     S
Cu218  Cu219   2.693   .     S
Cu218  O240    1.951   .     S
Cu219  O241    1.939   .     S
Cu219  N235    2.024   .     S
Cu219  O245    1.951   .     S
Cu219  O243    1.956   .     S
Cu219  O239    1.951   .     S
H221   C256    1.083   .     S
H223   N237    1.029   .     S
H227   C348    1.088   .     S
H229   N285    1.029   .     S
N235   H277    1.029   .     S
N235   N285    1.296   .     S
C246   O287    1.293   .     A
C246   O288    1.287   .     A
C246   C248    1.427   .     S
C247   C249    1.491   .     S
C247   C260    1.430   .     A
C247   C255    1.394   .     A
C248   C397    1.327   .     S
C248   H418    1.087   .     S
C249   O290    1.287   .     A
C249   O289    1.324   .     A
C250   C251    1.427   .     S
C251   O291    1.287   .     A
C251   O292    1.294   .     A
C252   O293    1.293   .     A
C252   O294    1.303   .     A
C252   C254    1.461   .     S
C253   C266    1.389   .     A
C253   C703    1.403   1_554 S
C253   H182    1.084   1_655 S
C254   C265    1.403   .     A
C254   C266    1.397   .     A
C255   H282    1.075   .     S
C255   C256    1.391   .     A
C256   C699    1.394   .     S
C257   C260    1.417   .     A
C257   C699    1.416   .     S
C257   C702    1.428   .     S
C258   H283    1.077   .     S
C258   C698    1.416   1_554 S
C258   C697    1.394   1_554 S
C259   H273    1.109   .     S
C259   H275    1.112   .     S
C259   N286    1.447   .     S
C259   H274    1.111   .     S
C260   C264    1.417   .     A
C261   C265    1.400   .     A
C261   C698    1.428   1_554 S
C261   C703    1.420   1_554 S
C262   C263    1.388   .     A
C262   C702    1.420   .     S
C262   C694    1.403   .     S
C263   H279    1.082   .     S
C263   C264    1.388   .     A
C264   N286    1.427   .     S
C265   H281    1.075   .     S
C266   H269    1.083   .     S
Cu267  O293    1.939   .     S
Cu267  N285    2.024   .     S
Cu267  O287    1.956   .     S
Cu267  O291    1.951   .     S
Cu267  Cu268   2.693   .     S
Cu267  O289    1.951   .     S
Cu268  O290    1.939   .     S
Cu268  N284    2.024   .     S
Cu268  O294    1.951   .     S
Cu268  O292    1.956   .     S
Cu268  O288    1.951   .     S
H270   C158    1.083   1_655 S
H272   N286    1.029   .     S
H276   C397    1.088   .     S
H278   N187    1.029   1_655 S
N284   H179    1.029   1_655 S
N284   N187    1.296   1_655 S
C295   O336    1.293   .     A
C295   O337    1.287   .     A
C295   C297    1.427   .     S
C296   C298    1.491   .     S
C296   C309    1.430   .     A
C296   C304    1.394   .     A
C297   C5      1.327   1_565 S
C297   H26     1.087   1_565 S
C298   O339    1.287   .     A
C298   O338    1.324   .     A
C299   C300    1.427   .     S
C300   O340    1.287   .     A
C300   O341    1.294   .     A
C301   O342    1.293   .     A
C301   O343    1.303   .     A
C301   C303    1.461   .     S
C302   C315    1.389   .     A
C302   C752    1.403   1_554 S
C302   H378    1.084   .     S
C303   C314    1.403   .     A
C303   C315    1.397   .     A
C304   H331    1.075   .     S
C304   C305    1.391   .     A
C305   C748    1.394   .     S
C305   H417    1.083   1_455 S
C306   C309    1.417   .     A
C306   C748    1.416   .     S
C306   C751    1.428   .     S
C307   H332    1.077   .     S
C307   C747    1.416   1_554 S
C307   C746    1.394   1_554 S
C308   H322    1.109   .     S
C308   H324    1.112   .     S
C308   N335    1.447   .     S
C308   H323    1.111   .     S
C309   C313    1.417   .     A
C310   C314    1.400   .     A
C310   C747    1.428   1_554 S
C310   C752    1.420   1_554 S
C311   C312    1.388   .     A
C311   C751    1.420   .     S
C311   C743    1.403   .     S
C312   H328    1.082   .     S
C312   C313    1.388   .     A
C313   N335    1.427   .     S
C314   H330    1.075   .     S
C315   H318    1.083   .     S
Cu316  O342    1.939   .     S
Cu316  N334    2.024   .     S
Cu316  O336    1.956   .     S
Cu316  O340    1.951   .     S
Cu316  Cu317   2.693   .     S
Cu316  O338    1.951   .     S
Cu317  O339    1.939   .     S
Cu317  N333    2.024   .     S
Cu317  O343    1.951   .     S
Cu317  O341    1.956   .     S
Cu317  O337    1.951   .     S
H319   C354    1.083   .     S
H321   N335    1.029   .     S
H325   C5      1.088   1_565 S
H326   N431    1.029   1_455 S
H327   N383    1.029   .     S
H329   C400    1.084   1_455 S
N333   H375    1.029   .     S
N333   N383    1.296   .     S
N334   N431    1.296   1_455 S
N334   H425    1.029   1_455 S
C344   O385    1.293   .     A
C344   O386    1.287   .     A
C344   C346    1.427   .     S
C345   C347    1.491   .     S
C345   C358    1.430   .     A
C345   C353    1.394   .     A
C346   C54     1.327   1_565 S
C346   H75     1.087   1_565 S
C347   O388    1.287   .     A
C347   O387    1.324   .     A
C348   C349    1.427   .     S
C349   O389    1.287   .     A
C349   O390    1.294   .     A
C350   O391    1.293   .     A
C350   O392    1.303   .     A
C350   C352    1.461   .     S
C351   C364    1.389   .     A
C351   C801    1.403   1_554 S
C351   H427    1.084   .     S
C352   C363    1.403   .     A
C352   C364    1.397   .     A
C353   H380    1.075   .     S
C353   C354    1.391   .     A
C354   C797    1.394   .     S
C355   C358    1.417   .     A
C355   C797    1.416   .     S
C355   C800    1.428   .     S
C356   H381    1.077   .     S
C356   C796    1.416   1_554 S
C356   C795    1.394   1_554 S
C357   H371    1.109   .     S
C357   H373    1.112   .     S
C357   N384    1.447   .     S
C357   H372    1.111   .     S
C358   C362    1.417   .     A
C359   C363    1.400   .     A
C359   C796    1.428   1_554 S
C359   C801    1.420   1_554 S
C360   C361    1.388   .     A
C360   C800    1.420   .     S
C360   C792    1.403   .     S
C361   H377    1.082   .     S
C361   C362    1.388   .     A
C362   N384    1.427   .     S
C363   H379    1.075   .     S
C364   H367    1.083   .     S
Cu365  O391    1.939   .     S
Cu365  N383    2.024   .     S
Cu365  O385    1.956   .     S
Cu365  O389    1.951   .     S
Cu365  Cu366   2.693   .     S
Cu365  O387    1.951   .     S
Cu366  O388    1.939   .     S
Cu366  N382    2.024   .     S
Cu366  O392    1.951   .     S
Cu366  O390    1.956   .     S
Cu366  O386    1.951   .     S
H368   C403    1.083   .     S
H370   N384    1.029   .     S
H374   C54     1.088   1_565 S
H376   N432    1.029   .     S
N382   H424    1.029   .     S
N382   N432    1.296   .     S
C393   O434    1.293   .     A
C393   O435    1.287   .     A
C393   C395    1.427   .     S
C394   C396    1.491   .     S
C394   C407    1.430   .     A
C394   C402    1.394   .     A
C395   C103    1.327   1_565 S
C395   H124    1.087   1_565 S
C396   O437    1.287   .     A
C396   O436    1.324   .     A
C397   C398    1.427   .     S
C398   O438    1.287   .     A
C398   O439    1.294   .     A
C399   O440    1.293   .     A
C399   O441    1.303   .     A
C399   C401    1.461   .     S
C400   C413    1.389   .     A
C400   C850    1.403   1_554 S
C400   H329    1.084   1_655 S
C401   C412    1.403   .     A
C401   C413    1.397   .     A
C402   H429    1.075   .     S
C402   C403    1.391   .     A
C403   C846    1.394   .     S
C404   C407    1.417   .     A
C404   C846    1.416   .     S
C404   C849    1.428   .     S
C405   H430    1.077   .     S
C405   C845    1.416   1_554 S
C405   C844    1.394   1_554 S
C406   H420    1.109   .     S
C406   H422    1.112   .     S
C406   N433    1.447   .     S
C406   H421    1.111   .     S
C407   C411    1.417   .     A
C408   C412    1.400   .     A
C408   C845    1.428   1_554 S
C408   C850    1.420   1_554 S
C409   C410    1.388   .     A
C409   C849    1.420   .     S
C409   C841    1.403   .     S
C410   H426    1.082   .     S
C410   C411    1.388   .     A
C411   N433    1.427   .     S
C412   H428    1.075   .     S
C413   H416    1.083   .     S
Cu414  O440    1.939   .     S
Cu414  N432    2.024   .     S
Cu414  O434    1.956   .     S
Cu414  O438    1.951   .     S
Cu414  Cu415   2.693   .     S
Cu414  O436    1.951   .     S
Cu415  O437    1.939   .     S
Cu415  N431    2.024   .     S
Cu415  O441    1.951   .     S
Cu415  O439    1.956   .     S
Cu415  O435    1.951   .     S
H417   C305    1.083   1_655 S
H419   N433    1.029   .     S
H423   C103    1.088   1_565 S
H425   N334    1.029   1_655 S
N431   H326    1.029   1_655 S
N431   N334    1.296   1_655 S
C442   O483    1.293   .     A
C442   O484    1.287   .     A
C442   C444    1.427   .     S
C443   C445    1.491   .     S
C443   C456    1.430   .     A
C443   C451    1.394   .     A
C444   C593    1.327   .     S
C444   H614    1.087   .     S
C445   O486    1.287   .     A
C445   O485    1.324   .     A
C446   C447    1.427   .     S
C446   C738    1.327   1_545 S
C446   H766    1.088   1_545 S
C447   O487    1.287   .     A
C447   O488    1.294   .     A
C448   O489    1.293   .     A
C448   O490    1.303   .     A
C448   C450    1.461   .     S
C449   C462    1.389   .     A
C449   H525    1.084   .     S
C450   C461    1.403   .     A
C450   C462    1.397   .     A
C451   H478    1.075   .     S
C451   C452    1.391   .     A
C452   C13     1.394   1_556 S
C452   H564    1.083   1_455 S
C453   C456    1.417   .     A
C453   C13     1.416   1_556 S
C453   C16     1.428   1_556 S
C454   H479    1.077   .     S
C455   H469    1.109   .     S
C455   H471    1.112   .     S
C455   N482    1.447   .     S
C455   H470    1.111   .     S
C456   C460    1.417   .     A
C457   C461    1.400   .     A
C458   C459    1.388   .     A
C458   C16     1.420   1_556 S
C458   C8      1.403   1_556 S
C459   H475    1.082   .     S
C459   C460    1.388   .     A
C460   N482    1.427   .     S
C461   H477    1.075   .     S
C462   H465    1.083   .     S
Cu463  O489    1.939   .     S
Cu463  N481    2.024   .     S
Cu463  O483    1.956   .     S
Cu463  O487    1.951   .     S
Cu463  Cu464   2.693   .     S
Cu463  O485    1.951   .     S
Cu464  O486    1.939   .     S
Cu464  N480    2.024   .     S
Cu464  O490    1.951   .     S
Cu464  O488    1.956   .     S
Cu464  O484    1.951   .     S
H466   C501    1.083   .     S
H467   C738    1.087   1_545 S
H468   N482    1.029   .     S
H472   C593    1.088   .     S
H473   N578    1.029   1_455 S
H474   N530    1.029   .     S
H476   C547    1.084   1_455 S
N480   H522    1.029   .     S
N480   N530    1.296   .     S
N481   N578    1.296   1_455 S
N481   H572    1.029   1_455 S
C491   O532    1.293   .     A
C491   O533    1.287   .     A
C491   C493    1.427   .     S
C492   C494    1.491   .     S
C492   C505    1.430   .     A
C492   C500    1.394   .     A
C493   C642    1.327   .     S
C493   H663    1.087   .     S
C494   O535    1.287   .     A
C494   O534    1.324   .     A
C495   C496    1.427   .     S
C495   C787    1.327   1_545 S
C495   H815    1.088   1_545 S
C496   O536    1.287   .     A
C496   O537    1.294   .     A
C497   O538    1.293   .     A
C497   O539    1.303   .     A
C497   C499    1.461   .     S
C498   C511    1.389   .     A
C498   H574    1.084   .     S
C499   C510    1.403   .     A
C499   C511    1.397   .     A
C500   H527    1.075   .     S
C500   C501    1.391   .     A
C501   C62     1.394   1_556 S
C502   C505    1.417   .     A
C502   C62     1.416   1_556 S
C502   C65     1.428   1_556 S
C503   H528    1.077   .     S
C504   H518    1.109   .     S
C504   H520    1.112   .     S
C504   N531    1.447   .     S
C504   H519    1.111   .     S
C505   C509    1.417   .     A
C506   C510    1.400   .     A
C507   C508    1.388   .     A
C507   C65     1.420   1_556 S
C507   C57     1.403   1_556 S
C508   H524    1.082   .     S
C508   C509    1.388   .     A
C509   N531    1.427   .     S
C510   H526    1.075   .     S
C511   H514    1.083   .     S
Cu512  O538    1.939   .     S
Cu512  N530    2.024   .     S
Cu512  O532    1.956   .     S
Cu512  O536    1.951   .     S
Cu512  Cu513   2.693   .     S
Cu512  O534    1.951   .     S
Cu513  O535    1.939   .     S
Cu513  N529    2.024   .     S
Cu513  O539    1.951   .     S
Cu513  O537    1.956   .     S
Cu513  O533    1.951   .     S
H515   C550    1.083   .     S
H516   C787    1.087   1_545 S
H517   N531    1.029   .     S
H521   C642    1.088   .     S
H523   N579    1.029   .     S
N529   H571    1.029   .     S
N529   N579    1.296   .     S
C540   O581    1.293   .     A
C540   O582    1.287   .     A
C540   C542    1.427   .     S
C541   C543    1.491   .     S
C541   C554    1.430   .     A
C541   C549    1.394   .     A
C542   C691    1.327   .     S
C542   H712    1.087   .     S
C543   O584    1.287   .     A
C543   O583    1.324   .     A
C544   C545    1.427   .     S
C544   C836    1.327   1_545 S
C544   H864    1.088   1_545 S
C545   O585    1.287   .     A
C545   O586    1.294   .     A
C546   O587    1.293   .     A
C546   O588    1.303   .     A
C546   C548    1.461   .     S
C547   C560    1.389   .     A
C547   H476    1.084   1_655 S
C548   C559    1.403   .     A
C548   C560    1.397   .     A
C549   H576    1.075   .     S
C549   C550    1.391   .     A
C550   C111    1.394   1_556 S
C551   C554    1.417   .     A
C551   C111    1.416   1_556 S
C551   C114    1.428   1_556 S
C552   H577    1.077   .     S
C553   H567    1.109   .     S
C553   H569    1.112   .     S
C553   N580    1.447   .     S
C553   H568    1.111   .     S
C554   C558    1.417   .     A
C555   C559    1.400   .     A
C556   C557    1.388   .     A
C556   C114    1.420   1_556 S
C556   C106    1.403   1_556 S
C557   H573    1.082   .     S
C557   C558    1.388   .     A
C558   N580    1.427   .     S
C559   H575    1.075   .     S
C560   H563    1.083   .     S
Cu561  O587    1.939   .     S
Cu561  N579    2.024   .     S
Cu561  O581    1.956   .     S
Cu561  O585    1.951   .     S
Cu561  Cu562   2.693   .     S
Cu561  O583    1.951   .     S
Cu562  O584    1.939   .     S
Cu562  N578    2.024   .     S
Cu562  O588    1.951   .     S
Cu562  O586    1.956   .     S
Cu562  O582    1.951   .     S
H564   C452    1.083   1_655 S
H565   C836    1.087   1_545 S
H566   N580    1.029   .     S
H570   C691    1.088   .     S
H572   N481    1.029   1_655 S
N578   H473    1.029   1_655 S
N578   N481    1.296   1_655 S
C589   O630    1.293   .     A
C589   O631    1.287   .     A
C589   C591    1.427   .     S
C590   C592    1.491   .     S
C590   C603    1.430   .     A
C590   C598    1.394   .     A
C591   C740    1.327   .     S
C591   H761    1.087   .     S
C592   O633    1.287   .     A
C592   O632    1.324   .     A
C593   C594    1.427   .     S
C594   O634    1.287   .     A
C594   O635    1.294   .     A
C595   O636    1.293   .     A
C595   O637    1.303   .     A
C595   C597    1.461   .     S
C596   C609    1.389   .     A
C596   H672    1.084   .     S
C597   C608    1.403   .     A
C597   C609    1.397   .     A
C598   H625    1.075   .     S
C598   C599    1.391   .     A
C599   C160    1.394   1_556 S
C599   H711    1.083   1_455 S
C600   C603    1.417   .     A
C600   C160    1.416   1_556 S
C600   C163    1.428   1_556 S
C601   H626    1.077   .     S
C602   H616    1.109   .     S
C602   H618    1.112   .     S
C602   N629    1.447   .     S
C602   H617    1.111   .     S
C603   C607    1.417   .     A
C604   C608    1.400   .     A
C605   C606    1.388   .     A
C605   C163    1.420   1_556 S
C605   C155    1.403   1_556 S
C606   H622    1.082   .     S
C606   C607    1.388   .     A
C607   N629    1.427   .     S
C608   H624    1.075   .     S
C609   H612    1.083   .     S
Cu610  O636    1.939   .     S
Cu610  N628    2.024   .     S
Cu610  O630    1.956   .     S
Cu610  O634    1.951   .     S
Cu610  Cu611   2.693   .     S
Cu610  O632    1.951   .     S
Cu611  O633    1.939   .     S
Cu611  N627    2.024   .     S
Cu611  O637    1.951   .     S
Cu611  O635    1.956   .     S
Cu611  O631    1.951   .     S
H613   C648    1.083   .     S
H615   N629    1.029   .     S
H619   C740    1.088   .     S
H620   N725    1.029   1_455 S
H621   N677    1.029   .     S
H623   C694    1.084   1_455 S
N627   H669    1.029   .     S
N627   N677    1.296   .     S
N628   N725    1.296   1_455 S
N628   H719    1.029   1_455 S
C638   O679    1.293   .     A
C638   O680    1.287   .     A
C638   C640    1.427   .     S
C639   C641    1.491   .     S
C639   C652    1.430   .     A
C639   C647    1.394   .     A
C640   C789    1.327   .     S
C640   H810    1.087   .     S
C641   O682    1.287   .     A
C641   O681    1.324   .     A
C642   C643    1.427   .     S
C643   O683    1.287   .     A
C643   O684    1.294   .     A
C644   O685    1.293   .     A
C644   O686    1.303   .     A
C644   C646    1.461   .     S
C645   C658    1.389   .     A
C645   H721    1.084   .     S
C646   C657    1.403   .     A
C646   C658    1.397   .     A
C647   H674    1.075   .     S
C647   C648    1.391   .     A
C648   C209    1.394   1_556 S
C649   C652    1.417   .     A
C649   C209    1.416   1_556 S
C649   C212    1.428   1_556 S
C650   H675    1.077   .     S
C651   H665    1.109   .     S
C651   H667    1.112   .     S
C651   N678    1.447   .     S
C651   H666    1.111   .     S
C652   C656    1.417   .     A
C653   C657    1.400   .     A
C654   C655    1.388   .     A
C654   C212    1.420   1_556 S
C654   C204    1.403   1_556 S
C655   H671    1.082   .     S
C655   C656    1.388   .     A
C656   N678    1.427   .     S
C657   H673    1.075   .     S
C658   H661    1.083   .     S
Cu659  O685    1.939   .     S
Cu659  N677    2.024   .     S
Cu659  O679    1.956   .     S
Cu659  O683    1.951   .     S
Cu659  Cu660   2.693   .     S
Cu659  O681    1.951   .     S
Cu660  O682    1.939   .     S
Cu660  N676    2.024   .     S
Cu660  O686    1.951   .     S
Cu660  O684    1.956   .     S
Cu660  O680    1.951   .     S
H662   C697    1.083   .     S
H664   N678    1.029   .     S
H668   C789    1.088   .     S
H670   N726    1.029   .     S
N676   H718    1.029   .     S
N676   N726    1.296   .     S
C687   O728    1.293   .     A
C687   O729    1.287   .     A
C687   C689    1.427   .     S
C688   C690    1.491   .     S
C688   C701    1.430   .     A
C688   C696    1.394   .     A
C689   C838    1.327   .     S
C689   H859    1.087   .     S
C690   O731    1.287   .     A
C690   O730    1.324   .     A
C691   C692    1.427   .     S
C692   O732    1.287   .     A
C692   O733    1.294   .     A
C693   O734    1.293   .     A
C693   O735    1.303   .     A
C693   C695    1.461   .     S
C694   C707    1.389   .     A
C694   H623    1.084   1_655 S
C695   C706    1.403   .     A
C695   C707    1.397   .     A
C696   H723    1.075   .     S
C696   C697    1.391   .     A
C697   C258    1.394   1_556 S
C698   C701    1.417   .     A
C698   C258    1.416   1_556 S
C698   C261    1.428   1_556 S
C699   H724    1.077   .     S
C700   H714    1.109   .     S
C700   H716    1.112   .     S
C700   N727    1.447   .     S
C700   H715    1.111   .     S
C701   C705    1.417   .     A
C702   C706    1.400   .     A
C703   C704    1.388   .     A
C703   C261    1.420   1_556 S
C703   C253    1.403   1_556 S
C704   H720    1.082   .     S
C704   C705    1.388   .     A
C705   N727    1.427   .     S
C706   H722    1.075   .     S
C707   H710    1.083   .     S
Cu708  O734    1.939   .     S
Cu708  N726    2.024   .     S
Cu708  O728    1.956   .     S
Cu708  O732    1.951   .     S
Cu708  Cu709   2.693   .     S
Cu708  O730    1.951   .     S
Cu709  O731    1.939   .     S
Cu709  N725    2.024   .     S
Cu709  O735    1.951   .     S
Cu709  O733    1.956   .     S
Cu709  O729    1.951   .     S
H711   C599    1.083   1_655 S
H713   N727    1.029   .     S
H717   C838    1.088   .     S
H719   N628    1.029   1_655 S
N725   H620    1.029   1_655 S
N725   N628    1.296   1_655 S
C736   O777    1.293   .     A
C736   O778    1.287   .     A
C736   C738    1.427   .     S
C737   C739    1.491   .     S
C737   C750    1.430   .     A
C737   C745    1.394   .     A
C738   C446    1.327   1_565 S
C738   H467    1.087   1_565 S
C739   O780    1.287   .     A
C739   O779    1.324   .     A
C740   C741    1.427   .     S
C741   O781    1.287   .     A
C741   O782    1.294   .     A
C742   O783    1.293   .     A
C742   O784    1.303   .     A
C742   C744    1.461   .     S
C743   C756    1.389   .     A
C743   H819    1.084   .     S
C744   C755    1.403   .     A
C744   C756    1.397   .     A
C745   H772    1.075   .     S
C745   C746    1.391   .     A
C746   C307    1.394   1_556 S
C746   H858    1.083   1_455 S
C747   C750    1.417   .     A
C747   C307    1.416   1_556 S
C747   C310    1.428   1_556 S
C748   H773    1.077   .     S
C749   H763    1.109   .     S
C749   H765    1.112   .     S
C749   N776    1.447   .     S
C749   H764    1.111   .     S
C750   C754    1.417   .     A
C751   C755    1.400   .     A
C752   C753    1.388   .     A
C752   C310    1.420   1_556 S
C752   C302    1.403   1_556 S
C753   H769    1.082   .     S
C753   C754    1.388   .     A
C754   N776    1.427   .     S
C755   H771    1.075   .     S
C756   H759    1.083   .     S
Cu757  O783    1.939   .     S
Cu757  N775    2.024   .     S
Cu757  O777    1.956   .     S
Cu757  O781    1.951   .     S
Cu757  Cu758   2.693   .     S
Cu757  O779    1.951   .     S
Cu758  O780    1.939   .     S
Cu758  N774    2.024   .     S
Cu758  O784    1.951   .     S
Cu758  O782    1.956   .     S
Cu758  O778    1.951   .     S
H760   C795    1.083   .     S
H762   N776    1.029   .     S
H766   C446    1.088   1_565 S
H767   N872    1.029   1_455 S
H768   N824    1.029   .     S
H770   C841    1.084   1_455 S
N774   H816    1.029   .     S
N774   N824    1.296   .     S
N775   N872    1.296   1_455 S
N775   H866    1.029   1_455 S
C785   O826    1.293   .     A
C785   O827    1.287   .     A
C785   C787    1.427   .     S
C786   C788    1.491   .     S
C786   C799    1.430   .     A
C786   C794    1.394   .     A
C787   C495    1.327   1_565 S
C787   H516    1.087   1_565 S
C788   O829    1.287   .     A
C788   O828    1.324   .     A
C789   C790    1.427   .     S
C790   O830    1.287   .     A
C790   O831    1.294   .     A
C791   O832    1.293   .     A
C791   O833    1.303   .     A
C791   C793    1.461   .     S
C792   C805    1.389   .     A
C792   H868    1.084   .     S
C793   C804    1.403   .     A
C793   C805    1.397   .     A
C794   H821    1.075   .     S
C794   C795    1.391   .     A
C795   C356    1.394   1_556 S
C796   C799    1.417   .     A
C796   C356    1.416   1_556 S
C796   C359    1.428   1_556 S
C797   H822    1.077   .     S
C798   H812    1.109   .     S
C798   H814    1.112   .     S
C798   N825    1.447   .     S
C798   H813    1.111   .     S
C799   C803    1.417   .     A
C800   C804    1.400   .     A
C801   C802    1.388   .     A
C801   C359    1.420   1_556 S
C801   C351    1.403   1_556 S
C802   H818    1.082   .     S
C802   C803    1.388   .     A
C803   N825    1.427   .     S
C804   H820    1.075   .     S
C805   H808    1.083   .     S
Cu806  O832    1.939   .     S
Cu806  N824    2.024   .     S
Cu806  O826    1.956   .     S
Cu806  O830    1.951   .     S
Cu806  Cu807   2.693   .     S
Cu806  O828    1.951   .     S
Cu807  O829    1.939   .     S
Cu807  N823    2.024   .     S
Cu807  O833    1.951   .     S
Cu807  O831    1.956   .     S
Cu807  O827    1.951   .     S
H809   C844    1.083   .     S
H811   N825    1.029   .     S
H815   C495    1.088   1_565 S
H817   N873    1.029   .     S
N823   H865    1.029   .     S
N823   N873    1.296   .     S
C834   O875    1.293   .     A
C834   O876    1.287   .     A
C834   C836    1.427   .     S
C835   C837    1.491   .     S
C835   C848    1.430   .     A
C835   C843    1.394   .     A
C836   C544    1.327   1_565 S
C836   H565    1.087   1_565 S
C837   O878    1.287   .     A
C837   O877    1.324   .     A
C838   C839    1.427   .     S
C839   O879    1.287   .     A
C839   O880    1.294   .     A
C840   O881    1.293   .     A
C840   O882    1.303   .     A
C840   C842    1.461   .     S
C841   C854    1.389   .     A
C841   H770    1.084   1_655 S
C842   C853    1.403   .     A
C842   C854    1.397   .     A
C843   H870    1.075   .     S
C843   C844    1.391   .     A
C844   C405    1.394   1_556 S
C845   C848    1.417   .     A
C845   C405    1.416   1_556 S
C845   C408    1.428   1_556 S
C846   H871    1.077   .     S
C847   H861    1.109   .     S
C847   H863    1.112   .     S
C847   N874    1.447   .     S
C847   H862    1.111   .     S
C848   C852    1.417   .     A
C849   C853    1.400   .     A
C850   C851    1.388   .     A
C850   C408    1.420   1_556 S
C850   C400    1.403   1_556 S
C851   H867    1.082   .     S
C851   C852    1.388   .     A
C852   N874    1.427   .     S
C853   H869    1.075   .     S
C854   H857    1.083   .     S
Cu855  O881    1.939   .     S
Cu855  N873    2.024   .     S
Cu855  O875    1.956   .     S
Cu855  O879    1.951   .     S
Cu855  Cu856   2.693   .     S
Cu855  O877    1.951   .     S
Cu856  O878    1.939   .     S
Cu856  N872    2.024   .     S
Cu856  O882    1.951   .     S
Cu856  O880    1.956   .     S
Cu856  O876    1.951   .     S
H858   C746    1.083   1_655 S
H860   N874    1.029   .     S
H864   C544    1.088   1_565 S
H866   N775    1.029   1_655 S
N872   H767    1.029   1_655 S
N872   N775    1.296   1_655 S
