data_str_m3_o1_o16_pcu_sym.219
_audit_creation_date              2020-01-03
_audit_creation_method            'Materials Studio'
_symmetry_space_group_name_H-M    'P1'
_symmetry_Int_Tables_number       1
_symmetry_cell_setting            triclinic
loop_
_symmetry_equiv_pos_as_xyz
  x,y,z
_cell_length_a                    30.1046
_cell_length_b                    32.3663
_cell_length_c                    26.5534
_cell_angle_alpha                 90.0393
_cell_angle_beta                  75.7308
_cell_angle_gamma                 89.1473
loop_
_atom_site_label
_atom_site_type_symbol
_atom_site_fract_x
_atom_site_fract_y
_atom_site_fract_z
_atom_site_U_iso_or_equiv
_atom_site_adp_type
_atom_site_occupancy
C1     C     0.16672   0.24658   0.24685   0.00000  Uiso   1.00
C2     C     0.15882   0.18059   0.48110   0.00000  Uiso   1.00
C3     C     0.16653   0.16045   0.43340   0.00000  Uiso   1.00
C4     C     0.19123   0.17505   0.00967   0.00000  Uiso   1.00
C5     C     0.23655   0.16236   0.48600   0.00000  Uiso   1.00
C6     C     0.24579   0.14419   0.43596   0.00000  Uiso   1.00
C7     C     0.20751   0.13710   0.41454   0.00000  Uiso   1.00
C8     C     0.17636   0.16667   0.06220   0.00000  Uiso   1.00
C9     C     0.25322   0.17884   0.06843   0.00000  Uiso   1.00
C10    C     0.13177   0.16227   0.40706   0.00000  Uiso   1.00
C11    C     0.20705   0.31260   0.23287   0.00000  Uiso   1.00
C12    C     0.14273   0.16367   0.35056   0.00000  Uiso   1.00
C13    C     0.20631   0.01967   0.25014   0.00000  Uiso   1.00
C14    C     0.16502   0.04223   0.25914   0.00000  Uiso   1.00
C15    C     0.12293   0.02204   0.26641   0.00000  Uiso   1.00
C16    C     0.12300   0.31310   0.25625   0.00000  Uiso   1.00
C17    C     0.16556   0.29126   0.24279   0.00000  Uiso   1.00
C18    C     0.31723   0.14599   0.21244   0.00000  Uiso   1.00
C19    C     0.03193   0.14694   0.21164   0.00000  Uiso   1.00
C20    C     0.01529   0.18641   0.28806   0.00000  Uiso   1.00
C21    C     0.30095   0.18713   0.28776   0.00000  Uiso   1.00
C22    C     0.16595   0.08686   0.25440   0.00000  Uiso   1.00
C23    C     0.19141   0.16867   0.14927   0.00000  Uiso   1.00
C24    C     0.26834   0.16258   0.01780   0.00000  Uiso   1.00
C25    C     0.20662   0.17274   0.09302   0.00000  Uiso   1.00
C26    C     0.08706   0.17178   0.43481   0.00000  Uiso   1.00
C27    C     0.08136   0.20005   0.47610   0.00000  Uiso   1.00
C28    C     0.11828   0.20472   0.49988   0.00000  Uiso   1.00
H29    H     0.02609   0.20140   0.31937   0.00000  Uiso   1.00
N30    N     0.04760   0.16668   0.25002   0.00000  Uiso   1.00
N31    N     0.28573   0.16665   0.25000   0.00000  Uiso   1.00
O32    O     0.12846   0.22775   0.25001   0.00000  Uiso   1.00
O33    O     0.20490   0.22774   0.25001   0.00000  Uiso   1.00
O34    O     0.10947   0.16666   0.32681   0.00000  Uiso   1.00
O35    O     0.18591   0.16665   0.32681   0.00000  Uiso   1.00
O36    O     0.12843   0.10559   0.24999   0.00000  Uiso   1.00
O37    O     0.20488   0.10558   0.24999   0.00000  Uiso   1.00
O38    O     0.14742   0.16668   0.17319   0.00000  Uiso   1.00
O39    O     0.22387   0.16667   0.17319   0.00000  Uiso   1.00
Zn40   Zn    0.11562   0.16667   0.25000   0.00000  Uiso   1.00
Zn41   Zn    0.21771   0.16666   0.25000   0.00000  Uiso   1.00
O42    O     0.27269   0.21492   0.07985   0.00000  Uiso   1.00
C43    C     0.30823   0.20624   0.10421   0.00000  Uiso   1.00
H44    H     0.33021   0.17945   0.08729   0.00000  Uiso   1.00
H45    H     0.29451   0.20237   0.14639   0.00000  Uiso   1.00
H46    H     0.32983   0.23386   0.10051   0.00000  Uiso   1.00
O47    O     0.24601   0.03828   0.25511   0.00000  Uiso   1.00
C48    C     0.26202   0.01929   0.29527   0.00000  Uiso   1.00
H49    H     0.23457   0.00566   0.32657   0.00000  Uiso   1.00
H50    H     0.27930   0.04285   0.31327   0.00000  Uiso   1.00
H51    H     0.28812   0.32867   0.27891   0.00000  Uiso   1.00
O52    O     0.08298   0.04248   0.29252   0.00000  Uiso   1.00
C53    C     0.05244   0.04722   0.26029   0.00000  Uiso   1.00
H54    H     0.06982   0.04930   0.21822   0.00000  Uiso   1.00
H55    H     0.02754   0.02187   0.26743   0.00000  Uiso   1.00
H56    H     0.03263   0.07627   0.27111   0.00000  Uiso   1.00
O57    O     0.08141   0.29328   0.26340   0.00000  Uiso   1.00
C58    C     0.07245   0.28573   0.21424   0.00000  Uiso   1.00
H59    H     0.10127   0.26943   0.18687   0.00000  Uiso   1.00
H60    H     0.06492   0.31466   0.19545   0.00000  Uiso   1.00
H61    H     0.04182   0.26594   0.21987   0.00000  Uiso   1.00
O62    O     0.30223   0.12833   0.17208   0.00000  Uiso   1.00
C63    C     0.30564   0.08478   0.17233   0.00000  Uiso   1.00
H64    H     0.31679   0.07166   0.20604   0.00000  Uiso   1.00
H65    H     0.32990   0.07381   0.13615   0.00000  Uiso   1.00
H66    H     0.27195   0.07220   0.17097   0.00000  Uiso   1.00
C67    C     0.06450   0.12653   0.16850   0.00000  Uiso   1.00
H68    H     0.09523   0.11179   0.17418   0.00000  Uiso   1.00
O69    O     0.05676   0.12555   0.12555   0.00000  Uiso   1.00
O70    O     0.26893   0.20475   0.32875   0.00000  Uiso   1.00
C71    C     0.27364   0.24792   0.32672   0.00000  Uiso   1.00
H72    H     0.24420   0.26209   0.35540   0.00000  Uiso   1.00
H73    H     0.27285   0.25995   0.28777   0.00000  Uiso   1.00
H74    H     0.30549   0.25746   0.33731   0.00000  Uiso   1.00
O75    O     0.29168   0.13801   0.40966   0.00000  Uiso   1.00
C76    C     0.29916   0.10792   0.37008   0.00000  Uiso   1.00
H77    H     0.28401   0.11697   0.33774   0.00000  Uiso   1.00
H78    H     0.28774   0.07722   0.38650   0.00000  Uiso   1.00
H79    H     0.00302   0.10559   0.35213   0.00000  Uiso   1.00
C80    C     0.30428   0.13041   0.01213   0.00000  Uiso   1.00
H81    H     0.00388   0.13745   0.01931   0.00000  Uiso   1.00
O82    O     0.29597   0.09468   0.00333   0.00000  Uiso   1.00
O83    O     0.13877   0.14202   0.07897   0.00000  Uiso   1.00
C84    C     0.15290   0.10029   0.06778   0.00000  Uiso   1.00
H85    H     0.17840   0.09045   0.08961   0.00000  Uiso   1.00
H86    H     0.16702   0.09499   0.02541   0.00000  Uiso   1.00
H87    H     0.12294   0.07991   0.07992   0.00000  Uiso   1.00
O88    O     0.05003   0.15276   0.42265   0.00000  Uiso   1.00
C89    C     0.05840   0.10927   0.42075   0.00000  Uiso   1.00
H90    H     0.07228   0.09820   0.45369   0.00000  Uiso   1.00
H91    H     0.08159   0.09974   0.38304   0.00000  Uiso   1.00
H92    H     0.02629   0.09251   0.42448   0.00000  Uiso   1.00
O93    O     0.11908   0.23739   0.03351   0.00000  Uiso   1.00
C94    C     0.09284   0.22885   0.08416   0.00000  Uiso   1.00
H95    H     0.07000   0.25578   0.09836   0.00000  Uiso   1.00
H96    H     0.11605   0.22557   0.11048   0.00000  Uiso   1.00
H97    H     0.07176   0.20063   0.08742   0.00000  Uiso   1.00
C98    C     0.04036   0.22753   0.48970   0.00000  Uiso   1.00
H99    H     0.03799   0.25184   0.01829   0.00000  Uiso   1.00
O100   O     0.00955   0.22468   0.46743   0.00000  Uiso   1.00
O101   O     0.20800   0.10574   0.37889   0.00000  Uiso   1.00
C102   C     0.18633   0.07091   0.40558   0.00000  Uiso   1.00
H103   H     0.15285   0.07859   0.43295   0.00000  Uiso   1.00
H104   H     0.20921   0.05520   0.42690   0.00000  Uiso   1.00
H105   H     0.17892   0.04897   0.37681   0.00000  Uiso   1.00
C106   C     0.24994   0.29597   0.19809   0.00000  Uiso   1.00
H107   H     0.28309   0.30816   0.19887   0.00000  Uiso   1.00
O108   O     0.24819   0.27055   0.16483   0.00000  Uiso   1.00
C109   C     0.50005   0.24658   0.24685   0.00000  Uiso   1.00
C110   C     0.49215   0.18059   0.48110   0.00000  Uiso   1.00
C111   C     0.49986   0.16045   0.43340   0.00000  Uiso   1.00
C112   C     0.52456   0.17505   0.00967   0.00000  Uiso   1.00
C113   C     0.56989   0.16236   0.48600   0.00000  Uiso   1.00
C114   C     0.57913   0.14419   0.43596   0.00000  Uiso   1.00
C115   C     0.54084   0.13710   0.41454   0.00000  Uiso   1.00
C116   C     0.50970   0.16667   0.06220   0.00000  Uiso   1.00
C117   C     0.58656   0.17884   0.06843   0.00000  Uiso   1.00
C118   C     0.46510   0.16227   0.40706   0.00000  Uiso   1.00
C119   C     0.54038   0.31260   0.23287   0.00000  Uiso   1.00
C120   C     0.47606   0.16367   0.35056   0.00000  Uiso   1.00
C121   C     0.53964   0.01967   0.25014   0.00000  Uiso   1.00
C122   C     0.49836   0.04223   0.25914   0.00000  Uiso   1.00
C123   C     0.45626   0.02204   0.26641   0.00000  Uiso   1.00
C124   C     0.45634   0.31310   0.25625   0.00000  Uiso   1.00
C125   C     0.49889   0.29126   0.24279   0.00000  Uiso   1.00
C126   C     0.65056   0.14599   0.21244   0.00000  Uiso   1.00
C127   C     0.36526   0.14694   0.21164   0.00000  Uiso   1.00
C128   C     0.34862   0.18641   0.28806   0.00000  Uiso   1.00
C129   C     0.63428   0.18713   0.28776   0.00000  Uiso   1.00
C130   C     0.49929   0.08686   0.25440   0.00000  Uiso   1.00
C131   C     0.52474   0.16867   0.14927   0.00000  Uiso   1.00
C132   C     0.60168   0.16258   0.01780   0.00000  Uiso   1.00
C133   C     0.53996   0.17274   0.09302   0.00000  Uiso   1.00
C134   C     0.42039   0.17178   0.43481   0.00000  Uiso   1.00
C135   C     0.41470   0.20005   0.47610   0.00000  Uiso   1.00
C136   C     0.45162   0.20472   0.49988   0.00000  Uiso   1.00
H137   H     0.35943   0.20140   0.31937   0.00000  Uiso   1.00
N138   N     0.38093   0.16668   0.25002   0.00000  Uiso   1.00
N139   N     0.61906   0.16665   0.25000   0.00000  Uiso   1.00
O140   O     0.46179   0.22775   0.25001   0.00000  Uiso   1.00
O141   O     0.53823   0.22774   0.25001   0.00000  Uiso   1.00
O142   O     0.44280   0.16666   0.32681   0.00000  Uiso   1.00
O143   O     0.51924   0.16665   0.32681   0.00000  Uiso   1.00
O144   O     0.46177   0.10559   0.24999   0.00000  Uiso   1.00
O145   O     0.53821   0.10558   0.24999   0.00000  Uiso   1.00
O146   O     0.48076   0.16668   0.17319   0.00000  Uiso   1.00
O147   O     0.55720   0.16667   0.17319   0.00000  Uiso   1.00
Zn148  Zn    0.44896   0.16667   0.25000   0.00000  Uiso   1.00
Zn149  Zn    0.55104   0.16666   0.25000   0.00000  Uiso   1.00
O150   O     0.60602   0.21492   0.07985   0.00000  Uiso   1.00
C151   C     0.64156   0.20624   0.10421   0.00000  Uiso   1.00
H152   H     0.66355   0.17945   0.08729   0.00000  Uiso   1.00
H153   H     0.62784   0.20237   0.14639   0.00000  Uiso   1.00
H154   H     0.66316   0.23386   0.10051   0.00000  Uiso   1.00
O155   O     0.57934   0.03828   0.25511   0.00000  Uiso   1.00
C156   C     0.59536   0.01929   0.29527   0.00000  Uiso   1.00
H157   H     0.56790   0.00566   0.32657   0.00000  Uiso   1.00
H158   H     0.61264   0.04285   0.31327   0.00000  Uiso   1.00
H159   H     0.62145   0.32867   0.27891   0.00000  Uiso   1.00
O160   O     0.41631   0.04248   0.29252   0.00000  Uiso   1.00
C161   C     0.38578   0.04722   0.26029   0.00000  Uiso   1.00
H162   H     0.40315   0.04930   0.21822   0.00000  Uiso   1.00
H163   H     0.36088   0.02187   0.26743   0.00000  Uiso   1.00
H164   H     0.36596   0.07627   0.27111   0.00000  Uiso   1.00
O165   O     0.41474   0.29328   0.26340   0.00000  Uiso   1.00
C166   C     0.40578   0.28573   0.21424   0.00000  Uiso   1.00
H167   H     0.43460   0.26943   0.18687   0.00000  Uiso   1.00
H168   H     0.39826   0.31466   0.19545   0.00000  Uiso   1.00
H169   H     0.37516   0.26594   0.21987   0.00000  Uiso   1.00
O170   O     0.63556   0.12833   0.17208   0.00000  Uiso   1.00
C171   C     0.63898   0.08478   0.17233   0.00000  Uiso   1.00
H172   H     0.65012   0.07166   0.20604   0.00000  Uiso   1.00
H173   H     0.66324   0.07381   0.13615   0.00000  Uiso   1.00
H174   H     0.60529   0.07220   0.17097   0.00000  Uiso   1.00
C175   C     0.39784   0.12653   0.16850   0.00000  Uiso   1.00
H176   H     0.42856   0.11179   0.17418   0.00000  Uiso   1.00
O177   O     0.39010   0.12555   0.12555   0.00000  Uiso   1.00
O178   O     0.60226   0.20475   0.32875   0.00000  Uiso   1.00
C179   C     0.60697   0.24792   0.32672   0.00000  Uiso   1.00
H180   H     0.57753   0.26209   0.35540   0.00000  Uiso   1.00
H181   H     0.60619   0.25995   0.28777   0.00000  Uiso   1.00
H182   H     0.63882   0.25746   0.33731   0.00000  Uiso   1.00
O183   O     0.62501   0.13801   0.40966   0.00000  Uiso   1.00
C184   C     0.63249   0.10792   0.37008   0.00000  Uiso   1.00
H185   H     0.61734   0.11697   0.33774   0.00000  Uiso   1.00
H186   H     0.62107   0.07722   0.38650   0.00000  Uiso   1.00
H187   H     0.33636   0.10559   0.35213   0.00000  Uiso   1.00
C188   C     0.63762   0.13041   0.01213   0.00000  Uiso   1.00
H189   H     0.33722   0.13745   0.01931   0.00000  Uiso   1.00
O190   O     0.62930   0.09468   0.00333   0.00000  Uiso   1.00
O191   O     0.47210   0.14202   0.07897   0.00000  Uiso   1.00
C192   C     0.48623   0.10029   0.06778   0.00000  Uiso   1.00
H193   H     0.51174   0.09045   0.08961   0.00000  Uiso   1.00
H194   H     0.50035   0.09499   0.02541   0.00000  Uiso   1.00
H195   H     0.45627   0.07991   0.07992   0.00000  Uiso   1.00
O196   O     0.38337   0.15276   0.42265   0.00000  Uiso   1.00
C197   C     0.39174   0.10927   0.42075   0.00000  Uiso   1.00
H198   H     0.40562   0.09820   0.45369   0.00000  Uiso   1.00
H199   H     0.41492   0.09974   0.38304   0.00000  Uiso   1.00
H200   H     0.35962   0.09251   0.42448   0.00000  Uiso   1.00
O201   O     0.45241   0.23739   0.03351   0.00000  Uiso   1.00
C202   C     0.42618   0.22885   0.08416   0.00000  Uiso   1.00
H203   H     0.40334   0.25578   0.09836   0.00000  Uiso   1.00
H204   H     0.44938   0.22557   0.11048   0.00000  Uiso   1.00
H205   H     0.40509   0.20063   0.08742   0.00000  Uiso   1.00
C206   C     0.37369   0.22753   0.48970   0.00000  Uiso   1.00
H207   H     0.37133   0.25184   0.01829   0.00000  Uiso   1.00
O208   O     0.34289   0.22468   0.46743   0.00000  Uiso   1.00
O209   O     0.54134   0.10574   0.37889   0.00000  Uiso   1.00
C210   C     0.51967   0.07091   0.40558   0.00000  Uiso   1.00
H211   H     0.48619   0.07859   0.43295   0.00000  Uiso   1.00
H212   H     0.54254   0.05520   0.42690   0.00000  Uiso   1.00
H213   H     0.51226   0.04897   0.37681   0.00000  Uiso   1.00
C214   C     0.58327   0.29597   0.19809   0.00000  Uiso   1.00
H215   H     0.61643   0.30816   0.19887   0.00000  Uiso   1.00
O216   O     0.58152   0.27055   0.16483   0.00000  Uiso   1.00
C217   C     0.83339   0.24658   0.24685   0.00000  Uiso   1.00
C218   C     0.82548   0.18059   0.48110   0.00000  Uiso   1.00
C219   C     0.83320   0.16045   0.43340   0.00000  Uiso   1.00
C220   C     0.85790   0.17505   0.00967   0.00000  Uiso   1.00
C221   C     0.90322   0.16236   0.48600   0.00000  Uiso   1.00
C222   C     0.91246   0.14419   0.43596   0.00000  Uiso   1.00
C223   C     0.87418   0.13710   0.41454   0.00000  Uiso   1.00
C224   C     0.84303   0.16667   0.06220   0.00000  Uiso   1.00
C225   C     0.91989   0.17884   0.06843   0.00000  Uiso   1.00
C226   C     0.79843   0.16227   0.40706   0.00000  Uiso   1.00
C227   C     0.87372   0.31260   0.23287   0.00000  Uiso   1.00
C228   C     0.80940   0.16367   0.35056   0.00000  Uiso   1.00
C229   C     0.87297   0.01967   0.25014   0.00000  Uiso   1.00
C230   C     0.83169   0.04223   0.25914   0.00000  Uiso   1.00
C231   C     0.78959   0.02204   0.26641   0.00000  Uiso   1.00
C232   C     0.78967   0.31310   0.25625   0.00000  Uiso   1.00
C233   C     0.83222   0.29126   0.24279   0.00000  Uiso   1.00
C234   C     0.98390   0.14599   0.21244   0.00000  Uiso   1.00
C235   C     0.69859   0.14694   0.21164   0.00000  Uiso   1.00
C236   C     0.68195   0.18641   0.28806   0.00000  Uiso   1.00
C237   C     0.96761   0.18713   0.28776   0.00000  Uiso   1.00
C238   C     0.83262   0.08686   0.25440   0.00000  Uiso   1.00
C239   C     0.85808   0.16867   0.14927   0.00000  Uiso   1.00
C240   C     0.93501   0.16258   0.01780   0.00000  Uiso   1.00
C241   C     0.87329   0.17274   0.09302   0.00000  Uiso   1.00
C242   C     0.75372   0.17178   0.43481   0.00000  Uiso   1.00
C243   C     0.74803   0.20005   0.47610   0.00000  Uiso   1.00
C244   C     0.78495   0.20472   0.49988   0.00000  Uiso   1.00
H245   H     0.69276   0.20140   0.31937   0.00000  Uiso   1.00
N246   N     0.71426   0.16668   0.25002   0.00000  Uiso   1.00
N247   N     0.95239   0.16665   0.25000   0.00000  Uiso   1.00
O248   O     0.79512   0.22775   0.25001   0.00000  Uiso   1.00
O249   O     0.87157   0.22774   0.25001   0.00000  Uiso   1.00
O250   O     0.77613   0.16666   0.32681   0.00000  Uiso   1.00
O251   O     0.85258   0.16665   0.32681   0.00000  Uiso   1.00
O252   O     0.79510   0.10559   0.24999   0.00000  Uiso   1.00
O253   O     0.87154   0.10558   0.24999   0.00000  Uiso   1.00
O254   O     0.81409   0.16668   0.17319   0.00000  Uiso   1.00
O255   O     0.89053   0.16667   0.17319   0.00000  Uiso   1.00
Zn256  Zn    0.78229   0.16667   0.25000   0.00000  Uiso   1.00
Zn257  Zn    0.88438   0.16666   0.25000   0.00000  Uiso   1.00
O258   O     0.93935   0.21492   0.07985   0.00000  Uiso   1.00
C259   C     0.97490   0.20624   0.10421   0.00000  Uiso   1.00
H260   H     0.99688   0.17945   0.08729   0.00000  Uiso   1.00
H261   H     0.96117   0.20237   0.14639   0.00000  Uiso   1.00
H262   H     0.99649   0.23386   0.10051   0.00000  Uiso   1.00
O263   O     0.91268   0.03828   0.25511   0.00000  Uiso   1.00
C264   C     0.92869   0.01929   0.29527   0.00000  Uiso   1.00
H265   H     0.90123   0.00566   0.32657   0.00000  Uiso   1.00
H266   H     0.94597   0.04285   0.31327   0.00000  Uiso   1.00
H267   H     0.95478   0.32867   0.27891   0.00000  Uiso   1.00
O268   O     0.74965   0.04248   0.29252   0.00000  Uiso   1.00
C269   C     0.71911   0.04722   0.26029   0.00000  Uiso   1.00
H270   H     0.73648   0.04930   0.21822   0.00000  Uiso   1.00
H271   H     0.69421   0.02187   0.26743   0.00000  Uiso   1.00
H272   H     0.69929   0.07627   0.27111   0.00000  Uiso   1.00
O273   O     0.74808   0.29328   0.26340   0.00000  Uiso   1.00
C274   C     0.73911   0.28573   0.21424   0.00000  Uiso   1.00
H275   H     0.76794   0.26943   0.18687   0.00000  Uiso   1.00
H276   H     0.73159   0.31466   0.19545   0.00000  Uiso   1.00
H277   H     0.70849   0.26594   0.21987   0.00000  Uiso   1.00
O278   O     0.96889   0.12833   0.17208   0.00000  Uiso   1.00
C279   C     0.97231   0.08478   0.17233   0.00000  Uiso   1.00
H280   H     0.98345   0.07166   0.20604   0.00000  Uiso   1.00
H281   H     0.99657   0.07381   0.13615   0.00000  Uiso   1.00
H282   H     0.93862   0.07220   0.17097   0.00000  Uiso   1.00
C283   C     0.73117   0.12653   0.16850   0.00000  Uiso   1.00
H284   H     0.76190   0.11179   0.17418   0.00000  Uiso   1.00
O285   O     0.72343   0.12555   0.12555   0.00000  Uiso   1.00
O286   O     0.93560   0.20475   0.32875   0.00000  Uiso   1.00
C287   C     0.94031   0.24792   0.32672   0.00000  Uiso   1.00
H288   H     0.91086   0.26209   0.35540   0.00000  Uiso   1.00
H289   H     0.93952   0.25995   0.28777   0.00000  Uiso   1.00
H290   H     0.97215   0.25746   0.33731   0.00000  Uiso   1.00
O291   O     0.95834   0.13801   0.40966   0.00000  Uiso   1.00
C292   C     0.96583   0.10792   0.37008   0.00000  Uiso   1.00
H293   H     0.95068   0.11697   0.33774   0.00000  Uiso   1.00
H294   H     0.95441   0.07722   0.38650   0.00000  Uiso   1.00
H295   H     0.66969   0.10559   0.35213   0.00000  Uiso   1.00
C296   C     0.97095   0.13041   0.01213   0.00000  Uiso   1.00
H297   H     0.67055   0.13745   0.01931   0.00000  Uiso   1.00
O298   O     0.96264   0.09468   0.00333   0.00000  Uiso   1.00
O299   O     0.80544   0.14202   0.07897   0.00000  Uiso   1.00
C300   C     0.81957   0.10029   0.06778   0.00000  Uiso   1.00
H301   H     0.84507   0.09045   0.08961   0.00000  Uiso   1.00
H302   H     0.83368   0.09499   0.02541   0.00000  Uiso   1.00
H303   H     0.78961   0.07991   0.07992   0.00000  Uiso   1.00
O304   O     0.71670   0.15276   0.42265   0.00000  Uiso   1.00
C305   C     0.72507   0.10927   0.42075   0.00000  Uiso   1.00
H306   H     0.73895   0.09820   0.45369   0.00000  Uiso   1.00
H307   H     0.74825   0.09974   0.38304   0.00000  Uiso   1.00
H308   H     0.69295   0.09251   0.42448   0.00000  Uiso   1.00
O309   O     0.78575   0.23739   0.03351   0.00000  Uiso   1.00
C310   C     0.75951   0.22885   0.08416   0.00000  Uiso   1.00
H311   H     0.73667   0.25578   0.09836   0.00000  Uiso   1.00
H312   H     0.78272   0.22557   0.11048   0.00000  Uiso   1.00
H313   H     0.73843   0.20063   0.08742   0.00000  Uiso   1.00
C314   C     0.70703   0.22753   0.48970   0.00000  Uiso   1.00
H315   H     0.70466   0.25184   0.01829   0.00000  Uiso   1.00
O316   O     0.67622   0.22468   0.46743   0.00000  Uiso   1.00
O317   O     0.87467   0.10574   0.37889   0.00000  Uiso   1.00
C318   C     0.85300   0.07091   0.40558   0.00000  Uiso   1.00
H319   H     0.81952   0.07859   0.43295   0.00000  Uiso   1.00
H320   H     0.87587   0.05520   0.42690   0.00000  Uiso   1.00
H321   H     0.84559   0.04897   0.37681   0.00000  Uiso   1.00
C322   C     0.91661   0.29597   0.19809   0.00000  Uiso   1.00
H323   H     0.94976   0.30816   0.19887   0.00000  Uiso   1.00
O324   O     0.91486   0.27055   0.16483   0.00000  Uiso   1.00
C325   C     0.16672   0.57991   0.24685   0.00000  Uiso   1.00
C326   C     0.15882   0.51392   0.48110   0.00000  Uiso   1.00
C327   C     0.16653   0.49378   0.43340   0.00000  Uiso   1.00
C328   C     0.19123   0.50838   0.00967   0.00000  Uiso   1.00
C329   C     0.23655   0.49569   0.48600   0.00000  Uiso   1.00
C330   C     0.24579   0.47752   0.43596   0.00000  Uiso   1.00
C331   C     0.20751   0.47043   0.41454   0.00000  Uiso   1.00
C332   C     0.17636   0.50000   0.06220   0.00000  Uiso   1.00
C333   C     0.25322   0.51217   0.06843   0.00000  Uiso   1.00
C334   C     0.13177   0.49560   0.40706   0.00000  Uiso   1.00
C335   C     0.20705   0.64593   0.23287   0.00000  Uiso   1.00
C336   C     0.14273   0.49701   0.35056   0.00000  Uiso   1.00
C337   C     0.20631   0.35300   0.25014   0.00000  Uiso   1.00
C338   C     0.16502   0.37556   0.25914   0.00000  Uiso   1.00
C339   C     0.12293   0.35538   0.26641   0.00000  Uiso   1.00
C340   C     0.12300   0.64644   0.25625   0.00000  Uiso   1.00
C341   C     0.16556   0.62459   0.24279   0.00000  Uiso   1.00
C342   C     0.31723   0.47932   0.21244   0.00000  Uiso   1.00
C343   C     0.03193   0.48028   0.21164   0.00000  Uiso   1.00
C344   C     0.01529   0.51974   0.28806   0.00000  Uiso   1.00
C345   C     0.30095   0.52046   0.28776   0.00000  Uiso   1.00
C346   C     0.16595   0.42019   0.25440   0.00000  Uiso   1.00
C347   C     0.19141   0.50201   0.14927   0.00000  Uiso   1.00
C348   C     0.26834   0.49591   0.01780   0.00000  Uiso   1.00
C349   C     0.20662   0.50607   0.09302   0.00000  Uiso   1.00
C350   C     0.08706   0.50511   0.43481   0.00000  Uiso   1.00
C351   C     0.08136   0.53338   0.47610   0.00000  Uiso   1.00
C352   C     0.11828   0.53805   0.49988   0.00000  Uiso   1.00
H353   H     0.02609   0.53473   0.31937   0.00000  Uiso   1.00
N354   N     0.04760   0.50001   0.25002   0.00000  Uiso   1.00
N355   N     0.28573   0.49998   0.25000   0.00000  Uiso   1.00
O356   O     0.12846   0.56108   0.25001   0.00000  Uiso   1.00
O357   O     0.20490   0.56107   0.25001   0.00000  Uiso   1.00
O358   O     0.10947   0.50000   0.32681   0.00000  Uiso   1.00
O359   O     0.18591   0.49999   0.32681   0.00000  Uiso   1.00
O360   O     0.12843   0.43893   0.24999   0.00000  Uiso   1.00
O361   O     0.20488   0.43892   0.24999   0.00000  Uiso   1.00
O362   O     0.14742   0.50001   0.17319   0.00000  Uiso   1.00
O363   O     0.22387   0.50000   0.17319   0.00000  Uiso   1.00
Zn364  Zn    0.11562   0.50001   0.25000   0.00000  Uiso   1.00
Zn365  Zn    0.21771   0.49999   0.25000   0.00000  Uiso   1.00
O366   O     0.27269   0.54825   0.07985   0.00000  Uiso   1.00
C367   C     0.30823   0.53957   0.10421   0.00000  Uiso   1.00
H368   H     0.33021   0.51278   0.08729   0.00000  Uiso   1.00
H369   H     0.29451   0.53570   0.14639   0.00000  Uiso   1.00
H370   H     0.32983   0.56719   0.10051   0.00000  Uiso   1.00
O371   O     0.24601   0.37161   0.25511   0.00000  Uiso   1.00
C372   C     0.26202   0.35262   0.29527   0.00000  Uiso   1.00
H373   H     0.23457   0.33899   0.32657   0.00000  Uiso   1.00
H374   H     0.27930   0.37618   0.31327   0.00000  Uiso   1.00
H375   H     0.28812   0.66200   0.27891   0.00000  Uiso   1.00
O376   O     0.08298   0.37582   0.29252   0.00000  Uiso   1.00
C377   C     0.05244   0.38055   0.26029   0.00000  Uiso   1.00
H378   H     0.06982   0.38264   0.21822   0.00000  Uiso   1.00
H379   H     0.02754   0.35520   0.26743   0.00000  Uiso   1.00
H380   H     0.03263   0.40961   0.27111   0.00000  Uiso   1.00
O381   O     0.08141   0.62661   0.26340   0.00000  Uiso   1.00
C382   C     0.07245   0.61906   0.21424   0.00000  Uiso   1.00
H383   H     0.10127   0.60276   0.18687   0.00000  Uiso   1.00
H384   H     0.06492   0.64799   0.19545   0.00000  Uiso   1.00
H385   H     0.04182   0.59927   0.21987   0.00000  Uiso   1.00
O386   O     0.30223   0.46166   0.17208   0.00000  Uiso   1.00
C387   C     0.30564   0.41812   0.17233   0.00000  Uiso   1.00
H388   H     0.31679   0.40499   0.20604   0.00000  Uiso   1.00
H389   H     0.32990   0.40714   0.13615   0.00000  Uiso   1.00
H390   H     0.27195   0.40553   0.17097   0.00000  Uiso   1.00
C391   C     0.06450   0.45986   0.16850   0.00000  Uiso   1.00
H392   H     0.09523   0.44512   0.17418   0.00000  Uiso   1.00
O393   O     0.05676   0.45888   0.12555   0.00000  Uiso   1.00
O394   O     0.26893   0.53808   0.32875   0.00000  Uiso   1.00
C395   C     0.27364   0.58125   0.32672   0.00000  Uiso   1.00
H396   H     0.24420   0.59542   0.35540   0.00000  Uiso   1.00
H397   H     0.27285   0.59329   0.28777   0.00000  Uiso   1.00
H398   H     0.30549   0.59079   0.33731   0.00000  Uiso   1.00
O399   O     0.29168   0.47135   0.40966   0.00000  Uiso   1.00
C400   C     0.29916   0.44125   0.37008   0.00000  Uiso   1.00
H401   H     0.28401   0.45031   0.33774   0.00000  Uiso   1.00
H402   H     0.28774   0.41055   0.38650   0.00000  Uiso   1.00
H403   H     0.00302   0.43892   0.35213   0.00000  Uiso   1.00
C404   C     0.30428   0.46374   0.01213   0.00000  Uiso   1.00
H405   H     0.00388   0.47078   0.01931   0.00000  Uiso   1.00
O406   O     0.29597   0.42801   0.00333   0.00000  Uiso   1.00
O407   O     0.13877   0.47535   0.07897   0.00000  Uiso   1.00
C408   C     0.15290   0.43362   0.06778   0.00000  Uiso   1.00
H409   H     0.17840   0.42378   0.08961   0.00000  Uiso   1.00
H410   H     0.16702   0.42832   0.02541   0.00000  Uiso   1.00
H411   H     0.12294   0.41325   0.07992   0.00000  Uiso   1.00
O412   O     0.05003   0.48609   0.42265   0.00000  Uiso   1.00
C413   C     0.05840   0.44261   0.42075   0.00000  Uiso   1.00
H414   H     0.07228   0.43153   0.45369   0.00000  Uiso   1.00
H415   H     0.08159   0.43307   0.38304   0.00000  Uiso   1.00
H416   H     0.02629   0.42584   0.42448   0.00000  Uiso   1.00
O417   O     0.11908   0.57072   0.03351   0.00000  Uiso   1.00
C418   C     0.09284   0.56219   0.08416   0.00000  Uiso   1.00
H419   H     0.07000   0.58912   0.09836   0.00000  Uiso   1.00
H420   H     0.11605   0.55890   0.11048   0.00000  Uiso   1.00
H421   H     0.07176   0.53397   0.08742   0.00000  Uiso   1.00
C422   C     0.04036   0.56086   0.48970   0.00000  Uiso   1.00
H423   H     0.03799   0.58517   0.01829   0.00000  Uiso   1.00
O424   O     0.00955   0.55801   0.46743   0.00000  Uiso   1.00
O425   O     0.20800   0.43907   0.37889   0.00000  Uiso   1.00
C426   C     0.18633   0.40424   0.40558   0.00000  Uiso   1.00
H427   H     0.15285   0.41192   0.43295   0.00000  Uiso   1.00
H428   H     0.20921   0.38853   0.42690   0.00000  Uiso   1.00
H429   H     0.17892   0.38230   0.37681   0.00000  Uiso   1.00
C430   C     0.24994   0.62931   0.19809   0.00000  Uiso   1.00
H431   H     0.28309   0.64149   0.19887   0.00000  Uiso   1.00
O432   O     0.24819   0.60389   0.16483   0.00000  Uiso   1.00
C433   C     0.50005   0.57991   0.24685   0.00000  Uiso   1.00
C434   C     0.49215   0.51392   0.48110   0.00000  Uiso   1.00
C435   C     0.49986   0.49378   0.43340   0.00000  Uiso   1.00
C436   C     0.52456   0.50838   0.00967   0.00000  Uiso   1.00
C437   C     0.56989   0.49569   0.48600   0.00000  Uiso   1.00
C438   C     0.57913   0.47752   0.43596   0.00000  Uiso   1.00
C439   C     0.54084   0.47043   0.41454   0.00000  Uiso   1.00
C440   C     0.50970   0.50000   0.06220   0.00000  Uiso   1.00
C441   C     0.58656   0.51217   0.06843   0.00000  Uiso   1.00
C442   C     0.46510   0.49560   0.40706   0.00000  Uiso   1.00
C443   C     0.54038   0.64593   0.23287   0.00000  Uiso   1.00
C444   C     0.47606   0.49701   0.35056   0.00000  Uiso   1.00
C445   C     0.53964   0.35300   0.25014   0.00000  Uiso   1.00
C446   C     0.49836   0.37556   0.25914   0.00000  Uiso   1.00
C447   C     0.45626   0.35538   0.26641   0.00000  Uiso   1.00
C448   C     0.45634   0.64644   0.25625   0.00000  Uiso   1.00
C449   C     0.49889   0.62459   0.24279   0.00000  Uiso   1.00
C450   C     0.65056   0.47932   0.21244   0.00000  Uiso   1.00
C451   C     0.36526   0.48028   0.21164   0.00000  Uiso   1.00
C452   C     0.34862   0.51974   0.28806   0.00000  Uiso   1.00
C453   C     0.63428   0.52046   0.28776   0.00000  Uiso   1.00
C454   C     0.49929   0.42019   0.25440   0.00000  Uiso   1.00
C455   C     0.52474   0.50201   0.14927   0.00000  Uiso   1.00
C456   C     0.60168   0.49591   0.01780   0.00000  Uiso   1.00
C457   C     0.53996   0.50607   0.09302   0.00000  Uiso   1.00
C458   C     0.42039   0.50511   0.43481   0.00000  Uiso   1.00
C459   C     0.41470   0.53338   0.47610   0.00000  Uiso   1.00
C460   C     0.45162   0.53805   0.49988   0.00000  Uiso   1.00
H461   H     0.35943   0.53473   0.31937   0.00000  Uiso   1.00
N462   N     0.38093   0.50001   0.25002   0.00000  Uiso   1.00
N463   N     0.61906   0.49998   0.25000   0.00000  Uiso   1.00
O464   O     0.46179   0.56108   0.25001   0.00000  Uiso   1.00
O465   O     0.53823   0.56107   0.25001   0.00000  Uiso   1.00
O466   O     0.44280   0.50000   0.32681   0.00000  Uiso   1.00
O467   O     0.51924   0.49999   0.32681   0.00000  Uiso   1.00
O468   O     0.46177   0.43893   0.24999   0.00000  Uiso   1.00
O469   O     0.53821   0.43892   0.24999   0.00000  Uiso   1.00
O470   O     0.48076   0.50001   0.17319   0.00000  Uiso   1.00
O471   O     0.55720   0.50000   0.17319   0.00000  Uiso   1.00
Zn472  Zn    0.44896   0.50001   0.25000   0.00000  Uiso   1.00
Zn473  Zn    0.55104   0.49999   0.25000   0.00000  Uiso   1.00
O474   O     0.60602   0.54825   0.07985   0.00000  Uiso   1.00
C475   C     0.64156   0.53957   0.10421   0.00000  Uiso   1.00
H476   H     0.66355   0.51278   0.08729   0.00000  Uiso   1.00
H477   H     0.62784   0.53570   0.14639   0.00000  Uiso   1.00
H478   H     0.66316   0.56719   0.10051   0.00000  Uiso   1.00
O479   O     0.57934   0.37161   0.25511   0.00000  Uiso   1.00
C480   C     0.59536   0.35262   0.29527   0.00000  Uiso   1.00
H481   H     0.56790   0.33899   0.32657   0.00000  Uiso   1.00
H482   H     0.61264   0.37618   0.31327   0.00000  Uiso   1.00
H483   H     0.62145   0.66200   0.27891   0.00000  Uiso   1.00
O484   O     0.41631   0.37582   0.29252   0.00000  Uiso   1.00
C485   C     0.38578   0.38055   0.26029   0.00000  Uiso   1.00
H486   H     0.40315   0.38264   0.21822   0.00000  Uiso   1.00
H487   H     0.36088   0.35520   0.26743   0.00000  Uiso   1.00
H488   H     0.36596   0.40961   0.27111   0.00000  Uiso   1.00
O489   O     0.41474   0.62661   0.26340   0.00000  Uiso   1.00
C490   C     0.40578   0.61906   0.21424   0.00000  Uiso   1.00
H491   H     0.43460   0.60276   0.18687   0.00000  Uiso   1.00
H492   H     0.39826   0.64799   0.19545   0.00000  Uiso   1.00
H493   H     0.37516   0.59927   0.21987   0.00000  Uiso   1.00
O494   O     0.63556   0.46166   0.17208   0.00000  Uiso   1.00
C495   C     0.63898   0.41812   0.17233   0.00000  Uiso   1.00
H496   H     0.65012   0.40499   0.20604   0.00000  Uiso   1.00
H497   H     0.66324   0.40714   0.13615   0.00000  Uiso   1.00
H498   H     0.60529   0.40553   0.17097   0.00000  Uiso   1.00
C499   C     0.39784   0.45986   0.16850   0.00000  Uiso   1.00
H500   H     0.42856   0.44512   0.17418   0.00000  Uiso   1.00
O501   O     0.39010   0.45888   0.12555   0.00000  Uiso   1.00
O502   O     0.60226   0.53808   0.32875   0.00000  Uiso   1.00
C503   C     0.60697   0.58125   0.32672   0.00000  Uiso   1.00
H504   H     0.57753   0.59542   0.35540   0.00000  Uiso   1.00
H505   H     0.60619   0.59329   0.28777   0.00000  Uiso   1.00
H506   H     0.63882   0.59079   0.33731   0.00000  Uiso   1.00
O507   O     0.62501   0.47135   0.40966   0.00000  Uiso   1.00
C508   C     0.63249   0.44125   0.37008   0.00000  Uiso   1.00
H509   H     0.61734   0.45031   0.33774   0.00000  Uiso   1.00
H510   H     0.62107   0.41055   0.38650   0.00000  Uiso   1.00
H511   H     0.33636   0.43892   0.35213   0.00000  Uiso   1.00
C512   C     0.63762   0.46374   0.01213   0.00000  Uiso   1.00
H513   H     0.33722   0.47078   0.01931   0.00000  Uiso   1.00
O514   O     0.62930   0.42801   0.00333   0.00000  Uiso   1.00
O515   O     0.47210   0.47535   0.07897   0.00000  Uiso   1.00
C516   C     0.48623   0.43362   0.06778   0.00000  Uiso   1.00
H517   H     0.51174   0.42378   0.08961   0.00000  Uiso   1.00
H518   H     0.50035   0.42832   0.02541   0.00000  Uiso   1.00
H519   H     0.45627   0.41325   0.07992   0.00000  Uiso   1.00
O520   O     0.38337   0.48609   0.42265   0.00000  Uiso   1.00
C521   C     0.39174   0.44261   0.42075   0.00000  Uiso   1.00
H522   H     0.40562   0.43153   0.45369   0.00000  Uiso   1.00
H523   H     0.41492   0.43307   0.38304   0.00000  Uiso   1.00
H524   H     0.35962   0.42584   0.42448   0.00000  Uiso   1.00
O525   O     0.45241   0.57072   0.03351   0.00000  Uiso   1.00
C526   C     0.42618   0.56219   0.08416   0.00000  Uiso   1.00
H527   H     0.40334   0.58912   0.09836   0.00000  Uiso   1.00
H528   H     0.44938   0.55890   0.11048   0.00000  Uiso   1.00
H529   H     0.40509   0.53397   0.08742   0.00000  Uiso   1.00
C530   C     0.37369   0.56086   0.48970   0.00000  Uiso   1.00
H531   H     0.37133   0.58517   0.01829   0.00000  Uiso   1.00
O532   O     0.34289   0.55801   0.46743   0.00000  Uiso   1.00
O533   O     0.54134   0.43907   0.37889   0.00000  Uiso   1.00
C534   C     0.51967   0.40424   0.40558   0.00000  Uiso   1.00
H535   H     0.48619   0.41192   0.43295   0.00000  Uiso   1.00
H536   H     0.54254   0.38853   0.42690   0.00000  Uiso   1.00
H537   H     0.51226   0.38230   0.37681   0.00000  Uiso   1.00
C538   C     0.58327   0.62931   0.19809   0.00000  Uiso   1.00
H539   H     0.61643   0.64149   0.19887   0.00000  Uiso   1.00
O540   O     0.58152   0.60389   0.16483   0.00000  Uiso   1.00
C541   C     0.83339   0.57991   0.24685   0.00000  Uiso   1.00
C542   C     0.82548   0.51392   0.48110   0.00000  Uiso   1.00
C543   C     0.83320   0.49378   0.43340   0.00000  Uiso   1.00
C544   C     0.85790   0.50838   0.00967   0.00000  Uiso   1.00
C545   C     0.90322   0.49569   0.48600   0.00000  Uiso   1.00
C546   C     0.91246   0.47752   0.43596   0.00000  Uiso   1.00
C547   C     0.87418   0.47043   0.41454   0.00000  Uiso   1.00
C548   C     0.84303   0.50000   0.06220   0.00000  Uiso   1.00
C549   C     0.91989   0.51217   0.06843   0.00000  Uiso   1.00
C550   C     0.79843   0.49560   0.40706   0.00000  Uiso   1.00
C551   C     0.87372   0.64593   0.23287   0.00000  Uiso   1.00
C552   C     0.80940   0.49701   0.35056   0.00000  Uiso   1.00
C553   C     0.87297   0.35300   0.25014   0.00000  Uiso   1.00
C554   C     0.83169   0.37556   0.25914   0.00000  Uiso   1.00
C555   C     0.78959   0.35538   0.26641   0.00000  Uiso   1.00
C556   C     0.78967   0.64644   0.25625   0.00000  Uiso   1.00
C557   C     0.83222   0.62459   0.24279   0.00000  Uiso   1.00
C558   C     0.98390   0.47932   0.21244   0.00000  Uiso   1.00
C559   C     0.69859   0.48028   0.21164   0.00000  Uiso   1.00
C560   C     0.68195   0.51974   0.28806   0.00000  Uiso   1.00
C561   C     0.96761   0.52046   0.28776   0.00000  Uiso   1.00
C562   C     0.83262   0.42019   0.25440   0.00000  Uiso   1.00
C563   C     0.85808   0.50201   0.14927   0.00000  Uiso   1.00
C564   C     0.93501   0.49591   0.01780   0.00000  Uiso   1.00
C565   C     0.87329   0.50607   0.09302   0.00000  Uiso   1.00
C566   C     0.75372   0.50511   0.43481   0.00000  Uiso   1.00
C567   C     0.74803   0.53338   0.47610   0.00000  Uiso   1.00
C568   C     0.78495   0.53805   0.49988   0.00000  Uiso   1.00
H569   H     0.69276   0.53473   0.31937   0.00000  Uiso   1.00
N570   N     0.71426   0.50001   0.25002   0.00000  Uiso   1.00
N571   N     0.95239   0.49998   0.25000   0.00000  Uiso   1.00
O572   O     0.79512   0.56108   0.25001   0.00000  Uiso   1.00
O573   O     0.87157   0.56107   0.25001   0.00000  Uiso   1.00
O574   O     0.77613   0.50000   0.32681   0.00000  Uiso   1.00
O575   O     0.85258   0.49999   0.32681   0.00000  Uiso   1.00
O576   O     0.79510   0.43893   0.24999   0.00000  Uiso   1.00
O577   O     0.87154   0.43892   0.24999   0.00000  Uiso   1.00
O578   O     0.81409   0.50001   0.17319   0.00000  Uiso   1.00
O579   O     0.89053   0.50000   0.17319   0.00000  Uiso   1.00
Zn580  Zn    0.78229   0.50001   0.25000   0.00000  Uiso   1.00
Zn581  Zn    0.88438   0.49999   0.25000   0.00000  Uiso   1.00
O582   O     0.93935   0.54825   0.07985   0.00000  Uiso   1.00
C583   C     0.97490   0.53957   0.10421   0.00000  Uiso   1.00
H584   H     0.99688   0.51278   0.08729   0.00000  Uiso   1.00
H585   H     0.96117   0.53570   0.14639   0.00000  Uiso   1.00
H586   H     0.99649   0.56719   0.10051   0.00000  Uiso   1.00
O587   O     0.91268   0.37161   0.25511   0.00000  Uiso   1.00
C588   C     0.92869   0.35262   0.29527   0.00000  Uiso   1.00
H589   H     0.90123   0.33899   0.32657   0.00000  Uiso   1.00
H590   H     0.94597   0.37618   0.31327   0.00000  Uiso   1.00
H591   H     0.95478   0.66200   0.27891   0.00000  Uiso   1.00
O592   O     0.74965   0.37582   0.29252   0.00000  Uiso   1.00
C593   C     0.71911   0.38055   0.26029   0.00000  Uiso   1.00
H594   H     0.73648   0.38264   0.21822   0.00000  Uiso   1.00
H595   H     0.69421   0.35520   0.26743   0.00000  Uiso   1.00
H596   H     0.69929   0.40961   0.27111   0.00000  Uiso   1.00
O597   O     0.74808   0.62661   0.26340   0.00000  Uiso   1.00
C598   C     0.73911   0.61906   0.21424   0.00000  Uiso   1.00
H599   H     0.76794   0.60276   0.18687   0.00000  Uiso   1.00
H600   H     0.73159   0.64799   0.19545   0.00000  Uiso   1.00
H601   H     0.70849   0.59927   0.21987   0.00000  Uiso   1.00
O602   O     0.96889   0.46166   0.17208   0.00000  Uiso   1.00
C603   C     0.97231   0.41812   0.17233   0.00000  Uiso   1.00
H604   H     0.98345   0.40499   0.20604   0.00000  Uiso   1.00
H605   H     0.99657   0.40714   0.13615   0.00000  Uiso   1.00
H606   H     0.93862   0.40553   0.17097   0.00000  Uiso   1.00
C607   C     0.73117   0.45986   0.16850   0.00000  Uiso   1.00
H608   H     0.76190   0.44512   0.17418   0.00000  Uiso   1.00
O609   O     0.72343   0.45888   0.12555   0.00000  Uiso   1.00
O610   O     0.93560   0.53808   0.32875   0.00000  Uiso   1.00
C611   C     0.94031   0.58125   0.32672   0.00000  Uiso   1.00
H612   H     0.91086   0.59542   0.35540   0.00000  Uiso   1.00
H613   H     0.93952   0.59329   0.28777   0.00000  Uiso   1.00
H614   H     0.97215   0.59079   0.33731   0.00000  Uiso   1.00
O615   O     0.95834   0.47135   0.40966   0.00000  Uiso   1.00
C616   C     0.96583   0.44125   0.37008   0.00000  Uiso   1.00
H617   H     0.95068   0.45031   0.33774   0.00000  Uiso   1.00
H618   H     0.95441   0.41055   0.38650   0.00000  Uiso   1.00
H619   H     0.66969   0.43892   0.35213   0.00000  Uiso   1.00
C620   C     0.97095   0.46374   0.01213   0.00000  Uiso   1.00
H621   H     0.67055   0.47078   0.01931   0.00000  Uiso   1.00
O622   O     0.96264   0.42801   0.00333   0.00000  Uiso   1.00
O623   O     0.80544   0.47535   0.07897   0.00000  Uiso   1.00
C624   C     0.81957   0.43362   0.06778   0.00000  Uiso   1.00
H625   H     0.84507   0.42378   0.08961   0.00000  Uiso   1.00
H626   H     0.83368   0.42832   0.02541   0.00000  Uiso   1.00
H627   H     0.78961   0.41325   0.07992   0.00000  Uiso   1.00
O628   O     0.71670   0.48609   0.42265   0.00000  Uiso   1.00
C629   C     0.72507   0.44261   0.42075   0.00000  Uiso   1.00
H630   H     0.73895   0.43153   0.45369   0.00000  Uiso   1.00
H631   H     0.74825   0.43307   0.38304   0.00000  Uiso   1.00
H632   H     0.69295   0.42584   0.42448   0.00000  Uiso   1.00
O633   O     0.78575   0.57072   0.03351   0.00000  Uiso   1.00
C634   C     0.75951   0.56219   0.08416   0.00000  Uiso   1.00
H635   H     0.73667   0.58912   0.09836   0.00000  Uiso   1.00
H636   H     0.78272   0.55890   0.11048   0.00000  Uiso   1.00
H637   H     0.73843   0.53397   0.08742   0.00000  Uiso   1.00
C638   C     0.70703   0.56086   0.48970   0.00000  Uiso   1.00
H639   H     0.70466   0.58517   0.01829   0.00000  Uiso   1.00
O640   O     0.67622   0.55801   0.46743   0.00000  Uiso   1.00
O641   O     0.87467   0.43907   0.37889   0.00000  Uiso   1.00
C642   C     0.85300   0.40424   0.40558   0.00000  Uiso   1.00
H643   H     0.81952   0.41192   0.43295   0.00000  Uiso   1.00
H644   H     0.87587   0.38853   0.42690   0.00000  Uiso   1.00
H645   H     0.84559   0.38230   0.37681   0.00000  Uiso   1.00
C646   C     0.91661   0.62931   0.19809   0.00000  Uiso   1.00
H647   H     0.94976   0.64149   0.19887   0.00000  Uiso   1.00
O648   O     0.91486   0.60389   0.16483   0.00000  Uiso   1.00
C649   C     0.16672   0.91324   0.24685   0.00000  Uiso   1.00
C650   C     0.15882   0.84726   0.48110   0.00000  Uiso   1.00
C651   C     0.16653   0.82712   0.43340   0.00000  Uiso   1.00
C652   C     0.19123   0.84171   0.00967   0.00000  Uiso   1.00
C653   C     0.23655   0.82903   0.48600   0.00000  Uiso   1.00
C654   C     0.24579   0.81085   0.43596   0.00000  Uiso   1.00
C655   C     0.20751   0.80377   0.41454   0.00000  Uiso   1.00
C656   C     0.17636   0.83333   0.06220   0.00000  Uiso   1.00
C657   C     0.25322   0.84550   0.06843   0.00000  Uiso   1.00
C658   C     0.13177   0.82893   0.40706   0.00000  Uiso   1.00
C659   C     0.20705   0.97927   0.23287   0.00000  Uiso   1.00
C660   C     0.14273   0.83034   0.35056   0.00000  Uiso   1.00
C661   C     0.20631   0.68633   0.25014   0.00000  Uiso   1.00
C662   C     0.16502   0.70890   0.25914   0.00000  Uiso   1.00
C663   C     0.12293   0.68871   0.26641   0.00000  Uiso   1.00
C664   C     0.12300   0.97977   0.25625   0.00000  Uiso   1.00
C665   C     0.16556   0.95793   0.24279   0.00000  Uiso   1.00
C666   C     0.31723   0.81265   0.21244   0.00000  Uiso   1.00
C667   C     0.03193   0.81361   0.21164   0.00000  Uiso   1.00
C668   C     0.01529   0.85307   0.28806   0.00000  Uiso   1.00
C669   C     0.30095   0.85380   0.28776   0.00000  Uiso   1.00
C670   C     0.16595   0.75352   0.25440   0.00000  Uiso   1.00
C671   C     0.19141   0.83534   0.14927   0.00000  Uiso   1.00
C672   C     0.26834   0.82925   0.01780   0.00000  Uiso   1.00
C673   C     0.20662   0.83940   0.09302   0.00000  Uiso   1.00
C674   C     0.08706   0.83844   0.43481   0.00000  Uiso   1.00
C675   C     0.08136   0.86672   0.47610   0.00000  Uiso   1.00
C676   C     0.11828   0.87138   0.49988   0.00000  Uiso   1.00
H677   H     0.02609   0.86806   0.31937   0.00000  Uiso   1.00
N678   N     0.04760   0.83334   0.25002   0.00000  Uiso   1.00
N679   N     0.28573   0.83331   0.25000   0.00000  Uiso   1.00
O680   O     0.12846   0.89442   0.25001   0.00000  Uiso   1.00
O681   O     0.20490   0.89441   0.25001   0.00000  Uiso   1.00
O682   O     0.10947   0.83333   0.32681   0.00000  Uiso   1.00
O683   O     0.18591   0.83332   0.32681   0.00000  Uiso   1.00
O684   O     0.12843   0.77226   0.24999   0.00000  Uiso   1.00
O685   O     0.20488   0.77225   0.24999   0.00000  Uiso   1.00
O686   O     0.14742   0.83335   0.17319   0.00000  Uiso   1.00
O687   O     0.22387   0.83334   0.17319   0.00000  Uiso   1.00
Zn688  Zn    0.11562   0.83334   0.25000   0.00000  Uiso   1.00
Zn689  Zn    0.21771   0.83333   0.25000   0.00000  Uiso   1.00
O690   O     0.27269   0.88159   0.07985   0.00000  Uiso   1.00
C691   C     0.30823   0.87290   0.10421   0.00000  Uiso   1.00
H692   H     0.33021   0.84611   0.08729   0.00000  Uiso   1.00
H693   H     0.29451   0.86903   0.14639   0.00000  Uiso   1.00
H694   H     0.32983   0.90052   0.10051   0.00000  Uiso   1.00
O695   O     0.24601   0.70494   0.25511   0.00000  Uiso   1.00
C696   C     0.26202   0.68595   0.29527   0.00000  Uiso   1.00
H697   H     0.23457   0.67233   0.32657   0.00000  Uiso   1.00
H698   H     0.27930   0.70952   0.31327   0.00000  Uiso   1.00
H699   H     0.28812   0.99534   0.27891   0.00000  Uiso   1.00
O700   O     0.08298   0.70915   0.29252   0.00000  Uiso   1.00
C701   C     0.05244   0.71389   0.26029   0.00000  Uiso   1.00
H702   H     0.06982   0.71597   0.21822   0.00000  Uiso   1.00
H703   H     0.02754   0.68854   0.26743   0.00000  Uiso   1.00
H704   H     0.03263   0.74294   0.27111   0.00000  Uiso   1.00
O705   O     0.08141   0.95995   0.26340   0.00000  Uiso   1.00
C706   C     0.07245   0.95240   0.21424   0.00000  Uiso   1.00
H707   H     0.10127   0.93609   0.18687   0.00000  Uiso   1.00
H708   H     0.06492   0.98133   0.19545   0.00000  Uiso   1.00
H709   H     0.04182   0.93261   0.21987   0.00000  Uiso   1.00
O710   O     0.30223   0.79499   0.17208   0.00000  Uiso   1.00
C711   C     0.30564   0.75145   0.17233   0.00000  Uiso   1.00
H712   H     0.31679   0.73832   0.20604   0.00000  Uiso   1.00
H713   H     0.32990   0.74048   0.13615   0.00000  Uiso   1.00
H714   H     0.27195   0.73886   0.17097   0.00000  Uiso   1.00
C715   C     0.06450   0.79320   0.16850   0.00000  Uiso   1.00
H716   H     0.09523   0.77846   0.17418   0.00000  Uiso   1.00
O717   O     0.05676   0.79221   0.12555   0.00000  Uiso   1.00
O718   O     0.26893   0.87142   0.32875   0.00000  Uiso   1.00
C719   C     0.27364   0.91459   0.32672   0.00000  Uiso   1.00
H720   H     0.24420   0.92875   0.35540   0.00000  Uiso   1.00
H721   H     0.27285   0.92662   0.28777   0.00000  Uiso   1.00
H722   H     0.30549   0.92413   0.33731   0.00000  Uiso   1.00
O723   O     0.29168   0.80468   0.40966   0.00000  Uiso   1.00
C724   C     0.29916   0.77458   0.37008   0.00000  Uiso   1.00
H725   H     0.28401   0.78364   0.33774   0.00000  Uiso   1.00
H726   H     0.28774   0.74388   0.38650   0.00000  Uiso   1.00
H727   H     0.00302   0.77226   0.35213   0.00000  Uiso   1.00
C728   C     0.30428   0.79707   0.01213   0.00000  Uiso   1.00
H729   H     0.00388   0.80412   0.01931   0.00000  Uiso   1.00
O730   O     0.29597   0.76135   0.00333   0.00000  Uiso   1.00
O731   O     0.13877   0.80869   0.07897   0.00000  Uiso   1.00
C732   C     0.15290   0.76696   0.06778   0.00000  Uiso   1.00
H733   H     0.17840   0.75711   0.08961   0.00000  Uiso   1.00
H734   H     0.16702   0.76166   0.02541   0.00000  Uiso   1.00
H735   H     0.12294   0.74658   0.07992   0.00000  Uiso   1.00
O736   O     0.05003   0.81943   0.42265   0.00000  Uiso   1.00
C737   C     0.05840   0.77594   0.42075   0.00000  Uiso   1.00
H738   H     0.07228   0.76486   0.45369   0.00000  Uiso   1.00
H739   H     0.08159   0.76641   0.38304   0.00000  Uiso   1.00
H740   H     0.02629   0.75918   0.42448   0.00000  Uiso   1.00
O741   O     0.11908   0.90405   0.03351   0.00000  Uiso   1.00
C742   C     0.09284   0.89552   0.08416   0.00000  Uiso   1.00
H743   H     0.07000   0.92245   0.09836   0.00000  Uiso   1.00
H744   H     0.11605   0.89223   0.11048   0.00000  Uiso   1.00
H745   H     0.07176   0.86730   0.08742   0.00000  Uiso   1.00
C746   C     0.04036   0.89419   0.48970   0.00000  Uiso   1.00
H747   H     0.03799   0.91850   0.01829   0.00000  Uiso   1.00
O748   O     0.00955   0.89134   0.46743   0.00000  Uiso   1.00
O749   O     0.20800   0.77241   0.37889   0.00000  Uiso   1.00
C750   C     0.18633   0.73757   0.40558   0.00000  Uiso   1.00
H751   H     0.15285   0.74525   0.43295   0.00000  Uiso   1.00
H752   H     0.20921   0.72186   0.42690   0.00000  Uiso   1.00
H753   H     0.17892   0.71563   0.37681   0.00000  Uiso   1.00
C754   C     0.24994   0.96264   0.19809   0.00000  Uiso   1.00
H755   H     0.28309   0.97482   0.19887   0.00000  Uiso   1.00
O756   O     0.24819   0.93722   0.16483   0.00000  Uiso   1.00
C757   C     0.50005   0.91324   0.24685   0.00000  Uiso   1.00
C758   C     0.49215   0.84726   0.48110   0.00000  Uiso   1.00
C759   C     0.49986   0.82712   0.43340   0.00000  Uiso   1.00
C760   C     0.52456   0.84171   0.00967   0.00000  Uiso   1.00
C761   C     0.56989   0.82903   0.48600   0.00000  Uiso   1.00
C762   C     0.57913   0.81085   0.43596   0.00000  Uiso   1.00
C763   C     0.54084   0.80377   0.41454   0.00000  Uiso   1.00
C764   C     0.50970   0.83333   0.06220   0.00000  Uiso   1.00
C765   C     0.58656   0.84550   0.06843   0.00000  Uiso   1.00
C766   C     0.46510   0.82893   0.40706   0.00000  Uiso   1.00
C767   C     0.54038   0.97927   0.23287   0.00000  Uiso   1.00
C768   C     0.47606   0.83034   0.35056   0.00000  Uiso   1.00
C769   C     0.53964   0.68633   0.25014   0.00000  Uiso   1.00
C770   C     0.49836   0.70890   0.25914   0.00000  Uiso   1.00
C771   C     0.45626   0.68871   0.26641   0.00000  Uiso   1.00
C772   C     0.45634   0.97977   0.25625   0.00000  Uiso   1.00
C773   C     0.49889   0.95793   0.24279   0.00000  Uiso   1.00
C774   C     0.65056   0.81265   0.21244   0.00000  Uiso   1.00
C775   C     0.36526   0.81361   0.21164   0.00000  Uiso   1.00
C776   C     0.34862   0.85307   0.28806   0.00000  Uiso   1.00
C777   C     0.63428   0.85380   0.28776   0.00000  Uiso   1.00
C778   C     0.49929   0.75352   0.25440   0.00000  Uiso   1.00
C779   C     0.52474   0.83534   0.14927   0.00000  Uiso   1.00
C780   C     0.60168   0.82925   0.01780   0.00000  Uiso   1.00
C781   C     0.53996   0.83940   0.09302   0.00000  Uiso   1.00
C782   C     0.42039   0.83844   0.43481   0.00000  Uiso   1.00
C783   C     0.41470   0.86672   0.47610   0.00000  Uiso   1.00
C784   C     0.45162   0.87138   0.49988   0.00000  Uiso   1.00
H785   H     0.35943   0.86806   0.31937   0.00000  Uiso   1.00
N786   N     0.38093   0.83334   0.25002   0.00000  Uiso   1.00
N787   N     0.61906   0.83331   0.25000   0.00000  Uiso   1.00
O788   O     0.46179   0.89442   0.25001   0.00000  Uiso   1.00
O789   O     0.53823   0.89441   0.25001   0.00000  Uiso   1.00
O790   O     0.44280   0.83333   0.32681   0.00000  Uiso   1.00
O791   O     0.51924   0.83332   0.32681   0.00000  Uiso   1.00
O792   O     0.46177   0.77226   0.24999   0.00000  Uiso   1.00
O793   O     0.53821   0.77225   0.24999   0.00000  Uiso   1.00
O794   O     0.48076   0.83335   0.17319   0.00000  Uiso   1.00
O795   O     0.55720   0.83334   0.17319   0.00000  Uiso   1.00
Zn796  Zn    0.44896   0.83334   0.25000   0.00000  Uiso   1.00
Zn797  Zn    0.55104   0.83333   0.25000   0.00000  Uiso   1.00
O798   O     0.60602   0.88159   0.07985   0.00000  Uiso   1.00
C799   C     0.64156   0.87290   0.10421   0.00000  Uiso   1.00
H800   H     0.66355   0.84611   0.08729   0.00000  Uiso   1.00
H801   H     0.62784   0.86903   0.14639   0.00000  Uiso   1.00
H802   H     0.66316   0.90052   0.10051   0.00000  Uiso   1.00
O803   O     0.57934   0.70494   0.25511   0.00000  Uiso   1.00
C804   C     0.59536   0.68595   0.29527   0.00000  Uiso   1.00
H805   H     0.56790   0.67233   0.32657   0.00000  Uiso   1.00
H806   H     0.61264   0.70952   0.31327   0.00000  Uiso   1.00
H807   H     0.62145   0.99534   0.27891   0.00000  Uiso   1.00
O808   O     0.41631   0.70915   0.29252   0.00000  Uiso   1.00
C809   C     0.38578   0.71389   0.26029   0.00000  Uiso   1.00
H810   H     0.40315   0.71597   0.21822   0.00000  Uiso   1.00
H811   H     0.36088   0.68854   0.26743   0.00000  Uiso   1.00
H812   H     0.36596   0.74294   0.27111   0.00000  Uiso   1.00
O813   O     0.41474   0.95995   0.26340   0.00000  Uiso   1.00
C814   C     0.40578   0.95240   0.21424   0.00000  Uiso   1.00
H815   H     0.43460   0.93609   0.18687   0.00000  Uiso   1.00
H816   H     0.39826   0.98133   0.19545   0.00000  Uiso   1.00
H817   H     0.37516   0.93261   0.21987   0.00000  Uiso   1.00
O818   O     0.63556   0.79499   0.17208   0.00000  Uiso   1.00
C819   C     0.63898   0.75145   0.17233   0.00000  Uiso   1.00
H820   H     0.65012   0.73832   0.20604   0.00000  Uiso   1.00
H821   H     0.66324   0.74048   0.13615   0.00000  Uiso   1.00
H822   H     0.60529   0.73886   0.17097   0.00000  Uiso   1.00
C823   C     0.39784   0.79320   0.16850   0.00000  Uiso   1.00
H824   H     0.42856   0.77846   0.17418   0.00000  Uiso   1.00
O825   O     0.39010   0.79221   0.12555   0.00000  Uiso   1.00
O826   O     0.60226   0.87142   0.32875   0.00000  Uiso   1.00
C827   C     0.60697   0.91459   0.32672   0.00000  Uiso   1.00
H828   H     0.57753   0.92875   0.35540   0.00000  Uiso   1.00
H829   H     0.60619   0.92662   0.28777   0.00000  Uiso   1.00
H830   H     0.63882   0.92413   0.33731   0.00000  Uiso   1.00
O831   O     0.62501   0.80468   0.40966   0.00000  Uiso   1.00
C832   C     0.63249   0.77458   0.37008   0.00000  Uiso   1.00
H833   H     0.61734   0.78364   0.33774   0.00000  Uiso   1.00
H834   H     0.62107   0.74388   0.38650   0.00000  Uiso   1.00
H835   H     0.33636   0.77226   0.35213   0.00000  Uiso   1.00
C836   C     0.63762   0.79707   0.01213   0.00000  Uiso   1.00
H837   H     0.33722   0.80412   0.01931   0.00000  Uiso   1.00
O838   O     0.62930   0.76135   0.00333   0.00000  Uiso   1.00
O839   O     0.47210   0.80869   0.07897   0.00000  Uiso   1.00
C840   C     0.48623   0.76696   0.06778   0.00000  Uiso   1.00
H841   H     0.51174   0.75711   0.08961   0.00000  Uiso   1.00
H842   H     0.50035   0.76166   0.02541   0.00000  Uiso   1.00
H843   H     0.45627   0.74658   0.07992   0.00000  Uiso   1.00
O844   O     0.38337   0.81943   0.42265   0.00000  Uiso   1.00
C845   C     0.39174   0.77594   0.42075   0.00000  Uiso   1.00
H846   H     0.40562   0.76486   0.45369   0.00000  Uiso   1.00
H847   H     0.41492   0.76641   0.38304   0.00000  Uiso   1.00
H848   H     0.35962   0.75918   0.42448   0.00000  Uiso   1.00
O849   O     0.45241   0.90405   0.03351   0.00000  Uiso   1.00
C850   C     0.42618   0.89552   0.08416   0.00000  Uiso   1.00
H851   H     0.40334   0.92245   0.09836   0.00000  Uiso   1.00
H852   H     0.44938   0.89223   0.11048   0.00000  Uiso   1.00
H853   H     0.40509   0.86730   0.08742   0.00000  Uiso   1.00
C854   C     0.37369   0.89419   0.48970   0.00000  Uiso   1.00
H855   H     0.37133   0.91850   0.01829   0.00000  Uiso   1.00
O856   O     0.34289   0.89134   0.46743   0.00000  Uiso   1.00
O857   O     0.54134   0.77241   0.37889   0.00000  Uiso   1.00
C858   C     0.51967   0.73757   0.40558   0.00000  Uiso   1.00
H859   H     0.48619   0.74525   0.43295   0.00000  Uiso   1.00
H860   H     0.54254   0.72186   0.42690   0.00000  Uiso   1.00
H861   H     0.51226   0.71563   0.37681   0.00000  Uiso   1.00
C862   C     0.58327   0.96264   0.19809   0.00000  Uiso   1.00
H863   H     0.61643   0.97482   0.19887   0.00000  Uiso   1.00
O864   O     0.58152   0.93722   0.16483   0.00000  Uiso   1.00
C865   C     0.83339   0.91324   0.24685   0.00000  Uiso   1.00
C866   C     0.82548   0.84726   0.48110   0.00000  Uiso   1.00
C867   C     0.83320   0.82712   0.43340   0.00000  Uiso   1.00
C868   C     0.85790   0.84171   0.00967   0.00000  Uiso   1.00
C869   C     0.90322   0.82903   0.48600   0.00000  Uiso   1.00
C870   C     0.91246   0.81085   0.43596   0.00000  Uiso   1.00
C871   C     0.87418   0.80377   0.41454   0.00000  Uiso   1.00
C872   C     0.84303   0.83333   0.06220   0.00000  Uiso   1.00
C873   C     0.91989   0.84550   0.06843   0.00000  Uiso   1.00
C874   C     0.79843   0.82893   0.40706   0.00000  Uiso   1.00
C875   C     0.87372   0.97927   0.23287   0.00000  Uiso   1.00
C876   C     0.80940   0.83034   0.35056   0.00000  Uiso   1.00
C877   C     0.87297   0.68633   0.25014   0.00000  Uiso   1.00
C878   C     0.83169   0.70890   0.25914   0.00000  Uiso   1.00
C879   C     0.78959   0.68871   0.26641   0.00000  Uiso   1.00
C880   C     0.78967   0.97977   0.25625   0.00000  Uiso   1.00
C881   C     0.83222   0.95793   0.24279   0.00000  Uiso   1.00
C882   C     0.98390   0.81265   0.21244   0.00000  Uiso   1.00
C883   C     0.69859   0.81361   0.21164   0.00000  Uiso   1.00
C884   C     0.68195   0.85307   0.28806   0.00000  Uiso   1.00
C885   C     0.96761   0.85380   0.28776   0.00000  Uiso   1.00
C886   C     0.83262   0.75352   0.25440   0.00000  Uiso   1.00
C887   C     0.85808   0.83534   0.14927   0.00000  Uiso   1.00
C888   C     0.93501   0.82925   0.01780   0.00000  Uiso   1.00
C889   C     0.87329   0.83940   0.09302   0.00000  Uiso   1.00
C890   C     0.75372   0.83844   0.43481   0.00000  Uiso   1.00
C891   C     0.74803   0.86672   0.47610   0.00000  Uiso   1.00
C892   C     0.78495   0.87138   0.49988   0.00000  Uiso   1.00
H893   H     0.69276   0.86806   0.31937   0.00000  Uiso   1.00
N894   N     0.71426   0.83334   0.25002   0.00000  Uiso   1.00
N895   N     0.95239   0.83331   0.25000   0.00000  Uiso   1.00
O896   O     0.79512   0.89442   0.25001   0.00000  Uiso   1.00
O897   O     0.87157   0.89441   0.25001   0.00000  Uiso   1.00
O898   O     0.77613   0.83333   0.32681   0.00000  Uiso   1.00
O899   O     0.85258   0.83332   0.32681   0.00000  Uiso   1.00
O900   O     0.79510   0.77226   0.24999   0.00000  Uiso   1.00
O901   O     0.87154   0.77225   0.24999   0.00000  Uiso   1.00
O902   O     0.81409   0.83335   0.17319   0.00000  Uiso   1.00
O903   O     0.89053   0.83334   0.17319   0.00000  Uiso   1.00
Zn904  Zn    0.78229   0.83334   0.25000   0.00000  Uiso   1.00
Zn905  Zn    0.88438   0.83333   0.25000   0.00000  Uiso   1.00
O906   O     0.93935   0.88159   0.07985   0.00000  Uiso   1.00
C907   C     0.97490   0.87290   0.10421   0.00000  Uiso   1.00
H908   H     0.99688   0.84611   0.08729   0.00000  Uiso   1.00
H909   H     0.96117   0.86903   0.14639   0.00000  Uiso   1.00
H910   H     0.99649   0.90052   0.10051   0.00000  Uiso   1.00
O911   O     0.91268   0.70494   0.25511   0.00000  Uiso   1.00
C912   C     0.92869   0.68595   0.29527   0.00000  Uiso   1.00
H913   H     0.90123   0.67233   0.32657   0.00000  Uiso   1.00
H914   H     0.94597   0.70952   0.31327   0.00000  Uiso   1.00
H915   H     0.95478   0.99534   0.27891   0.00000  Uiso   1.00
O916   O     0.74965   0.70915   0.29252   0.00000  Uiso   1.00
C917   C     0.71911   0.71389   0.26029   0.00000  Uiso   1.00
H918   H     0.73648   0.71597   0.21822   0.00000  Uiso   1.00
H919   H     0.69421   0.68854   0.26743   0.00000  Uiso   1.00
H920   H     0.69929   0.74294   0.27111   0.00000  Uiso   1.00
O921   O     0.74808   0.95995   0.26340   0.00000  Uiso   1.00
C922   C     0.73911   0.95240   0.21424   0.00000  Uiso   1.00
H923   H     0.76794   0.93609   0.18687   0.00000  Uiso   1.00
H924   H     0.73159   0.98133   0.19545   0.00000  Uiso   1.00
H925   H     0.70849   0.93261   0.21987   0.00000  Uiso   1.00
O926   O     0.96889   0.79499   0.17208   0.00000  Uiso   1.00
C927   C     0.97231   0.75145   0.17233   0.00000  Uiso   1.00
H928   H     0.98345   0.73832   0.20604   0.00000  Uiso   1.00
H929   H     0.99657   0.74048   0.13615   0.00000  Uiso   1.00
H930   H     0.93862   0.73886   0.17097   0.00000  Uiso   1.00
C931   C     0.73117   0.79320   0.16850   0.00000  Uiso   1.00
H932   H     0.76190   0.77846   0.17418   0.00000  Uiso   1.00
O933   O     0.72343   0.79221   0.12555   0.00000  Uiso   1.00
O934   O     0.93560   0.87142   0.32875   0.00000  Uiso   1.00
C935   C     0.94031   0.91459   0.32672   0.00000  Uiso   1.00
H936   H     0.91086   0.92875   0.35540   0.00000  Uiso   1.00
H937   H     0.93952   0.92662   0.28777   0.00000  Uiso   1.00
H938   H     0.97215   0.92413   0.33731   0.00000  Uiso   1.00
O939   O     0.95834   0.80468   0.40966   0.00000  Uiso   1.00
C940   C     0.96583   0.77458   0.37008   0.00000  Uiso   1.00
H941   H     0.95068   0.78364   0.33774   0.00000  Uiso   1.00
H942   H     0.95441   0.74388   0.38650   0.00000  Uiso   1.00
H943   H     0.66969   0.77226   0.35213   0.00000  Uiso   1.00
C944   C     0.97095   0.79707   0.01213   0.00000  Uiso   1.00
H945   H     0.67055   0.80412   0.01931   0.00000  Uiso   1.00
O946   O     0.96264   0.76135   0.00333   0.00000  Uiso   1.00
O947   O     0.80544   0.80869   0.07897   0.00000  Uiso   1.00
C948   C     0.81957   0.76696   0.06778   0.00000  Uiso   1.00
H949   H     0.84507   0.75711   0.08961   0.00000  Uiso   1.00
H950   H     0.83368   0.76166   0.02541   0.00000  Uiso   1.00
H951   H     0.78961   0.74658   0.07992   0.00000  Uiso   1.00
O952   O     0.71670   0.81943   0.42265   0.00000  Uiso   1.00
C953   C     0.72507   0.77594   0.42075   0.00000  Uiso   1.00
H954   H     0.73895   0.76486   0.45369   0.00000  Uiso   1.00
H955   H     0.74825   0.76641   0.38304   0.00000  Uiso   1.00
H956   H     0.69295   0.75918   0.42448   0.00000  Uiso   1.00
O957   O     0.78575   0.90405   0.03351   0.00000  Uiso   1.00
C958   C     0.75951   0.89552   0.08416   0.00000  Uiso   1.00
H959   H     0.73667   0.92245   0.09836   0.00000  Uiso   1.00
H960   H     0.78272   0.89223   0.11048   0.00000  Uiso   1.00
H961   H     0.73843   0.86730   0.08742   0.00000  Uiso   1.00
C962   C     0.70703   0.89419   0.48970   0.00000  Uiso   1.00
H963   H     0.70466   0.91850   0.01829   0.00000  Uiso   1.00
O964   O     0.67622   0.89134   0.46743   0.00000  Uiso   1.00
O965   O     0.87467   0.77241   0.37889   0.00000  Uiso   1.00
C966   C     0.85300   0.73757   0.40558   0.00000  Uiso   1.00
H967   H     0.81952   0.74525   0.43295   0.00000  Uiso   1.00
H968   H     0.87587   0.72186   0.42690   0.00000  Uiso   1.00
H969   H     0.84559   0.71563   0.37681   0.00000  Uiso   1.00
C970   C     0.91661   0.96264   0.19809   0.00000  Uiso   1.00
H971   H     0.94976   0.97482   0.19887   0.00000  Uiso   1.00
O972   O     0.91486   0.93722   0.16483   0.00000  Uiso   1.00
C973   C     0.16672   0.24658   0.74685   0.00000  Uiso   1.00
C974   C     0.15882   0.18059   0.98110   0.00000  Uiso   1.00
C975   C     0.16653   0.16045   0.93340   0.00000  Uiso   1.00
C976   C     0.19123   0.17505   0.50967   0.00000  Uiso   1.00
C977   C     0.23655   0.16236   0.98600   0.00000  Uiso   1.00
C978   C     0.24579   0.14419   0.93596   0.00000  Uiso   1.00
C979   C     0.20751   0.13710   0.91454   0.00000  Uiso   1.00
C980   C     0.17636   0.16667   0.56220   0.00000  Uiso   1.00
C981   C     0.25322   0.17884   0.56843   0.00000  Uiso   1.00
C982   C     0.13177   0.16227   0.90706   0.00000  Uiso   1.00
C983   C     0.20705   0.31260   0.73287   0.00000  Uiso   1.00
C984   C     0.14273   0.16367   0.85056   0.00000  Uiso   1.00
C985   C     0.20631   0.01967   0.75014   0.00000  Uiso   1.00
C986   C     0.16502   0.04223   0.75914   0.00000  Uiso   1.00
C987   C     0.12293   0.02204   0.76641   0.00000  Uiso   1.00
C988   C     0.12300   0.31310   0.75625   0.00000  Uiso   1.00
C989   C     0.16556   0.29126   0.74279   0.00000  Uiso   1.00
C990   C     0.31723   0.14599   0.71244   0.00000  Uiso   1.00
C991   C     0.03193   0.14694   0.71164   0.00000  Uiso   1.00
C992   C     0.01529   0.18641   0.78806   0.00000  Uiso   1.00
C993   C     0.30095   0.18713   0.78776   0.00000  Uiso   1.00
C994   C     0.16595   0.08686   0.75440   0.00000  Uiso   1.00
C995   C     0.19141   0.16867   0.64927   0.00000  Uiso   1.00
C996   C     0.26834   0.16258   0.51780   0.00000  Uiso   1.00
C997   C     0.20662   0.17274   0.59302   0.00000  Uiso   1.00
C998   C     0.08706   0.17178   0.93481   0.00000  Uiso   1.00
C999   C     0.08136   0.20005   0.97610   0.00000  Uiso   1.00
C1000  C     0.11828   0.20472   0.99988   0.00000  Uiso   1.00
H1001  H     0.02609   0.20140   0.81937   0.00000  Uiso   1.00
N1002  N     0.04760   0.16668   0.75002   0.00000  Uiso   1.00
N1003  N     0.28573   0.16665   0.75000   0.00000  Uiso   1.00
O1004  O     0.12846   0.22775   0.75001   0.00000  Uiso   1.00
O1005  O     0.20490   0.22774   0.75001   0.00000  Uiso   1.00
O1006  O     0.10947   0.16666   0.82681   0.00000  Uiso   1.00
O1007  O     0.18591   0.16665   0.82681   0.00000  Uiso   1.00
O1008  O     0.12843   0.10559   0.74999   0.00000  Uiso   1.00
O1009  O     0.20488   0.10558   0.74999   0.00000  Uiso   1.00
O1010  O     0.14742   0.16668   0.67319   0.00000  Uiso   1.00
O1011  O     0.22387   0.16667   0.67319   0.00000  Uiso   1.00
Zn1012 Zn    0.11562   0.16667   0.75000   0.00000  Uiso   1.00
Zn1013 Zn    0.21771   0.16666   0.75000   0.00000  Uiso   1.00
O1014  O     0.27269   0.21492   0.57985   0.00000  Uiso   1.00
C1015  C     0.30823   0.20624   0.60421   0.00000  Uiso   1.00
H1016  H     0.33021   0.17945   0.58729   0.00000  Uiso   1.00
H1017  H     0.29451   0.20237   0.64639   0.00000  Uiso   1.00
H1018  H     0.32983   0.23386   0.60051   0.00000  Uiso   1.00
O1019  O     0.24601   0.03828   0.75511   0.00000  Uiso   1.00
C1020  C     0.26202   0.01929   0.79527   0.00000  Uiso   1.00
H1021  H     0.23457   0.00566   0.82657   0.00000  Uiso   1.00
H1022  H     0.27930   0.04285   0.81327   0.00000  Uiso   1.00
H1023  H     0.28812   0.32867   0.77891   0.00000  Uiso   1.00
O1024  O     0.08298   0.04248   0.79252   0.00000  Uiso   1.00
C1025  C     0.05244   0.04722   0.76029   0.00000  Uiso   1.00
H1026  H     0.06982   0.04930   0.71822   0.00000  Uiso   1.00
H1027  H     0.02754   0.02187   0.76743   0.00000  Uiso   1.00
H1028  H     0.03263   0.07627   0.77111   0.00000  Uiso   1.00
O1029  O     0.08141   0.29328   0.76340   0.00000  Uiso   1.00
C1030  C     0.07245   0.28573   0.71424   0.00000  Uiso   1.00
H1031  H     0.10127   0.26943   0.68687   0.00000  Uiso   1.00
H1032  H     0.06492   0.31466   0.69545   0.00000  Uiso   1.00
H1033  H     0.04182   0.26594   0.71987   0.00000  Uiso   1.00
O1034  O     0.30223   0.12833   0.67208   0.00000  Uiso   1.00
C1035  C     0.30564   0.08478   0.67233   0.00000  Uiso   1.00
H1036  H     0.31679   0.07166   0.70604   0.00000  Uiso   1.00
H1037  H     0.32990   0.07381   0.63615   0.00000  Uiso   1.00
H1038  H     0.27195   0.07220   0.67097   0.00000  Uiso   1.00
C1039  C     0.06450   0.12653   0.66850   0.00000  Uiso   1.00
H1040  H     0.09523   0.11179   0.67418   0.00000  Uiso   1.00
O1041  O     0.05676   0.12555   0.62555   0.00000  Uiso   1.00
O1042  O     0.26893   0.20475   0.82875   0.00000  Uiso   1.00
C1043  C     0.27364   0.24792   0.82672   0.00000  Uiso   1.00
H1044  H     0.24420   0.26209   0.85540   0.00000  Uiso   1.00
H1045  H     0.27285   0.25995   0.78777   0.00000  Uiso   1.00
H1046  H     0.30549   0.25746   0.83731   0.00000  Uiso   1.00
O1047  O     0.29168   0.13801   0.90966   0.00000  Uiso   1.00
C1048  C     0.29916   0.10792   0.87008   0.00000  Uiso   1.00
H1049  H     0.28401   0.11697   0.83774   0.00000  Uiso   1.00
H1050  H     0.28774   0.07722   0.88650   0.00000  Uiso   1.00
H1051  H     0.00302   0.10559   0.85213   0.00000  Uiso   1.00
C1052  C     0.30428   0.13041   0.51213   0.00000  Uiso   1.00
H1053  H     0.00388   0.13745   0.51931   0.00000  Uiso   1.00
O1054  O     0.29597   0.09468   0.50333   0.00000  Uiso   1.00
O1055  O     0.13877   0.14202   0.57897   0.00000  Uiso   1.00
C1056  C     0.15290   0.10029   0.56778   0.00000  Uiso   1.00
H1057  H     0.17840   0.09045   0.58961   0.00000  Uiso   1.00
H1058  H     0.16702   0.09499   0.52541   0.00000  Uiso   1.00
H1059  H     0.12294   0.07991   0.57992   0.00000  Uiso   1.00
O1060  O     0.05003   0.15276   0.92265   0.00000  Uiso   1.00
C1061  C     0.05840   0.10927   0.92075   0.00000  Uiso   1.00
H1062  H     0.07228   0.09820   0.95369   0.00000  Uiso   1.00
H1063  H     0.08159   0.09974   0.88304   0.00000  Uiso   1.00
H1064  H     0.02629   0.09251   0.92448   0.00000  Uiso   1.00
O1065  O     0.11908   0.23739   0.53351   0.00000  Uiso   1.00
C1066  C     0.09284   0.22885   0.58416   0.00000  Uiso   1.00
H1067  H     0.07000   0.25578   0.59836   0.00000  Uiso   1.00
H1068  H     0.11605   0.22557   0.61048   0.00000  Uiso   1.00
H1069  H     0.07176   0.20063   0.58742   0.00000  Uiso   1.00
C1070  C     0.04036   0.22753   0.98970   0.00000  Uiso   1.00
H1071  H     0.03799   0.25184   0.51829   0.00000  Uiso   1.00
O1072  O     0.00955   0.22468   0.96743   0.00000  Uiso   1.00
O1073  O     0.20800   0.10574   0.87889   0.00000  Uiso   1.00
C1074  C     0.18633   0.07091   0.90558   0.00000  Uiso   1.00
H1075  H     0.15285   0.07859   0.93295   0.00000  Uiso   1.00
H1076  H     0.20921   0.05520   0.92690   0.00000  Uiso   1.00
H1077  H     0.17892   0.04897   0.87681   0.00000  Uiso   1.00
C1078  C     0.24994   0.29597   0.69809   0.00000  Uiso   1.00
H1079  H     0.28309   0.30816   0.69887   0.00000  Uiso   1.00
O1080  O     0.24819   0.27055   0.66483   0.00000  Uiso   1.00
C1081  C     0.50005   0.24658   0.74685   0.00000  Uiso   1.00
C1082  C     0.49215   0.18059   0.98110   0.00000  Uiso   1.00
C1083  C     0.49986   0.16045   0.93340   0.00000  Uiso   1.00
C1084  C     0.52456   0.17505   0.50967   0.00000  Uiso   1.00
C1085  C     0.56989   0.16236   0.98600   0.00000  Uiso   1.00
C1086  C     0.57913   0.14419   0.93596   0.00000  Uiso   1.00
C1087  C     0.54084   0.13710   0.91454   0.00000  Uiso   1.00
C1088  C     0.50970   0.16667   0.56220   0.00000  Uiso   1.00
C1089  C     0.58656   0.17884   0.56843   0.00000  Uiso   1.00
C1090  C     0.46510   0.16227   0.90706   0.00000  Uiso   1.00
C1091  C     0.54038   0.31260   0.73287   0.00000  Uiso   1.00
C1092  C     0.47606   0.16367   0.85056   0.00000  Uiso   1.00
C1093  C     0.53964   0.01967   0.75014   0.00000  Uiso   1.00
C1094  C     0.49836   0.04223   0.75914   0.00000  Uiso   1.00
C1095  C     0.45626   0.02204   0.76641   0.00000  Uiso   1.00
C1096  C     0.45634   0.31310   0.75625   0.00000  Uiso   1.00
C1097  C     0.49889   0.29126   0.74279   0.00000  Uiso   1.00
C1098  C     0.65056   0.14599   0.71244   0.00000  Uiso   1.00
C1099  C     0.36526   0.14694   0.71164   0.00000  Uiso   1.00
C1100  C     0.34862   0.18641   0.78806   0.00000  Uiso   1.00
C1101  C     0.63428   0.18713   0.78776   0.00000  Uiso   1.00
C1102  C     0.49929   0.08686   0.75440   0.00000  Uiso   1.00
C1103  C     0.52474   0.16867   0.64927   0.00000  Uiso   1.00
C1104  C     0.60168   0.16258   0.51780   0.00000  Uiso   1.00
C1105  C     0.53996   0.17274   0.59302   0.00000  Uiso   1.00
C1106  C     0.42039   0.17178   0.93481   0.00000  Uiso   1.00
C1107  C     0.41470   0.20005   0.97610   0.00000  Uiso   1.00
C1108  C     0.45162   0.20472   0.99988   0.00000  Uiso   1.00
H1109  H     0.35943   0.20140   0.81937   0.00000  Uiso   1.00
N1110  N     0.38093   0.16668   0.75002   0.00000  Uiso   1.00
N1111  N     0.61906   0.16665   0.75000   0.00000  Uiso   1.00
O1112  O     0.46179   0.22775   0.75001   0.00000  Uiso   1.00
O1113  O     0.53823   0.22774   0.75001   0.00000  Uiso   1.00
O1114  O     0.44280   0.16666   0.82681   0.00000  Uiso   1.00
O1115  O     0.51924   0.16665   0.82681   0.00000  Uiso   1.00
O1116  O     0.46177   0.10559   0.74999   0.00000  Uiso   1.00
O1117  O     0.53821   0.10558   0.74999   0.00000  Uiso   1.00
O1118  O     0.48076   0.16668   0.67319   0.00000  Uiso   1.00
O1119  O     0.55720   0.16667   0.67319   0.00000  Uiso   1.00
Zn1120 Zn    0.44896   0.16667   0.75000   0.00000  Uiso   1.00
Zn1121 Zn    0.55104   0.16666   0.75000   0.00000  Uiso   1.00
O1122  O     0.60602   0.21492   0.57985   0.00000  Uiso   1.00
C1123  C     0.64156   0.20624   0.60421   0.00000  Uiso   1.00
H1124  H     0.66355   0.17945   0.58729   0.00000  Uiso   1.00
H1125  H     0.62784   0.20237   0.64639   0.00000  Uiso   1.00
H1126  H     0.66316   0.23386   0.60051   0.00000  Uiso   1.00
O1127  O     0.57934   0.03828   0.75511   0.00000  Uiso   1.00
C1128  C     0.59536   0.01929   0.79527   0.00000  Uiso   1.00
H1129  H     0.56790   0.00566   0.82657   0.00000  Uiso   1.00
H1130  H     0.61264   0.04285   0.81327   0.00000  Uiso   1.00
H1131  H     0.62145   0.32867   0.77891   0.00000  Uiso   1.00
O1132  O     0.41631   0.04248   0.79252   0.00000  Uiso   1.00
C1133  C     0.38578   0.04722   0.76029   0.00000  Uiso   1.00
H1134  H     0.40315   0.04930   0.71822   0.00000  Uiso   1.00
H1135  H     0.36088   0.02187   0.76743   0.00000  Uiso   1.00
H1136  H     0.36596   0.07627   0.77111   0.00000  Uiso   1.00
O1137  O     0.41474   0.29328   0.76340   0.00000  Uiso   1.00
C1138  C     0.40578   0.28573   0.71424   0.00000  Uiso   1.00
H1139  H     0.43460   0.26943   0.68687   0.00000  Uiso   1.00
H1140  H     0.39826   0.31466   0.69545   0.00000  Uiso   1.00
H1141  H     0.37516   0.26594   0.71987   0.00000  Uiso   1.00
O1142  O     0.63556   0.12833   0.67208   0.00000  Uiso   1.00
C1143  C     0.63898   0.08478   0.67233   0.00000  Uiso   1.00
H1144  H     0.65012   0.07166   0.70604   0.00000  Uiso   1.00
H1145  H     0.66324   0.07381   0.63615   0.00000  Uiso   1.00
H1146  H     0.60529   0.07220   0.67097   0.00000  Uiso   1.00
C1147  C     0.39784   0.12653   0.66850   0.00000  Uiso   1.00
H1148  H     0.42856   0.11179   0.67418   0.00000  Uiso   1.00
O1149  O     0.39010   0.12555   0.62555   0.00000  Uiso   1.00
O1150  O     0.60226   0.20475   0.82875   0.00000  Uiso   1.00
C1151  C     0.60697   0.24792   0.82672   0.00000  Uiso   1.00
H1152  H     0.57753   0.26209   0.85540   0.00000  Uiso   1.00
H1153  H     0.60619   0.25995   0.78777   0.00000  Uiso   1.00
H1154  H     0.63882   0.25746   0.83731   0.00000  Uiso   1.00
O1155  O     0.62501   0.13801   0.90966   0.00000  Uiso   1.00
C1156  C     0.63249   0.10792   0.87008   0.00000  Uiso   1.00
H1157  H     0.61734   0.11697   0.83774   0.00000  Uiso   1.00
H1158  H     0.62107   0.07722   0.88650   0.00000  Uiso   1.00
H1159  H     0.33636   0.10559   0.85213   0.00000  Uiso   1.00
C1160  C     0.63762   0.13041   0.51213   0.00000  Uiso   1.00
H1161  H     0.33722   0.13745   0.51931   0.00000  Uiso   1.00
O1162  O     0.62930   0.09468   0.50333   0.00000  Uiso   1.00
O1163  O     0.47210   0.14202   0.57897   0.00000  Uiso   1.00
C1164  C     0.48623   0.10029   0.56778   0.00000  Uiso   1.00
H1165  H     0.51174   0.09045   0.58961   0.00000  Uiso   1.00
H1166  H     0.50035   0.09499   0.52541   0.00000  Uiso   1.00
H1167  H     0.45627   0.07991   0.57992   0.00000  Uiso   1.00
O1168  O     0.38337   0.15276   0.92265   0.00000  Uiso   1.00
C1169  C     0.39174   0.10927   0.92075   0.00000  Uiso   1.00
H1170  H     0.40562   0.09820   0.95369   0.00000  Uiso   1.00
H1171  H     0.41492   0.09974   0.88304   0.00000  Uiso   1.00
H1172  H     0.35962   0.09251   0.92448   0.00000  Uiso   1.00
O1173  O     0.45241   0.23739   0.53351   0.00000  Uiso   1.00
C1174  C     0.42618   0.22885   0.58416   0.00000  Uiso   1.00
H1175  H     0.40334   0.25578   0.59836   0.00000  Uiso   1.00
H1176  H     0.44938   0.22557   0.61048   0.00000  Uiso   1.00
H1177  H     0.40509   0.20063   0.58742   0.00000  Uiso   1.00
C1178  C     0.37369   0.22753   0.98970   0.00000  Uiso   1.00
H1179  H     0.37133   0.25184   0.51829   0.00000  Uiso   1.00
O1180  O     0.34289   0.22468   0.96743   0.00000  Uiso   1.00
O1181  O     0.54134   0.10574   0.87889   0.00000  Uiso   1.00
C1182  C     0.51967   0.07091   0.90558   0.00000  Uiso   1.00
H1183  H     0.48619   0.07859   0.93295   0.00000  Uiso   1.00
H1184  H     0.54254   0.05520   0.92690   0.00000  Uiso   1.00
H1185  H     0.51226   0.04897   0.87681   0.00000  Uiso   1.00
C1186  C     0.58327   0.29597   0.69809   0.00000  Uiso   1.00
H1187  H     0.61643   0.30816   0.69887   0.00000  Uiso   1.00
O1188  O     0.58152   0.27055   0.66483   0.00000  Uiso   1.00
C1189  C     0.83339   0.24658   0.74685   0.00000  Uiso   1.00
C1190  C     0.82548   0.18059   0.98110   0.00000  Uiso   1.00
C1191  C     0.83320   0.16045   0.93340   0.00000  Uiso   1.00
C1192  C     0.85790   0.17505   0.50967   0.00000  Uiso   1.00
C1193  C     0.90322   0.16236   0.98600   0.00000  Uiso   1.00
C1194  C     0.91246   0.14419   0.93596   0.00000  Uiso   1.00
C1195  C     0.87418   0.13710   0.91454   0.00000  Uiso   1.00
C1196  C     0.84303   0.16667   0.56220   0.00000  Uiso   1.00
C1197  C     0.91989   0.17884   0.56843   0.00000  Uiso   1.00
C1198  C     0.79843   0.16227   0.90706   0.00000  Uiso   1.00
C1199  C     0.87372   0.31260   0.73287   0.00000  Uiso   1.00
C1200  C     0.80940   0.16367   0.85056   0.00000  Uiso   1.00
C1201  C     0.87297   0.01967   0.75014   0.00000  Uiso   1.00
C1202  C     0.83169   0.04223   0.75914   0.00000  Uiso   1.00
C1203  C     0.78959   0.02204   0.76641   0.00000  Uiso   1.00
C1204  C     0.78967   0.31310   0.75625   0.00000  Uiso   1.00
C1205  C     0.83222   0.29126   0.74279   0.00000  Uiso   1.00
C1206  C     0.98390   0.14599   0.71244   0.00000  Uiso   1.00
C1207  C     0.69859   0.14694   0.71164   0.00000  Uiso   1.00
C1208  C     0.68195   0.18641   0.78806   0.00000  Uiso   1.00
C1209  C     0.96761   0.18713   0.78776   0.00000  Uiso   1.00
C1210  C     0.83262   0.08686   0.75440   0.00000  Uiso   1.00
C1211  C     0.85808   0.16867   0.64927   0.00000  Uiso   1.00
C1212  C     0.93501   0.16258   0.51780   0.00000  Uiso   1.00
C1213  C     0.87329   0.17274   0.59302   0.00000  Uiso   1.00
C1214  C     0.75372   0.17178   0.93481   0.00000  Uiso   1.00
C1215  C     0.74803   0.20005   0.97610   0.00000  Uiso   1.00
C1216  C     0.78495   0.20472   0.99988   0.00000  Uiso   1.00
H1217  H     0.69276   0.20140   0.81937   0.00000  Uiso   1.00
N1218  N     0.71426   0.16668   0.75002   0.00000  Uiso   1.00
N1219  N     0.95239   0.16665   0.75000   0.00000  Uiso   1.00
O1220  O     0.79512   0.22775   0.75001   0.00000  Uiso   1.00
O1221  O     0.87157   0.22774   0.75001   0.00000  Uiso   1.00
O1222  O     0.77613   0.16666   0.82681   0.00000  Uiso   1.00
O1223  O     0.85258   0.16665   0.82681   0.00000  Uiso   1.00
O1224  O     0.79510   0.10559   0.74999   0.00000  Uiso   1.00
O1225  O     0.87154   0.10558   0.74999   0.00000  Uiso   1.00
O1226  O     0.81409   0.16668   0.67319   0.00000  Uiso   1.00
O1227  O     0.89053   0.16667   0.67319   0.00000  Uiso   1.00
Zn1228 Zn    0.78229   0.16667   0.75000   0.00000  Uiso   1.00
Zn1229 Zn    0.88438   0.16666   0.75000   0.00000  Uiso   1.00
O1230  O     0.93935   0.21492   0.57985   0.00000  Uiso   1.00
C1231  C     0.97490   0.20624   0.60421   0.00000  Uiso   1.00
H1232  H     0.99688   0.17945   0.58729   0.00000  Uiso   1.00
H1233  H     0.96117   0.20237   0.64639   0.00000  Uiso   1.00
H1234  H     0.99649   0.23386   0.60051   0.00000  Uiso   1.00
O1235  O     0.91268   0.03828   0.75511   0.00000  Uiso   1.00
C1236  C     0.92869   0.01929   0.79527   0.00000  Uiso   1.00
H1237  H     0.90123   0.00566   0.82657   0.00000  Uiso   1.00
H1238  H     0.94597   0.04285   0.81327   0.00000  Uiso   1.00
H1239  H     0.95478   0.32867   0.77891   0.00000  Uiso   1.00
O1240  O     0.74965   0.04248   0.79252   0.00000  Uiso   1.00
C1241  C     0.71911   0.04722   0.76029   0.00000  Uiso   1.00
H1242  H     0.73648   0.04930   0.71822   0.00000  Uiso   1.00
H1243  H     0.69421   0.02187   0.76743   0.00000  Uiso   1.00
H1244  H     0.69929   0.07627   0.77111   0.00000  Uiso   1.00
O1245  O     0.74808   0.29328   0.76340   0.00000  Uiso   1.00
C1246  C     0.73911   0.28573   0.71424   0.00000  Uiso   1.00
H1247  H     0.76794   0.26943   0.68687   0.00000  Uiso   1.00
H1248  H     0.73159   0.31466   0.69545   0.00000  Uiso   1.00
H1249  H     0.70849   0.26594   0.71987   0.00000  Uiso   1.00
O1250  O     0.96889   0.12833   0.67208   0.00000  Uiso   1.00
C1251  C     0.97231   0.08478   0.67233   0.00000  Uiso   1.00
H1252  H     0.98345   0.07166   0.70604   0.00000  Uiso   1.00
H1253  H     0.99657   0.07381   0.63615   0.00000  Uiso   1.00
H1254  H     0.93862   0.07220   0.67097   0.00000  Uiso   1.00
C1255  C     0.73117   0.12653   0.66850   0.00000  Uiso   1.00
H1256  H     0.76190   0.11179   0.67418   0.00000  Uiso   1.00
O1257  O     0.72343   0.12555   0.62555   0.00000  Uiso   1.00
O1258  O     0.93560   0.20475   0.82875   0.00000  Uiso   1.00
C1259  C     0.94031   0.24792   0.82672   0.00000  Uiso   1.00
H1260  H     0.91086   0.26209   0.85540   0.00000  Uiso   1.00
H1261  H     0.93952   0.25995   0.78777   0.00000  Uiso   1.00
H1262  H     0.97215   0.25746   0.83731   0.00000  Uiso   1.00
O1263  O     0.95834   0.13801   0.90966   0.00000  Uiso   1.00
C1264  C     0.96583   0.10792   0.87008   0.00000  Uiso   1.00
H1265  H     0.95068   0.11697   0.83774   0.00000  Uiso   1.00
H1266  H     0.95441   0.07722   0.88650   0.00000  Uiso   1.00
H1267  H     0.66969   0.10559   0.85213   0.00000  Uiso   1.00
C1268  C     0.97095   0.13041   0.51213   0.00000  Uiso   1.00
H1269  H     0.67055   0.13745   0.51931   0.00000  Uiso   1.00
O1270  O     0.96264   0.09468   0.50333   0.00000  Uiso   1.00
O1271  O     0.80544   0.14202   0.57897   0.00000  Uiso   1.00
C1272  C     0.81957   0.10029   0.56778   0.00000  Uiso   1.00
H1273  H     0.84507   0.09045   0.58961   0.00000  Uiso   1.00
H1274  H     0.83368   0.09499   0.52541   0.00000  Uiso   1.00
H1275  H     0.78961   0.07991   0.57992   0.00000  Uiso   1.00
O1276  O     0.71670   0.15276   0.92265   0.00000  Uiso   1.00
C1277  C     0.72507   0.10927   0.92075   0.00000  Uiso   1.00
H1278  H     0.73895   0.09820   0.95369   0.00000  Uiso   1.00
H1279  H     0.74825   0.09974   0.88304   0.00000  Uiso   1.00
H1280  H     0.69295   0.09251   0.92448   0.00000  Uiso   1.00
O1281  O     0.78575   0.23739   0.53351   0.00000  Uiso   1.00
C1282  C     0.75951   0.22885   0.58416   0.00000  Uiso   1.00
H1283  H     0.73667   0.25578   0.59836   0.00000  Uiso   1.00
H1284  H     0.78272   0.22557   0.61048   0.00000  Uiso   1.00
H1285  H     0.73843   0.20063   0.58742   0.00000  Uiso   1.00
C1286  C     0.70703   0.22753   0.98970   0.00000  Uiso   1.00
H1287  H     0.70466   0.25184   0.51829   0.00000  Uiso   1.00
O1288  O     0.67622   0.22468   0.96743   0.00000  Uiso   1.00
O1289  O     0.87467   0.10574   0.87889   0.00000  Uiso   1.00
C1290  C     0.85300   0.07091   0.90558   0.00000  Uiso   1.00
H1291  H     0.81952   0.07859   0.93295   0.00000  Uiso   1.00
H1292  H     0.87587   0.05520   0.92690   0.00000  Uiso   1.00
H1293  H     0.84559   0.04897   0.87681   0.00000  Uiso   1.00
C1294  C     0.91661   0.29597   0.69809   0.00000  Uiso   1.00
H1295  H     0.94976   0.30816   0.69887   0.00000  Uiso   1.00
O1296  O     0.91486   0.27055   0.66483   0.00000  Uiso   1.00
C1297  C     0.16672   0.57991   0.74685   0.00000  Uiso   1.00
C1298  C     0.15882   0.51392   0.98110   0.00000  Uiso   1.00
C1299  C     0.16653   0.49378   0.93340   0.00000  Uiso   1.00
C1300  C     0.19123   0.50838   0.50967   0.00000  Uiso   1.00
C1301  C     0.23655   0.49569   0.98600   0.00000  Uiso   1.00
C1302  C     0.24579   0.47752   0.93596   0.00000  Uiso   1.00
C1303  C     0.20751   0.47043   0.91454   0.00000  Uiso   1.00
C1304  C     0.17636   0.50000   0.56220   0.00000  Uiso   1.00
C1305  C     0.25322   0.51217   0.56843   0.00000  Uiso   1.00
C1306  C     0.13177   0.49560   0.90706   0.00000  Uiso   1.00
C1307  C     0.20705   0.64593   0.73287   0.00000  Uiso   1.00
C1308  C     0.14273   0.49701   0.85056   0.00000  Uiso   1.00
C1309  C     0.20631   0.35300   0.75014   0.00000  Uiso   1.00
C1310  C     0.16502   0.37556   0.75914   0.00000  Uiso   1.00
C1311  C     0.12293   0.35538   0.76641   0.00000  Uiso   1.00
C1312  C     0.12300   0.64644   0.75625   0.00000  Uiso   1.00
C1313  C     0.16556   0.62459   0.74279   0.00000  Uiso   1.00
C1314  C     0.31723   0.47932   0.71244   0.00000  Uiso   1.00
C1315  C     0.03193   0.48028   0.71164   0.00000  Uiso   1.00
C1316  C     0.01529   0.51974   0.78806   0.00000  Uiso   1.00
C1317  C     0.30095   0.52046   0.78776   0.00000  Uiso   1.00
C1318  C     0.16595   0.42019   0.75440   0.00000  Uiso   1.00
C1319  C     0.19141   0.50201   0.64927   0.00000  Uiso   1.00
C1320  C     0.26834   0.49591   0.51780   0.00000  Uiso   1.00
C1321  C     0.20662   0.50607   0.59302   0.00000  Uiso   1.00
C1322  C     0.08706   0.50511   0.93481   0.00000  Uiso   1.00
C1323  C     0.08136   0.53338   0.97610   0.00000  Uiso   1.00
C1324  C     0.11828   0.53805   0.99988   0.00000  Uiso   1.00
H1325  H     0.02609   0.53473   0.81937   0.00000  Uiso   1.00
N1326  N     0.04760   0.50001   0.75002   0.00000  Uiso   1.00
N1327  N     0.28573   0.49998   0.75000   0.00000  Uiso   1.00
O1328  O     0.12846   0.56108   0.75001   0.00000  Uiso   1.00
O1329  O     0.20490   0.56107   0.75001   0.00000  Uiso   1.00
O1330  O     0.10947   0.50000   0.82681   0.00000  Uiso   1.00
O1331  O     0.18591   0.49999   0.82681   0.00000  Uiso   1.00
O1332  O     0.12843   0.43893   0.74999   0.00000  Uiso   1.00
O1333  O     0.20488   0.43892   0.74999   0.00000  Uiso   1.00
O1334  O     0.14742   0.50001   0.67319   0.00000  Uiso   1.00
O1335  O     0.22387   0.50000   0.67319   0.00000  Uiso   1.00
Zn1336 Zn    0.11562   0.50001   0.75000   0.00000  Uiso   1.00
Zn1337 Zn    0.21771   0.49999   0.75000   0.00000  Uiso   1.00
O1338  O     0.27269   0.54825   0.57985   0.00000  Uiso   1.00
C1339  C     0.30823   0.53957   0.60421   0.00000  Uiso   1.00
H1340  H     0.33021   0.51278   0.58729   0.00000  Uiso   1.00
H1341  H     0.29451   0.53570   0.64639   0.00000  Uiso   1.00
H1342  H     0.32983   0.56719   0.60051   0.00000  Uiso   1.00
O1343  O     0.24601   0.37161   0.75511   0.00000  Uiso   1.00
C1344  C     0.26202   0.35262   0.79527   0.00000  Uiso   1.00
H1345  H     0.23457   0.33899   0.82657   0.00000  Uiso   1.00
H1346  H     0.27930   0.37618   0.81327   0.00000  Uiso   1.00
H1347  H     0.28812   0.66200   0.77891   0.00000  Uiso   1.00
O1348  O     0.08298   0.37582   0.79252   0.00000  Uiso   1.00
C1349  C     0.05244   0.38055   0.76029   0.00000  Uiso   1.00
H1350  H     0.06982   0.38264   0.71822   0.00000  Uiso   1.00
H1351  H     0.02754   0.35520   0.76743   0.00000  Uiso   1.00
H1352  H     0.03263   0.40961   0.77111   0.00000  Uiso   1.00
O1353  O     0.08141   0.62661   0.76340   0.00000  Uiso   1.00
C1354  C     0.07245   0.61906   0.71424   0.00000  Uiso   1.00
H1355  H     0.10127   0.60276   0.68687   0.00000  Uiso   1.00
H1356  H     0.06492   0.64799   0.69545   0.00000  Uiso   1.00
H1357  H     0.04182   0.59927   0.71987   0.00000  Uiso   1.00
O1358  O     0.30223   0.46166   0.67208   0.00000  Uiso   1.00
C1359  C     0.30564   0.41812   0.67233   0.00000  Uiso   1.00
H1360  H     0.31679   0.40499   0.70604   0.00000  Uiso   1.00
H1361  H     0.32990   0.40714   0.63615   0.00000  Uiso   1.00
H1362  H     0.27195   0.40553   0.67097   0.00000  Uiso   1.00
C1363  C     0.06450   0.45986   0.66850   0.00000  Uiso   1.00
H1364  H     0.09523   0.44512   0.67418   0.00000  Uiso   1.00
O1365  O     0.05676   0.45888   0.62555   0.00000  Uiso   1.00
O1366  O     0.26893   0.53808   0.82875   0.00000  Uiso   1.00
C1367  C     0.27364   0.58125   0.82672   0.00000  Uiso   1.00
H1368  H     0.24420   0.59542   0.85540   0.00000  Uiso   1.00
H1369  H     0.27285   0.59329   0.78777   0.00000  Uiso   1.00
H1370  H     0.30549   0.59079   0.83731   0.00000  Uiso   1.00
O1371  O     0.29168   0.47135   0.90966   0.00000  Uiso   1.00
C1372  C     0.29916   0.44125   0.87008   0.00000  Uiso   1.00
H1373  H     0.28401   0.45031   0.83774   0.00000  Uiso   1.00
H1374  H     0.28774   0.41055   0.88650   0.00000  Uiso   1.00
H1375  H     0.00302   0.43892   0.85213   0.00000  Uiso   1.00
C1376  C     0.30428   0.46374   0.51213   0.00000  Uiso   1.00
H1377  H     0.00388   0.47078   0.51931   0.00000  Uiso   1.00
O1378  O     0.29597   0.42801   0.50333   0.00000  Uiso   1.00
O1379  O     0.13877   0.47535   0.57897   0.00000  Uiso   1.00
C1380  C     0.15290   0.43362   0.56778   0.00000  Uiso   1.00
H1381  H     0.17840   0.42378   0.58961   0.00000  Uiso   1.00
H1382  H     0.16702   0.42832   0.52541   0.00000  Uiso   1.00
H1383  H     0.12294   0.41325   0.57992   0.00000  Uiso   1.00
O1384  O     0.05003   0.48609   0.92265   0.00000  Uiso   1.00
C1385  C     0.05840   0.44261   0.92075   0.00000  Uiso   1.00
H1386  H     0.07228   0.43153   0.95369   0.00000  Uiso   1.00
H1387  H     0.08159   0.43307   0.88304   0.00000  Uiso   1.00
H1388  H     0.02629   0.42584   0.92448   0.00000  Uiso   1.00
O1389  O     0.11908   0.57072   0.53351   0.00000  Uiso   1.00
C1390  C     0.09284   0.56219   0.58416   0.00000  Uiso   1.00
H1391  H     0.07000   0.58912   0.59836   0.00000  Uiso   1.00
H1392  H     0.11605   0.55890   0.61048   0.00000  Uiso   1.00
H1393  H     0.07176   0.53397   0.58742   0.00000  Uiso   1.00
C1394  C     0.04036   0.56086   0.98970   0.00000  Uiso   1.00
H1395  H     0.03799   0.58517   0.51829   0.00000  Uiso   1.00
O1396  O     0.00955   0.55801   0.96743   0.00000  Uiso   1.00
O1397  O     0.20800   0.43907   0.87889   0.00000  Uiso   1.00
C1398  C     0.18633   0.40424   0.90558   0.00000  Uiso   1.00
H1399  H     0.15285   0.41192   0.93295   0.00000  Uiso   1.00
H1400  H     0.20921   0.38853   0.92690   0.00000  Uiso   1.00
H1401  H     0.17892   0.38230   0.87681   0.00000  Uiso   1.00
C1402  C     0.24994   0.62931   0.69809   0.00000  Uiso   1.00
H1403  H     0.28309   0.64149   0.69887   0.00000  Uiso   1.00
O1404  O     0.24819   0.60389   0.66483   0.00000  Uiso   1.00
C1405  C     0.50005   0.57991   0.74685   0.00000  Uiso   1.00
C1406  C     0.49215   0.51392   0.98110   0.00000  Uiso   1.00
C1407  C     0.49986   0.49378   0.93340   0.00000  Uiso   1.00
C1408  C     0.52456   0.50838   0.50967   0.00000  Uiso   1.00
C1409  C     0.56989   0.49569   0.98600   0.00000  Uiso   1.00
C1410  C     0.57913   0.47752   0.93596   0.00000  Uiso   1.00
C1411  C     0.54084   0.47043   0.91454   0.00000  Uiso   1.00
C1412  C     0.50970   0.50000   0.56220   0.00000  Uiso   1.00
C1413  C     0.58656   0.51217   0.56843   0.00000  Uiso   1.00
C1414  C     0.46510   0.49560   0.90706   0.00000  Uiso   1.00
C1415  C     0.54038   0.64593   0.73287   0.00000  Uiso   1.00
C1416  C     0.47606   0.49701   0.85056   0.00000  Uiso   1.00
C1417  C     0.53964   0.35300   0.75014   0.00000  Uiso   1.00
C1418  C     0.49836   0.37556   0.75914   0.00000  Uiso   1.00
C1419  C     0.45626   0.35538   0.76641   0.00000  Uiso   1.00
C1420  C     0.45634   0.64644   0.75625   0.00000  Uiso   1.00
C1421  C     0.49889   0.62459   0.74279   0.00000  Uiso   1.00
C1422  C     0.65056   0.47932   0.71244   0.00000  Uiso   1.00
C1423  C     0.36526   0.48028   0.71164   0.00000  Uiso   1.00
C1424  C     0.34862   0.51974   0.78806   0.00000  Uiso   1.00
C1425  C     0.63428   0.52046   0.78776   0.00000  Uiso   1.00
C1426  C     0.49929   0.42019   0.75440   0.00000  Uiso   1.00
C1427  C     0.52474   0.50201   0.64927   0.00000  Uiso   1.00
C1428  C     0.60168   0.49591   0.51780   0.00000  Uiso   1.00
C1429  C     0.53996   0.50607   0.59302   0.00000  Uiso   1.00
C1430  C     0.42039   0.50511   0.93481   0.00000  Uiso   1.00
C1431  C     0.41470   0.53338   0.97610   0.00000  Uiso   1.00
C1432  C     0.45162   0.53805   0.99988   0.00000  Uiso   1.00
H1433  H     0.35943   0.53473   0.81937   0.00000  Uiso   1.00
N1434  N     0.38093   0.50001   0.75002   0.00000  Uiso   1.00
N1435  N     0.61906   0.49998   0.75000   0.00000  Uiso   1.00
O1436  O     0.46179   0.56108   0.75001   0.00000  Uiso   1.00
O1437  O     0.53823   0.56107   0.75001   0.00000  Uiso   1.00
O1438  O     0.44280   0.50000   0.82681   0.00000  Uiso   1.00
O1439  O     0.51924   0.49999   0.82681   0.00000  Uiso   1.00
O1440  O     0.46177   0.43893   0.74999   0.00000  Uiso   1.00
O1441  O     0.53821   0.43892   0.74999   0.00000  Uiso   1.00
O1442  O     0.48076   0.50001   0.67319   0.00000  Uiso   1.00
O1443  O     0.55720   0.50000   0.67319   0.00000  Uiso   1.00
Zn1444 Zn    0.44896   0.50001   0.75000   0.00000  Uiso   1.00
Zn1445 Zn    0.55104   0.49999   0.75000   0.00000  Uiso   1.00
O1446  O     0.60602   0.54825   0.57985   0.00000  Uiso   1.00
C1447  C     0.64156   0.53957   0.60421   0.00000  Uiso   1.00
H1448  H     0.66355   0.51278   0.58729   0.00000  Uiso   1.00
H1449  H     0.62784   0.53570   0.64639   0.00000  Uiso   1.00
H1450  H     0.66316   0.56719   0.60051   0.00000  Uiso   1.00
O1451  O     0.57934   0.37161   0.75511   0.00000  Uiso   1.00
C1452  C     0.59536   0.35262   0.79527   0.00000  Uiso   1.00
H1453  H     0.56790   0.33899   0.82657   0.00000  Uiso   1.00
H1454  H     0.61264   0.37618   0.81327   0.00000  Uiso   1.00
H1455  H     0.62145   0.66200   0.77891   0.00000  Uiso   1.00
O1456  O     0.41631   0.37582   0.79252   0.00000  Uiso   1.00
C1457  C     0.38578   0.38055   0.76029   0.00000  Uiso   1.00
H1458  H     0.40315   0.38264   0.71822   0.00000  Uiso   1.00
H1459  H     0.36088   0.35520   0.76743   0.00000  Uiso   1.00
H1460  H     0.36596   0.40961   0.77111   0.00000  Uiso   1.00
O1461  O     0.41474   0.62661   0.76340   0.00000  Uiso   1.00
C1462  C     0.40578   0.61906   0.71424   0.00000  Uiso   1.00
H1463  H     0.43460   0.60276   0.68687   0.00000  Uiso   1.00
H1464  H     0.39826   0.64799   0.69545   0.00000  Uiso   1.00
H1465  H     0.37516   0.59927   0.71987   0.00000  Uiso   1.00
O1466  O     0.63556   0.46166   0.67208   0.00000  Uiso   1.00
C1467  C     0.63898   0.41812   0.67233   0.00000  Uiso   1.00
H1468  H     0.65012   0.40499   0.70604   0.00000  Uiso   1.00
H1469  H     0.66324   0.40714   0.63615   0.00000  Uiso   1.00
H1470  H     0.60529   0.40553   0.67097   0.00000  Uiso   1.00
C1471  C     0.39784   0.45986   0.66850   0.00000  Uiso   1.00
H1472  H     0.42856   0.44512   0.67418   0.00000  Uiso   1.00
O1473  O     0.39010   0.45888   0.62555   0.00000  Uiso   1.00
O1474  O     0.60226   0.53808   0.82875   0.00000  Uiso   1.00
C1475  C     0.60697   0.58125   0.82672   0.00000  Uiso   1.00
H1476  H     0.57753   0.59542   0.85540   0.00000  Uiso   1.00
H1477  H     0.60619   0.59329   0.78777   0.00000  Uiso   1.00
H1478  H     0.63882   0.59079   0.83731   0.00000  Uiso   1.00
O1479  O     0.62501   0.47135   0.90966   0.00000  Uiso   1.00
C1480  C     0.63249   0.44125   0.87008   0.00000  Uiso   1.00
H1481  H     0.61734   0.45031   0.83774   0.00000  Uiso   1.00
H1482  H     0.62107   0.41055   0.88650   0.00000  Uiso   1.00
H1483  H     0.33636   0.43892   0.85213   0.00000  Uiso   1.00
C1484  C     0.63762   0.46374   0.51213   0.00000  Uiso   1.00
H1485  H     0.33722   0.47078   0.51931   0.00000  Uiso   1.00
O1486  O     0.62930   0.42801   0.50333   0.00000  Uiso   1.00
O1487  O     0.47210   0.47535   0.57897   0.00000  Uiso   1.00
C1488  C     0.48623   0.43362   0.56778   0.00000  Uiso   1.00
H1489  H     0.51174   0.42378   0.58961   0.00000  Uiso   1.00
H1490  H     0.50035   0.42832   0.52541   0.00000  Uiso   1.00
H1491  H     0.45627   0.41325   0.57992   0.00000  Uiso   1.00
O1492  O     0.38337   0.48609   0.92265   0.00000  Uiso   1.00
C1493  C     0.39174   0.44261   0.92075   0.00000  Uiso   1.00
H1494  H     0.40562   0.43153   0.95369   0.00000  Uiso   1.00
H1495  H     0.41492   0.43307   0.88304   0.00000  Uiso   1.00
H1496  H     0.35962   0.42584   0.92448   0.00000  Uiso   1.00
O1497  O     0.45241   0.57072   0.53351   0.00000  Uiso   1.00
C1498  C     0.42618   0.56219   0.58416   0.00000  Uiso   1.00
H1499  H     0.40334   0.58912   0.59836   0.00000  Uiso   1.00
H1500  H     0.44938   0.55890   0.61048   0.00000  Uiso   1.00
H1501  H     0.40509   0.53397   0.58742   0.00000  Uiso   1.00
C1502  C     0.37369   0.56086   0.98970   0.00000  Uiso   1.00
H1503  H     0.37133   0.58517   0.51829   0.00000  Uiso   1.00
O1504  O     0.34289   0.55801   0.96743   0.00000  Uiso   1.00
O1505  O     0.54134   0.43907   0.87889   0.00000  Uiso   1.00
C1506  C     0.51967   0.40424   0.90558   0.00000  Uiso   1.00
H1507  H     0.48619   0.41192   0.93295   0.00000  Uiso   1.00
H1508  H     0.54254   0.38853   0.92690   0.00000  Uiso   1.00
H1509  H     0.51226   0.38230   0.87681   0.00000  Uiso   1.00
C1510  C     0.58327   0.62931   0.69809   0.00000  Uiso   1.00
H1511  H     0.61643   0.64149   0.69887   0.00000  Uiso   1.00
O1512  O     0.58152   0.60389   0.66483   0.00000  Uiso   1.00
C1513  C     0.83339   0.57991   0.74685   0.00000  Uiso   1.00
C1514  C     0.82548   0.51392   0.98110   0.00000  Uiso   1.00
C1515  C     0.83320   0.49378   0.93340   0.00000  Uiso   1.00
C1516  C     0.85790   0.50838   0.50967   0.00000  Uiso   1.00
C1517  C     0.90322   0.49569   0.98600   0.00000  Uiso   1.00
C1518  C     0.91246   0.47752   0.93596   0.00000  Uiso   1.00
C1519  C     0.87418   0.47043   0.91454   0.00000  Uiso   1.00
C1520  C     0.84303   0.50000   0.56220   0.00000  Uiso   1.00
C1521  C     0.91989   0.51217   0.56843   0.00000  Uiso   1.00
C1522  C     0.79843   0.49560   0.90706   0.00000  Uiso   1.00
C1523  C     0.87372   0.64593   0.73287   0.00000  Uiso   1.00
C1524  C     0.80940   0.49701   0.85056   0.00000  Uiso   1.00
C1525  C     0.87297   0.35300   0.75014   0.00000  Uiso   1.00
C1526  C     0.83169   0.37556   0.75914   0.00000  Uiso   1.00
C1527  C     0.78959   0.35538   0.76641   0.00000  Uiso   1.00
C1528  C     0.78967   0.64644   0.75625   0.00000  Uiso   1.00
C1529  C     0.83222   0.62459   0.74279   0.00000  Uiso   1.00
C1530  C     0.98390   0.47932   0.71244   0.00000  Uiso   1.00
C1531  C     0.69859   0.48028   0.71164   0.00000  Uiso   1.00
C1532  C     0.68195   0.51974   0.78806   0.00000  Uiso   1.00
C1533  C     0.96761   0.52046   0.78776   0.00000  Uiso   1.00
C1534  C     0.83262   0.42019   0.75440   0.00000  Uiso   1.00
C1535  C     0.85808   0.50201   0.64927   0.00000  Uiso   1.00
C1536  C     0.93501   0.49591   0.51780   0.00000  Uiso   1.00
C1537  C     0.87329   0.50607   0.59302   0.00000  Uiso   1.00
C1538  C     0.75372   0.50511   0.93481   0.00000  Uiso   1.00
C1539  C     0.74803   0.53338   0.97610   0.00000  Uiso   1.00
C1540  C     0.78495   0.53805   0.99988   0.00000  Uiso   1.00
H1541  H     0.69276   0.53473   0.81937   0.00000  Uiso   1.00
N1542  N     0.71426   0.50001   0.75002   0.00000  Uiso   1.00
N1543  N     0.95239   0.49998   0.75000   0.00000  Uiso   1.00
O1544  O     0.79512   0.56108   0.75001   0.00000  Uiso   1.00
O1545  O     0.87157   0.56107   0.75001   0.00000  Uiso   1.00
O1546  O     0.77613   0.50000   0.82681   0.00000  Uiso   1.00
O1547  O     0.85258   0.49999   0.82681   0.00000  Uiso   1.00
O1548  O     0.79510   0.43893   0.74999   0.00000  Uiso   1.00
O1549  O     0.87154   0.43892   0.74999   0.00000  Uiso   1.00
O1550  O     0.81409   0.50001   0.67319   0.00000  Uiso   1.00
O1551  O     0.89053   0.50000   0.67319   0.00000  Uiso   1.00
Zn1552 Zn    0.78229   0.50001   0.75000   0.00000  Uiso   1.00
Zn1553 Zn    0.88438   0.49999   0.75000   0.00000  Uiso   1.00
O1554  O     0.93935   0.54825   0.57985   0.00000  Uiso   1.00
C1555  C     0.97490   0.53957   0.60421   0.00000  Uiso   1.00
H1556  H     0.99688   0.51278   0.58729   0.00000  Uiso   1.00
H1557  H     0.96117   0.53570   0.64639   0.00000  Uiso   1.00
H1558  H     0.99649   0.56719   0.60051   0.00000  Uiso   1.00
O1559  O     0.91268   0.37161   0.75511   0.00000  Uiso   1.00
C1560  C     0.92869   0.35262   0.79527   0.00000  Uiso   1.00
H1561  H     0.90123   0.33899   0.82657   0.00000  Uiso   1.00
H1562  H     0.94597   0.37618   0.81327   0.00000  Uiso   1.00
H1563  H     0.95478   0.66200   0.77891   0.00000  Uiso   1.00
O1564  O     0.74965   0.37582   0.79252   0.00000  Uiso   1.00
C1565  C     0.71911   0.38055   0.76029   0.00000  Uiso   1.00
H1566  H     0.73648   0.38264   0.71822   0.00000  Uiso   1.00
H1567  H     0.69421   0.35520   0.76743   0.00000  Uiso   1.00
H1568  H     0.69929   0.40961   0.77111   0.00000  Uiso   1.00
O1569  O     0.74808   0.62661   0.76340   0.00000  Uiso   1.00
C1570  C     0.73911   0.61906   0.71424   0.00000  Uiso   1.00
H1571  H     0.76794   0.60276   0.68687   0.00000  Uiso   1.00
H1572  H     0.73159   0.64799   0.69545   0.00000  Uiso   1.00
H1573  H     0.70849   0.59927   0.71987   0.00000  Uiso   1.00
O1574  O     0.96889   0.46166   0.67208   0.00000  Uiso   1.00
C1575  C     0.97231   0.41812   0.67233   0.00000  Uiso   1.00
H1576  H     0.98345   0.40499   0.70604   0.00000  Uiso   1.00
H1577  H     0.99657   0.40714   0.63615   0.00000  Uiso   1.00
H1578  H     0.93862   0.40553   0.67097   0.00000  Uiso   1.00
C1579  C     0.73117   0.45986   0.66850   0.00000  Uiso   1.00
H1580  H     0.76190   0.44512   0.67418   0.00000  Uiso   1.00
O1581  O     0.72343   0.45888   0.62555   0.00000  Uiso   1.00
O1582  O     0.93560   0.53808   0.82875   0.00000  Uiso   1.00
C1583  C     0.94031   0.58125   0.82672   0.00000  Uiso   1.00
H1584  H     0.91086   0.59542   0.85540   0.00000  Uiso   1.00
H1585  H     0.93952   0.59329   0.78777   0.00000  Uiso   1.00
H1586  H     0.97215   0.59079   0.83731   0.00000  Uiso   1.00
O1587  O     0.95834   0.47135   0.90966   0.00000  Uiso   1.00
C1588  C     0.96583   0.44125   0.87008   0.00000  Uiso   1.00
H1589  H     0.95068   0.45031   0.83774   0.00000  Uiso   1.00
H1590  H     0.95441   0.41055   0.88650   0.00000  Uiso   1.00
H1591  H     0.66969   0.43892   0.85213   0.00000  Uiso   1.00
C1592  C     0.97095   0.46374   0.51213   0.00000  Uiso   1.00
H1593  H     0.67055   0.47078   0.51931   0.00000  Uiso   1.00
O1594  O     0.96264   0.42801   0.50333   0.00000  Uiso   1.00
O1595  O     0.80544   0.47535   0.57897   0.00000  Uiso   1.00
C1596  C     0.81957   0.43362   0.56778   0.00000  Uiso   1.00
H1597  H     0.84507   0.42378   0.58961   0.00000  Uiso   1.00
H1598  H     0.83368   0.42832   0.52541   0.00000  Uiso   1.00
H1599  H     0.78961   0.41325   0.57992   0.00000  Uiso   1.00
O1600  O     0.71670   0.48609   0.92265   0.00000  Uiso   1.00
C1601  C     0.72507   0.44261   0.92075   0.00000  Uiso   1.00
H1602  H     0.73895   0.43153   0.95369   0.00000  Uiso   1.00
H1603  H     0.74825   0.43307   0.88304   0.00000  Uiso   1.00
H1604  H     0.69295   0.42584   0.92448   0.00000  Uiso   1.00
O1605  O     0.78575   0.57072   0.53351   0.00000  Uiso   1.00
C1606  C     0.75951   0.56219   0.58416   0.00000  Uiso   1.00
H1607  H     0.73667   0.58912   0.59836   0.00000  Uiso   1.00
H1608  H     0.78272   0.55890   0.61048   0.00000  Uiso   1.00
H1609  H     0.73843   0.53397   0.58742   0.00000  Uiso   1.00
C1610  C     0.70703   0.56086   0.98970   0.00000  Uiso   1.00
H1611  H     0.70466   0.58517   0.51829   0.00000  Uiso   1.00
O1612  O     0.67622   0.55801   0.96743   0.00000  Uiso   1.00
O1613  O     0.87467   0.43907   0.87889   0.00000  Uiso   1.00
C1614  C     0.85300   0.40424   0.90558   0.00000  Uiso   1.00
H1615  H     0.81952   0.41192   0.93295   0.00000  Uiso   1.00
H1616  H     0.87587   0.38853   0.92690   0.00000  Uiso   1.00
H1617  H     0.84559   0.38230   0.87681   0.00000  Uiso   1.00
C1618  C     0.91661   0.62931   0.69809   0.00000  Uiso   1.00
H1619  H     0.94976   0.64149   0.69887   0.00000  Uiso   1.00
O1620  O     0.91486   0.60389   0.66483   0.00000  Uiso   1.00
C1621  C     0.16672   0.91324   0.74685   0.00000  Uiso   1.00
C1622  C     0.15882   0.84726   0.98110   0.00000  Uiso   1.00
C1623  C     0.16653   0.82712   0.93340   0.00000  Uiso   1.00
C1624  C     0.19123   0.84171   0.50967   0.00000  Uiso   1.00
C1625  C     0.23655   0.82903   0.98600   0.00000  Uiso   1.00
C1626  C     0.24579   0.81085   0.93596   0.00000  Uiso   1.00
C1627  C     0.20751   0.80377   0.91454   0.00000  Uiso   1.00
C1628  C     0.17636   0.83333   0.56220   0.00000  Uiso   1.00
C1629  C     0.25322   0.84550   0.56843   0.00000  Uiso   1.00
C1630  C     0.13177   0.82893   0.90706   0.00000  Uiso   1.00
C1631  C     0.20705   0.97927   0.73287   0.00000  Uiso   1.00
C1632  C     0.14273   0.83034   0.85056   0.00000  Uiso   1.00
C1633  C     0.20631   0.68633   0.75014   0.00000  Uiso   1.00
C1634  C     0.16502   0.70890   0.75914   0.00000  Uiso   1.00
C1635  C     0.12293   0.68871   0.76641   0.00000  Uiso   1.00
C1636  C     0.12300   0.97977   0.75625   0.00000  Uiso   1.00
C1637  C     0.16556   0.95793   0.74279   0.00000  Uiso   1.00
C1638  C     0.31723   0.81265   0.71244   0.00000  Uiso   1.00
C1639  C     0.03193   0.81361   0.71164   0.00000  Uiso   1.00
C1640  C     0.01529   0.85307   0.78806   0.00000  Uiso   1.00
C1641  C     0.30095   0.85380   0.78776   0.00000  Uiso   1.00
C1642  C     0.16595   0.75352   0.75440   0.00000  Uiso   1.00
C1643  C     0.19141   0.83534   0.64927   0.00000  Uiso   1.00
C1644  C     0.26834   0.82925   0.51780   0.00000  Uiso   1.00
C1645  C     0.20662   0.83940   0.59302   0.00000  Uiso   1.00
C1646  C     0.08706   0.83844   0.93481   0.00000  Uiso   1.00
C1647  C     0.08136   0.86672   0.97610   0.00000  Uiso   1.00
C1648  C     0.11828   0.87138   0.99988   0.00000  Uiso   1.00
H1649  H     0.02609   0.86806   0.81937   0.00000  Uiso   1.00
N1650  N     0.04760   0.83334   0.75002   0.00000  Uiso   1.00
N1651  N     0.28573   0.83331   0.75000   0.00000  Uiso   1.00
O1652  O     0.12846   0.89442   0.75001   0.00000  Uiso   1.00
O1653  O     0.20490   0.89441   0.75001   0.00000  Uiso   1.00
O1654  O     0.10947   0.83333   0.82681   0.00000  Uiso   1.00
O1655  O     0.18591   0.83332   0.82681   0.00000  Uiso   1.00
O1656  O     0.12843   0.77226   0.74999   0.00000  Uiso   1.00
O1657  O     0.20488   0.77225   0.74999   0.00000  Uiso   1.00
O1658  O     0.14742   0.83335   0.67319   0.00000  Uiso   1.00
O1659  O     0.22387   0.83334   0.67319   0.00000  Uiso   1.00
Zn1660 Zn    0.11562   0.83334   0.75000   0.00000  Uiso   1.00
Zn1661 Zn    0.21771   0.83333   0.75000   0.00000  Uiso   1.00
O1662  O     0.27269   0.88159   0.57985   0.00000  Uiso   1.00
C1663  C     0.30823   0.87290   0.60421   0.00000  Uiso   1.00
H1664  H     0.33021   0.84611   0.58729   0.00000  Uiso   1.00
H1665  H     0.29451   0.86903   0.64639   0.00000  Uiso   1.00
H1666  H     0.32983   0.90052   0.60051   0.00000  Uiso   1.00
O1667  O     0.24601   0.70494   0.75511   0.00000  Uiso   1.00
C1668  C     0.26202   0.68595   0.79527   0.00000  Uiso   1.00
H1669  H     0.23457   0.67233   0.82657   0.00000  Uiso   1.00
H1670  H     0.27930   0.70952   0.81327   0.00000  Uiso   1.00
H1671  H     0.28812   0.99534   0.77891   0.00000  Uiso   1.00
O1672  O     0.08298   0.70915   0.79252   0.00000  Uiso   1.00
C1673  C     0.05244   0.71389   0.76029   0.00000  Uiso   1.00
H1674  H     0.06982   0.71597   0.71822   0.00000  Uiso   1.00
H1675  H     0.02754   0.68854   0.76743   0.00000  Uiso   1.00
H1676  H     0.03263   0.74294   0.77111   0.00000  Uiso   1.00
O1677  O     0.08141   0.95995   0.76340   0.00000  Uiso   1.00
C1678  C     0.07245   0.95240   0.71424   0.00000  Uiso   1.00
H1679  H     0.10127   0.93609   0.68687   0.00000  Uiso   1.00
H1680  H     0.06492   0.98133   0.69545   0.00000  Uiso   1.00
H1681  H     0.04182   0.93261   0.71987   0.00000  Uiso   1.00
O1682  O     0.30223   0.79499   0.67208   0.00000  Uiso   1.00
C1683  C     0.30564   0.75145   0.67233   0.00000  Uiso   1.00
H1684  H     0.31679   0.73832   0.70604   0.00000  Uiso   1.00
H1685  H     0.32990   0.74048   0.63615   0.00000  Uiso   1.00
H1686  H     0.27195   0.73886   0.67097   0.00000  Uiso   1.00
C1687  C     0.06450   0.79320   0.66850   0.00000  Uiso   1.00
H1688  H     0.09523   0.77846   0.67418   0.00000  Uiso   1.00
O1689  O     0.05676   0.79221   0.62555   0.00000  Uiso   1.00
O1690  O     0.26893   0.87142   0.82875   0.00000  Uiso   1.00
C1691  C     0.27364   0.91459   0.82672   0.00000  Uiso   1.00
H1692  H     0.24420   0.92875   0.85540   0.00000  Uiso   1.00
H1693  H     0.27285   0.92662   0.78777   0.00000  Uiso   1.00
H1694  H     0.30549   0.92413   0.83731   0.00000  Uiso   1.00
O1695  O     0.29168   0.80468   0.90966   0.00000  Uiso   1.00
C1696  C     0.29916   0.77458   0.87008   0.00000  Uiso   1.00
H1697  H     0.28401   0.78364   0.83774   0.00000  Uiso   1.00
H1698  H     0.28774   0.74388   0.88650   0.00000  Uiso   1.00
H1699  H     0.00302   0.77226   0.85213   0.00000  Uiso   1.00
C1700  C     0.30428   0.79707   0.51213   0.00000  Uiso   1.00
H1701  H     0.00388   0.80412   0.51931   0.00000  Uiso   1.00
O1702  O     0.29597   0.76135   0.50333   0.00000  Uiso   1.00
O1703  O     0.13877   0.80869   0.57897   0.00000  Uiso   1.00
C1704  C     0.15290   0.76696   0.56778   0.00000  Uiso   1.00
H1705  H     0.17840   0.75711   0.58961   0.00000  Uiso   1.00
H1706  H     0.16702   0.76166   0.52541   0.00000  Uiso   1.00
H1707  H     0.12294   0.74658   0.57992   0.00000  Uiso   1.00
O1708  O     0.05003   0.81943   0.92265   0.00000  Uiso   1.00
C1709  C     0.05840   0.77594   0.92075   0.00000  Uiso   1.00
H1710  H     0.07228   0.76486   0.95369   0.00000  Uiso   1.00
H1711  H     0.08159   0.76641   0.88304   0.00000  Uiso   1.00
H1712  H     0.02629   0.75918   0.92448   0.00000  Uiso   1.00
O1713  O     0.11908   0.90405   0.53351   0.00000  Uiso   1.00
C1714  C     0.09284   0.89552   0.58416   0.00000  Uiso   1.00
H1715  H     0.07000   0.92245   0.59836   0.00000  Uiso   1.00
H1716  H     0.11605   0.89223   0.61048   0.00000  Uiso   1.00
H1717  H     0.07176   0.86730   0.58742   0.00000  Uiso   1.00
C1718  C     0.04036   0.89419   0.98970   0.00000  Uiso   1.00
H1719  H     0.03799   0.91850   0.51829   0.00000  Uiso   1.00
O1720  O     0.00955   0.89134   0.96743   0.00000  Uiso   1.00
O1721  O     0.20800   0.77241   0.87889   0.00000  Uiso   1.00
C1722  C     0.18633   0.73757   0.90558   0.00000  Uiso   1.00
H1723  H     0.15285   0.74525   0.93295   0.00000  Uiso   1.00
H1724  H     0.20921   0.72186   0.92690   0.00000  Uiso   1.00
H1725  H     0.17892   0.71563   0.87681   0.00000  Uiso   1.00
C1726  C     0.24994   0.96264   0.69809   0.00000  Uiso   1.00
H1727  H     0.28309   0.97482   0.69887   0.00000  Uiso   1.00
O1728  O     0.24819   0.93722   0.66483   0.00000  Uiso   1.00
C1729  C     0.50005   0.91324   0.74685   0.00000  Uiso   1.00
C1730  C     0.49215   0.84726   0.98110   0.00000  Uiso   1.00
C1731  C     0.49986   0.82712   0.93340   0.00000  Uiso   1.00
C1732  C     0.52456   0.84171   0.50967   0.00000  Uiso   1.00
C1733  C     0.56989   0.82903   0.98600   0.00000  Uiso   1.00
C1734  C     0.57913   0.81085   0.93596   0.00000  Uiso   1.00
C1735  C     0.54084   0.80377   0.91454   0.00000  Uiso   1.00
C1736  C     0.50970   0.83333   0.56220   0.00000  Uiso   1.00
C1737  C     0.58656   0.84550   0.56843   0.00000  Uiso   1.00
C1738  C     0.46510   0.82893   0.90706   0.00000  Uiso   1.00
C1739  C     0.54038   0.97927   0.73287   0.00000  Uiso   1.00
C1740  C     0.47606   0.83034   0.85056   0.00000  Uiso   1.00
C1741  C     0.53964   0.68633   0.75014   0.00000  Uiso   1.00
C1742  C     0.49836   0.70890   0.75914   0.00000  Uiso   1.00
C1743  C     0.45626   0.68871   0.76641   0.00000  Uiso   1.00
C1744  C     0.45634   0.97977   0.75625   0.00000  Uiso   1.00
C1745  C     0.49889   0.95793   0.74279   0.00000  Uiso   1.00
C1746  C     0.65056   0.81265   0.71244   0.00000  Uiso   1.00
C1747  C     0.36526   0.81361   0.71164   0.00000  Uiso   1.00
C1748  C     0.34862   0.85307   0.78806   0.00000  Uiso   1.00
C1749  C     0.63428   0.85380   0.78776   0.00000  Uiso   1.00
C1750  C     0.49929   0.75352   0.75440   0.00000  Uiso   1.00
C1751  C     0.52474   0.83534   0.64927   0.00000  Uiso   1.00
C1752  C     0.60168   0.82925   0.51780   0.00000  Uiso   1.00
C1753  C     0.53996   0.83940   0.59302   0.00000  Uiso   1.00
C1754  C     0.42039   0.83844   0.93481   0.00000  Uiso   1.00
C1755  C     0.41470   0.86672   0.97610   0.00000  Uiso   1.00
C1756  C     0.45162   0.87138   0.99988   0.00000  Uiso   1.00
H1757  H     0.35943   0.86806   0.81937   0.00000  Uiso   1.00
N1758  N     0.38093   0.83334   0.75002   0.00000  Uiso   1.00
N1759  N     0.61906   0.83331   0.75000   0.00000  Uiso   1.00
O1760  O     0.46179   0.89442   0.75001   0.00000  Uiso   1.00
O1761  O     0.53823   0.89441   0.75001   0.00000  Uiso   1.00
O1762  O     0.44280   0.83333   0.82681   0.00000  Uiso   1.00
O1763  O     0.51924   0.83332   0.82681   0.00000  Uiso   1.00
O1764  O     0.46177   0.77226   0.74999   0.00000  Uiso   1.00
O1765  O     0.53821   0.77225   0.74999   0.00000  Uiso   1.00
O1766  O     0.48076   0.83335   0.67319   0.00000  Uiso   1.00
O1767  O     0.55720   0.83334   0.67319   0.00000  Uiso   1.00
Zn1768 Zn    0.44896   0.83334   0.75000   0.00000  Uiso   1.00
Zn1769 Zn    0.55104   0.83333   0.75000   0.00000  Uiso   1.00
O1770  O     0.60602   0.88159   0.57985   0.00000  Uiso   1.00
C1771  C     0.64156   0.87290   0.60421   0.00000  Uiso   1.00
H1772  H     0.66355   0.84611   0.58729   0.00000  Uiso   1.00
H1773  H     0.62784   0.86903   0.64639   0.00000  Uiso   1.00
H1774  H     0.66316   0.90052   0.60051   0.00000  Uiso   1.00
O1775  O     0.57934   0.70494   0.75511   0.00000  Uiso   1.00
C1776  C     0.59536   0.68595   0.79527   0.00000  Uiso   1.00
H1777  H     0.56790   0.67233   0.82657   0.00000  Uiso   1.00
H1778  H     0.61264   0.70952   0.81327   0.00000  Uiso   1.00
H1779  H     0.62145   0.99534   0.77891   0.00000  Uiso   1.00
O1780  O     0.41631   0.70915   0.79252   0.00000  Uiso   1.00
C1781  C     0.38578   0.71389   0.76029   0.00000  Uiso   1.00
H1782  H     0.40315   0.71597   0.71822   0.00000  Uiso   1.00
H1783  H     0.36088   0.68854   0.76743   0.00000  Uiso   1.00
H1784  H     0.36596   0.74294   0.77111   0.00000  Uiso   1.00
O1785  O     0.41474   0.95995   0.76340   0.00000  Uiso   1.00
C1786  C     0.40578   0.95240   0.71424   0.00000  Uiso   1.00
H1787  H     0.43460   0.93609   0.68687   0.00000  Uiso   1.00
H1788  H     0.39826   0.98133   0.69545   0.00000  Uiso   1.00
H1789  H     0.37516   0.93261   0.71987   0.00000  Uiso   1.00
O1790  O     0.63556   0.79499   0.67208   0.00000  Uiso   1.00
C1791  C     0.63898   0.75145   0.67233   0.00000  Uiso   1.00
H1792  H     0.65012   0.73832   0.70604   0.00000  Uiso   1.00
H1793  H     0.66324   0.74048   0.63615   0.00000  Uiso   1.00
H1794  H     0.60529   0.73886   0.67097   0.00000  Uiso   1.00
C1795  C     0.39784   0.79320   0.66850   0.00000  Uiso   1.00
H1796  H     0.42856   0.77846   0.67418   0.00000  Uiso   1.00
O1797  O     0.39010   0.79221   0.62555   0.00000  Uiso   1.00
O1798  O     0.60226   0.87142   0.82875   0.00000  Uiso   1.00
C1799  C     0.60697   0.91459   0.82672   0.00000  Uiso   1.00
H1800  H     0.57753   0.92875   0.85540   0.00000  Uiso   1.00
H1801  H     0.60619   0.92662   0.78777   0.00000  Uiso   1.00
H1802  H     0.63882   0.92413   0.83731   0.00000  Uiso   1.00
O1803  O     0.62501   0.80468   0.90966   0.00000  Uiso   1.00
C1804  C     0.63249   0.77458   0.87008   0.00000  Uiso   1.00
H1805  H     0.61734   0.78364   0.83774   0.00000  Uiso   1.00
H1806  H     0.62107   0.74388   0.88650   0.00000  Uiso   1.00
H1807  H     0.33636   0.77226   0.85213   0.00000  Uiso   1.00
C1808  C     0.63762   0.79707   0.51213   0.00000  Uiso   1.00
H1809  H     0.33722   0.80412   0.51931   0.00000  Uiso   1.00
O1810  O     0.62930   0.76135   0.50333   0.00000  Uiso   1.00
O1811  O     0.47210   0.80869   0.57897   0.00000  Uiso   1.00
C1812  C     0.48623   0.76696   0.56778   0.00000  Uiso   1.00
H1813  H     0.51174   0.75711   0.58961   0.00000  Uiso   1.00
H1814  H     0.50035   0.76166   0.52541   0.00000  Uiso   1.00
H1815  H     0.45627   0.74658   0.57992   0.00000  Uiso   1.00
O1816  O     0.38337   0.81943   0.92265   0.00000  Uiso   1.00
C1817  C     0.39174   0.77594   0.92075   0.00000  Uiso   1.00
H1818  H     0.40562   0.76486   0.95369   0.00000  Uiso   1.00
H1819  H     0.41492   0.76641   0.88304   0.00000  Uiso   1.00
H1820  H     0.35962   0.75918   0.92448   0.00000  Uiso   1.00
O1821  O     0.45241   0.90405   0.53351   0.00000  Uiso   1.00
C1822  C     0.42618   0.89552   0.58416   0.00000  Uiso   1.00
H1823  H     0.40334   0.92245   0.59836   0.00000  Uiso   1.00
H1824  H     0.44938   0.89223   0.61048   0.00000  Uiso   1.00
H1825  H     0.40509   0.86730   0.58742   0.00000  Uiso   1.00
C1826  C     0.37369   0.89419   0.98970   0.00000  Uiso   1.00
H1827  H     0.37133   0.91850   0.51829   0.00000  Uiso   1.00
O1828  O     0.34289   0.89134   0.96743   0.00000  Uiso   1.00
O1829  O     0.54134   0.77241   0.87889   0.00000  Uiso   1.00
C1830  C     0.51967   0.73757   0.90558   0.00000  Uiso   1.00
H1831  H     0.48619   0.74525   0.93295   0.00000  Uiso   1.00
H1832  H     0.54254   0.72186   0.92690   0.00000  Uiso   1.00
H1833  H     0.51226   0.71563   0.87681   0.00000  Uiso   1.00
C1834  C     0.58327   0.96264   0.69809   0.00000  Uiso   1.00
H1835  H     0.61643   0.97482   0.69887   0.00000  Uiso   1.00
O1836  O     0.58152   0.93722   0.66483   0.00000  Uiso   1.00
C1837  C     0.83339   0.91324   0.74685   0.00000  Uiso   1.00
C1838  C     0.82548   0.84726   0.98110   0.00000  Uiso   1.00
C1839  C     0.83320   0.82712   0.93340   0.00000  Uiso   1.00
C1840  C     0.85790   0.84171   0.50967   0.00000  Uiso   1.00
C1841  C     0.90322   0.82903   0.98600   0.00000  Uiso   1.00
C1842  C     0.91246   0.81085   0.93596   0.00000  Uiso   1.00
C1843  C     0.87418   0.80377   0.91454   0.00000  Uiso   1.00
C1844  C     0.84303   0.83333   0.56220   0.00000  Uiso   1.00
C1845  C     0.91989   0.84550   0.56843   0.00000  Uiso   1.00
C1846  C     0.79843   0.82893   0.90706   0.00000  Uiso   1.00
C1847  C     0.87372   0.97927   0.73287   0.00000  Uiso   1.00
C1848  C     0.80940   0.83034   0.85056   0.00000  Uiso   1.00
C1849  C     0.87297   0.68633   0.75014   0.00000  Uiso   1.00
C1850  C     0.83169   0.70890   0.75914   0.00000  Uiso   1.00
C1851  C     0.78959   0.68871   0.76641   0.00000  Uiso   1.00
C1852  C     0.78967   0.97977   0.75625   0.00000  Uiso   1.00
C1853  C     0.83222   0.95793   0.74279   0.00000  Uiso   1.00
C1854  C     0.98390   0.81265   0.71244   0.00000  Uiso   1.00
C1855  C     0.69859   0.81361   0.71164   0.00000  Uiso   1.00
C1856  C     0.68195   0.85307   0.78806   0.00000  Uiso   1.00
C1857  C     0.96761   0.85380   0.78776   0.00000  Uiso   1.00
C1858  C     0.83262   0.75352   0.75440   0.00000  Uiso   1.00
C1859  C     0.85808   0.83534   0.64927   0.00000  Uiso   1.00
C1860  C     0.93501   0.82925   0.51780   0.00000  Uiso   1.00
C1861  C     0.87329   0.83940   0.59302   0.00000  Uiso   1.00
C1862  C     0.75372   0.83844   0.93481   0.00000  Uiso   1.00
C1863  C     0.74803   0.86672   0.97610   0.00000  Uiso   1.00
C1864  C     0.78495   0.87138   0.99988   0.00000  Uiso   1.00
H1865  H     0.69276   0.86806   0.81937   0.00000  Uiso   1.00
N1866  N     0.71426   0.83334   0.75002   0.00000  Uiso   1.00
N1867  N     0.95239   0.83331   0.75000   0.00000  Uiso   1.00
O1868  O     0.79512   0.89442   0.75001   0.00000  Uiso   1.00
O1869  O     0.87157   0.89441   0.75001   0.00000  Uiso   1.00
O1870  O     0.77613   0.83333   0.82681   0.00000  Uiso   1.00
O1871  O     0.85258   0.83332   0.82681   0.00000  Uiso   1.00
O1872  O     0.79510   0.77226   0.74999   0.00000  Uiso   1.00
O1873  O     0.87154   0.77225   0.74999   0.00000  Uiso   1.00
O1874  O     0.81409   0.83335   0.67319   0.00000  Uiso   1.00
O1875  O     0.89053   0.83334   0.67319   0.00000  Uiso   1.00
Zn1876 Zn    0.78229   0.83334   0.75000   0.00000  Uiso   1.00
Zn1877 Zn    0.88438   0.83333   0.75000   0.00000  Uiso   1.00
O1878  O     0.93935   0.88159   0.57985   0.00000  Uiso   1.00
C1879  C     0.97490   0.87290   0.60421   0.00000  Uiso   1.00
H1880  H     0.99688   0.84611   0.58729   0.00000  Uiso   1.00
H1881  H     0.96117   0.86903   0.64639   0.00000  Uiso   1.00
H1882  H     0.99649   0.90052   0.60051   0.00000  Uiso   1.00
O1883  O     0.91268   0.70494   0.75511   0.00000  Uiso   1.00
C1884  C     0.92869   0.68595   0.79527   0.00000  Uiso   1.00
H1885  H     0.90123   0.67233   0.82657   0.00000  Uiso   1.00
H1886  H     0.94597   0.70952   0.81327   0.00000  Uiso   1.00
H1887  H     0.95478   0.99534   0.77891   0.00000  Uiso   1.00
O1888  O     0.74965   0.70915   0.79252   0.00000  Uiso   1.00
C1889  C     0.71911   0.71389   0.76029   0.00000  Uiso   1.00
H1890  H     0.73648   0.71597   0.71822   0.00000  Uiso   1.00
H1891  H     0.69421   0.68854   0.76743   0.00000  Uiso   1.00
H1892  H     0.69929   0.74294   0.77111   0.00000  Uiso   1.00
O1893  O     0.74808   0.95995   0.76340   0.00000  Uiso   1.00
C1894  C     0.73911   0.95240   0.71424   0.00000  Uiso   1.00
H1895  H     0.76794   0.93609   0.68687   0.00000  Uiso   1.00
H1896  H     0.73159   0.98133   0.69545   0.00000  Uiso   1.00
H1897  H     0.70849   0.93261   0.71987   0.00000  Uiso   1.00
O1898  O     0.96889   0.79499   0.67208   0.00000  Uiso   1.00
C1899  C     0.97231   0.75145   0.67233   0.00000  Uiso   1.00
H1900  H     0.98345   0.73832   0.70604   0.00000  Uiso   1.00
H1901  H     0.99657   0.74048   0.63615   0.00000  Uiso   1.00
H1902  H     0.93862   0.73886   0.67097   0.00000  Uiso   1.00
C1903  C     0.73117   0.79320   0.66850   0.00000  Uiso   1.00
H1904  H     0.76190   0.77846   0.67418   0.00000  Uiso   1.00
O1905  O     0.72343   0.79221   0.62555   0.00000  Uiso   1.00
O1906  O     0.93560   0.87142   0.82875   0.00000  Uiso   1.00
C1907  C     0.94031   0.91459   0.82672   0.00000  Uiso   1.00
H1908  H     0.91086   0.92875   0.85540   0.00000  Uiso   1.00
H1909  H     0.93952   0.92662   0.78777   0.00000  Uiso   1.00
H1910  H     0.97215   0.92413   0.83731   0.00000  Uiso   1.00
O1911  O     0.95834   0.80468   0.90966   0.00000  Uiso   1.00
C1912  C     0.96583   0.77458   0.87008   0.00000  Uiso   1.00
H1913  H     0.95068   0.78364   0.83774   0.00000  Uiso   1.00
H1914  H     0.95441   0.74388   0.88650   0.00000  Uiso   1.00
H1915  H     0.66969   0.77226   0.85213   0.00000  Uiso   1.00
C1916  C     0.97095   0.79707   0.51213   0.00000  Uiso   1.00
H1917  H     0.67055   0.80412   0.51931   0.00000  Uiso   1.00
O1918  O     0.96264   0.76135   0.50333   0.00000  Uiso   1.00
O1919  O     0.80544   0.80869   0.57897   0.00000  Uiso   1.00
C1920  C     0.81957   0.76696   0.56778   0.00000  Uiso   1.00
H1921  H     0.84507   0.75711   0.58961   0.00000  Uiso   1.00
H1922  H     0.83368   0.76166   0.52541   0.00000  Uiso   1.00
H1923  H     0.78961   0.74658   0.57992   0.00000  Uiso   1.00
O1924  O     0.71670   0.81943   0.92265   0.00000  Uiso   1.00
C1925  C     0.72507   0.77594   0.92075   0.00000  Uiso   1.00
H1926  H     0.73895   0.76486   0.95369   0.00000  Uiso   1.00
H1927  H     0.74825   0.76641   0.88304   0.00000  Uiso   1.00
H1928  H     0.69295   0.75918   0.92448   0.00000  Uiso   1.00
O1929  O     0.78575   0.90405   0.53351   0.00000  Uiso   1.00
C1930  C     0.75951   0.89552   0.58416   0.00000  Uiso   1.00
H1931  H     0.73667   0.92245   0.59836   0.00000  Uiso   1.00
H1932  H     0.78272   0.89223   0.61048   0.00000  Uiso   1.00
H1933  H     0.73843   0.86730   0.58742   0.00000  Uiso   1.00
C1934  C     0.70703   0.89419   0.98970   0.00000  Uiso   1.00
H1935  H     0.70466   0.91850   0.51829   0.00000  Uiso   1.00
O1936  O     0.67622   0.89134   0.96743   0.00000  Uiso   1.00
O1937  O     0.87467   0.77241   0.87889   0.00000  Uiso   1.00
C1938  C     0.85300   0.73757   0.90558   0.00000  Uiso   1.00
H1939  H     0.81952   0.74525   0.93295   0.00000  Uiso   1.00
H1940  H     0.87587   0.72186   0.92690   0.00000  Uiso   1.00
H1941  H     0.84559   0.71563   0.87681   0.00000  Uiso   1.00
C1942  C     0.91661   0.96264   0.69809   0.00000  Uiso   1.00
H1943  H     0.94976   0.97482   0.69887   0.00000  Uiso   1.00
O1944  O     0.91486   0.93722   0.66483   0.00000  Uiso   1.00
loop_
_geom_bond_atom_site_label_1
_geom_bond_atom_site_label_2
_geom_bond_distance
_geom_bond_site_symmetry_2
_ccdc_geom_bond_type
C1     O33     1.314   .     A
C1     O32     1.296   .     A
C1     C17     1.451   .     S
C2     C3      1.390   .     A
C2     C28     1.421   .     A
C2     C976    1.385   .     S
C3     C7      1.418   .     A
C3     C10     1.395   .     A
C4     C8      1.384   .     A
C4     C974    1.385   1_554 S
C4     C977    1.409   1_554 S
C5     C6      1.415   .     A
C5     C976    1.409   .     S
C5     C996    1.424   .     S
C6     O75     1.397   .     S
C6     C7      1.427   .     A
C7     O101    1.385   .     S
C8     O83     1.376   .     S
C8     C25     1.382   .     A
C9     C25     1.411   .     A
C9     O42     1.381   .     S
C9     C24     1.408   .     A
C10    C26     1.396   .     A
C10    C12     1.456   .     S
C11    C106    1.483   .     S
C11    C17     1.404   .     A
C11    C337    1.383   .     S
C12    O35     1.303   .     A
C12    O34     1.311   .     A
C13    C14     1.401   .     A
C13    O47     1.381   .     S
C13    C659    1.383   1_545 S
C14    C22     1.450   .     S
C14    C15     1.405   .     A
C15    O52     1.389   .     S
C15    C664    1.394   1_545 S
C16    C17     1.420   .     A
C16    O57     1.387   .     S
C16    C339    1.394   .     S
C18    O62     1.387   .     S
C18    N31     1.362   .     A
C18    C127    1.442   .     S
C19    C67     1.462   .     S
C19    N30     1.384   .     A
C19    C234    1.442   1_455 S
C20    N30     1.368   .     A
C20    H29     1.082   .     S
C20    C237    1.437   1_455 S
C21    N31     1.374   .     A
C21    O70     1.380   .     S
C21    C128    1.437   .     S
C22    O37     1.307   .     A
C22    O36     1.305   .     A
C23    O38     1.322   .     A
C23    O39     1.291   .     A
C23    C25     1.457   .     S
C24    C80     1.471   .     S
C24    C977    1.424   1_554 S
C26    C27     1.404   .     A
C26    O88     1.387   .     S
C27    C98     1.481   .     S
C27    C28     1.417   .     A
C28    O1065   1.388   .     S
N30    Zn40    2.048   .     S
N31    Zn41    2.048   .     S
O32    Zn40    2.020   .     S
O33    Zn41    2.009   .     S
O34    Zn40    2.002   .     S
O35    Zn41    2.028   .     S
O36    Zn40    2.009   .     S
O37    Zn41    2.020   .     S
O38    Zn40    2.028   .     S
O39    Zn41    2.002   .     S
O42    C43     1.405   .     S
C43    H45     1.102   .     S
C43    H44     1.108   .     S
C43    H46     1.103   .     S
O47    C48     1.412   .     S
C48    H50     1.102   .     S
C48    H49     1.114   .     S
C48    H699    1.104   1_545 S
H51    C372    1.104   .     S
O52    C53     1.409   .     S
C53    H54     1.113   .     S
C53    H55     1.104   .     S
C53    H56     1.105   .     S
O57    C58     1.418   .     S
C58    H60     1.108   .     S
C58    H61     1.110   .     S
C58    H59     1.111   .     S
O62    C63     1.412   .     S
C63    H65     1.108   .     S
C63    H66     1.107   .     S
C63    H64     1.113   .     S
C67    H68     1.078   .     S
C67    O69     1.220   .     D
O70    C71     1.406   .     S
C71    H73     1.111   .     S
C71    H74     1.112   .     S
C71    H72     1.109   .     S
O75    C76     1.407   .     S
C76    H77     1.105   .     S
C76    H78     1.110   .     S
C76    H187    1.105   .     S
H79    C292    1.105   1_455 S
C80    O82     1.221   .     D
C80    H189    1.082   .     S
H81    C296    1.082   1_455 S
O83    C84     1.419   .     S
C84    H87     1.108   .     S
C84    H86     1.113   .     S
C84    H85     1.113   .     S
O88    C89     1.425   .     S
C89    H91     1.111   .     S
C89    H92     1.099   .     S
C89    H90     1.115   .     S
O93    C94     1.411   .     S
O93    C1000   1.388   1_554 S
C94    H97     1.111   .     S
C94    H96     1.107   .     S
C94    H95     1.108   .     S
C98    O100    1.221   .     D
C98    H1071   1.082   .     S
H99    C1070   1.082   1_554 S
O101   C102    1.412   .     S
C102   H104    1.111   .     S
C102   H105    1.107   .     S
C102   H103    1.112   .     S
C106   H107    1.083   .     S
C106   O108    1.218   .     D
C109   O141    1.314   .     A
C109   O140    1.296   .     A
C109   C125    1.451   .     S
C110   C111    1.390   .     A
C110   C136    1.421   .     A
C110   C1084   1.385   .     S
C111   C115    1.418   .     A
C111   C118    1.395   .     A
C112   C116    1.384   .     A
C112   C1082   1.385   1_554 S
C112   C1085   1.409   1_554 S
C113   C114    1.415   .     A
C113   C1084   1.409   .     S
C113   C1104   1.424   .     S
C114   O183    1.397   .     S
C114   C115    1.427   .     A
C115   O209    1.385   .     S
C116   O191    1.376   .     S
C116   C133    1.382   .     A
C117   C133    1.411   .     A
C117   O150    1.381   .     S
C117   C132    1.408   .     A
C118   C134    1.396   .     A
C118   C120    1.456   .     S
C119   C214    1.483   .     S
C119   C125    1.404   .     A
C119   C445    1.383   .     S
C120   O143    1.303   .     A
C120   O142    1.311   .     A
C121   C122    1.401   .     A
C121   O155    1.381   .     S
C121   C767    1.383   1_545 S
C122   C130    1.450   .     S
C122   C123    1.405   .     A
C123   O160    1.389   .     S
C123   C772    1.394   1_545 S
C124   C125    1.420   .     A
C124   O165    1.387   .     S
C124   C447    1.394   .     S
C126   O170    1.387   .     S
C126   N139    1.362   .     A
C126   C235    1.442   .     S
C127   C175    1.462   .     S
C127   N138    1.384   .     A
C128   N138    1.368   .     A
C128   H137    1.082   .     S
C129   N139    1.374   .     A
C129   O178    1.380   .     S
C129   C236    1.437   .     S
C130   O145    1.307   .     A
C130   O144    1.305   .     A
C131   O146    1.322   .     A
C131   O147    1.291   .     A
C131   C133    1.457   .     S
C132   C188    1.471   .     S
C132   C1085   1.424   1_554 S
C134   C135    1.404   .     A
C134   O196    1.387   .     S
C135   C206    1.481   .     S
C135   C136    1.417   .     A
C136   O1173   1.388   .     S
N138   Zn148   2.048   .     S
N139   Zn149   2.048   .     S
O140   Zn148   2.020   .     S
O141   Zn149   2.009   .     S
O142   Zn148   2.002   .     S
O143   Zn149   2.028   .     S
O144   Zn148   2.009   .     S
O145   Zn149   2.020   .     S
O146   Zn148   2.028   .     S
O147   Zn149   2.002   .     S
O150   C151    1.405   .     S
C151   H153    1.102   .     S
C151   H152    1.108   .     S
C151   H154    1.103   .     S
O155   C156    1.412   .     S
C156   H158    1.102   .     S
C156   H157    1.114   .     S
C156   H807    1.104   1_545 S
H159   C480    1.104   .     S
O160   C161    1.409   .     S
C161   H162    1.113   .     S
C161   H163    1.104   .     S
C161   H164    1.105   .     S
O165   C166    1.418   .     S
C166   H168    1.108   .     S
C166   H169    1.110   .     S
C166   H167    1.111   .     S
O170   C171    1.412   .     S
C171   H173    1.108   .     S
C171   H174    1.107   .     S
C171   H172    1.113   .     S
C175   H176    1.078   .     S
C175   O177    1.220   .     D
O178   C179    1.406   .     S
C179   H181    1.111   .     S
C179   H182    1.112   .     S
C179   H180    1.109   .     S
O183   C184    1.407   .     S
C184   H185    1.105   .     S
C184   H186    1.110   .     S
C184   H295    1.105   .     S
C188   O190    1.221   .     D
C188   H297    1.082   .     S
O191   C192    1.419   .     S
C192   H195    1.108   .     S
C192   H194    1.113   .     S
C192   H193    1.113   .     S
O196   C197    1.425   .     S
C197   H199    1.111   .     S
C197   H200    1.099   .     S
C197   H198    1.115   .     S
O201   C202    1.411   .     S
O201   C1108   1.388   1_554 S
C202   H205    1.111   .     S
C202   H204    1.107   .     S
C202   H203    1.108   .     S
C206   O208    1.221   .     D
C206   H1179   1.082   .     S
H207   C1178   1.082   1_554 S
O209   C210    1.412   .     S
C210   H212    1.111   .     S
C210   H213    1.107   .     S
C210   H211    1.112   .     S
C214   H215    1.083   .     S
C214   O216    1.218   .     D
C217   O249    1.314   .     A
C217   O248    1.296   .     A
C217   C233    1.451   .     S
C218   C219    1.390   .     A
C218   C244    1.421   .     A
C218   C1192   1.385   .     S
C219   C223    1.418   .     A
C219   C226    1.395   .     A
C220   C224    1.384   .     A
C220   C1190   1.385   1_554 S
C220   C1193   1.409   1_554 S
C221   C222    1.415   .     A
C221   C1192   1.409   .     S
C221   C1212   1.424   .     S
C222   O291    1.397   .     S
C222   C223    1.427   .     A
C223   O317    1.385   .     S
C224   O299    1.376   .     S
C224   C241    1.382   .     A
C225   C241    1.411   .     A
C225   O258    1.381   .     S
C225   C240    1.408   .     A
C226   C242    1.396   .     A
C226   C228    1.456   .     S
C227   C322    1.483   .     S
C227   C233    1.404   .     A
C227   C553    1.383   .     S
C228   O251    1.303   .     A
C228   O250    1.311   .     A
C229   C230    1.401   .     A
C229   O263    1.381   .     S
C229   C875    1.383   1_545 S
C230   C238    1.450   .     S
C230   C231    1.405   .     A
C231   O268    1.389   .     S
C231   C880    1.394   1_545 S
C232   C233    1.420   .     A
C232   O273    1.387   .     S
C232   C555    1.394   .     S
C234   O278    1.387   .     S
C234   N247    1.362   .     A
C234   C19     1.442   1_655 S
C235   C283    1.462   .     S
C235   N246    1.384   .     A
C236   N246    1.368   .     A
C236   H245    1.082   .     S
C237   N247    1.374   .     A
C237   O286    1.380   .     S
C237   C20     1.437   1_655 S
C238   O253    1.307   .     A
C238   O252    1.305   .     A
C239   O254    1.322   .     A
C239   O255    1.291   .     A
C239   C241    1.457   .     S
C240   C296    1.471   .     S
C240   C1193   1.424   1_554 S
C242   C243    1.404   .     A
C242   O304    1.387   .     S
C243   C314    1.481   .     S
C243   C244    1.417   .     A
C244   O1281   1.388   .     S
N246   Zn256   2.048   .     S
N247   Zn257   2.048   .     S
O248   Zn256   2.020   .     S
O249   Zn257   2.009   .     S
O250   Zn256   2.002   .     S
O251   Zn257   2.028   .     S
O252   Zn256   2.009   .     S
O253   Zn257   2.020   .     S
O254   Zn256   2.028   .     S
O255   Zn257   2.002   .     S
O258   C259    1.405   .     S
C259   H261    1.102   .     S
C259   H260    1.108   .     S
C259   H262    1.103   .     S
O263   C264    1.412   .     S
C264   H266    1.102   .     S
C264   H265    1.114   .     S
C264   H915    1.104   1_545 S
H267   C588    1.104   .     S
O268   C269    1.409   .     S
C269   H270    1.113   .     S
C269   H271    1.104   .     S
C269   H272    1.105   .     S
O273   C274    1.418   .     S
C274   H276    1.108   .     S
C274   H277    1.110   .     S
C274   H275    1.111   .     S
O278   C279    1.412   .     S
C279   H281    1.108   .     S
C279   H282    1.107   .     S
C279   H280    1.113   .     S
C283   H284    1.078   .     S
C283   O285    1.220   .     D
O286   C287    1.406   .     S
C287   H289    1.111   .     S
C287   H290    1.112   .     S
C287   H288    1.109   .     S
O291   C292    1.407   .     S
C292   H293    1.105   .     S
C292   H294    1.110   .     S
C292   H79     1.105   1_655 S
C296   O298    1.221   .     D
C296   H81     1.082   1_655 S
O299   C300    1.419   .     S
C300   H303    1.108   .     S
C300   H302    1.113   .     S
C300   H301    1.113   .     S
O304   C305    1.425   .     S
C305   H307    1.111   .     S
C305   H308    1.099   .     S
C305   H306    1.115   .     S
O309   C310    1.411   .     S
O309   C1216   1.388   1_554 S
C310   H313    1.111   .     S
C310   H312    1.107   .     S
C310   H311    1.108   .     S
C314   O316    1.221   .     D
C314   H1287   1.082   .     S
H315   C1286   1.082   1_554 S
O317   C318    1.412   .     S
C318   H320    1.111   .     S
C318   H321    1.107   .     S
C318   H319    1.112   .     S
C322   H323    1.083   .     S
C322   O324    1.218   .     D
C325   O357    1.314   .     A
C325   O356    1.296   .     A
C325   C341    1.451   .     S
C326   C327    1.390   .     A
C326   C352    1.421   .     A
C326   C1300   1.385   .     S
C327   C331    1.418   .     A
C327   C334    1.395   .     A
C328   C332    1.384   .     A
C328   C1298   1.385   1_554 S
C328   C1301   1.409   1_554 S
C329   C330    1.415   .     A
C329   C1300   1.409   .     S
C329   C1320   1.424   .     S
C330   O399    1.397   .     S
C330   C331    1.427   .     A
C331   O425    1.385   .     S
C332   O407    1.376   .     S
C332   C349    1.382   .     A
C333   C349    1.411   .     A
C333   O366    1.381   .     S
C333   C348    1.408   .     A
C334   C350    1.396   .     A
C334   C336    1.456   .     S
C335   C430    1.483   .     S
C335   C341    1.404   .     A
C335   C661    1.383   .     S
C336   O359    1.303   .     A
C336   O358    1.311   .     A
C337   C338    1.401   .     A
C337   O371    1.381   .     S
C338   C346    1.450   .     S
C338   C339    1.405   .     A
C339   O376    1.389   .     S
C340   C341    1.420   .     A
C340   O381    1.387   .     S
C340   C663    1.394   .     S
C342   O386    1.387   .     S
C342   N355    1.362   .     A
C342   C451    1.442   .     S
C343   C391    1.462   .     S
C343   N354    1.384   .     A
C343   C558    1.442   1_455 S
C344   N354    1.368   .     A
C344   H353    1.082   .     S
C344   C561    1.437   1_455 S
C345   N355    1.374   .     A
C345   O394    1.380   .     S
C345   C452    1.437   .     S
C346   O361    1.307   .     A
C346   O360    1.305   .     A
C347   O362    1.322   .     A
C347   O363    1.291   .     A
C347   C349    1.457   .     S
C348   C404    1.471   .     S
C348   C1301   1.424   1_554 S
C350   C351    1.404   .     A
C350   O412    1.387   .     S
C351   C422    1.481   .     S
C351   C352    1.417   .     A
C352   O1389   1.388   .     S
N354   Zn364   2.048   .     S
N355   Zn365   2.048   .     S
O356   Zn364   2.020   .     S
O357   Zn365   2.009   .     S
O358   Zn364   2.002   .     S
O359   Zn365   2.028   .     S
O360   Zn364   2.009   .     S
O361   Zn365   2.020   .     S
O362   Zn364   2.028   .     S
O363   Zn365   2.002   .     S
O366   C367    1.405   .     S
C367   H369    1.102   .     S
C367   H368    1.108   .     S
C367   H370    1.103   .     S
O371   C372    1.412   .     S
C372   H374    1.102   .     S
C372   H373    1.114   .     S
H375   C696    1.104   .     S
O376   C377    1.409   .     S
C377   H378    1.113   .     S
C377   H379    1.104   .     S
C377   H380    1.105   .     S
O381   C382    1.418   .     S
C382   H384    1.108   .     S
C382   H385    1.110   .     S
C382   H383    1.111   .     S
O386   C387    1.412   .     S
C387   H389    1.108   .     S
C387   H390    1.107   .     S
C387   H388    1.113   .     S
C391   H392    1.078   .     S
C391   O393    1.220   .     D
O394   C395    1.406   .     S
C395   H397    1.111   .     S
C395   H398    1.112   .     S
C395   H396    1.109   .     S
O399   C400    1.407   .     S
C400   H401    1.105   .     S
C400   H402    1.110   .     S
C400   H511    1.105   .     S
H403   C616    1.105   1_455 S
C404   O406    1.221   .     D
C404   H513    1.082   .     S
H405   C620    1.082   1_455 S
O407   C408    1.419   .     S
C408   H411    1.108   .     S
C408   H410    1.113   .     S
C408   H409    1.113   .     S
O412   C413    1.425   .     S
C413   H415    1.111   .     S
C413   H416    1.099   .     S
C413   H414    1.115   .     S
O417   C418    1.411   .     S
O417   C1324   1.388   1_554 S
C418   H421    1.111   .     S
C418   H420    1.107   .     S
C418   H419    1.108   .     S
C422   O424    1.221   .     D
C422   H1395   1.082   .     S
H423   C1394   1.082   1_554 S
O425   C426    1.412   .     S
C426   H428    1.111   .     S
C426   H429    1.107   .     S
C426   H427    1.112   .     S
C430   H431    1.083   .     S
C430   O432    1.218   .     D
C433   O465    1.314   .     A
C433   O464    1.296   .     A
C433   C449    1.451   .     S
C434   C435    1.390   .     A
C434   C460    1.421   .     A
C434   C1408   1.385   .     S
C435   C439    1.418   .     A
C435   C442    1.395   .     A
C436   C440    1.384   .     A
C436   C1406   1.385   1_554 S
C436   C1409   1.409   1_554 S
C437   C438    1.415   .     A
C437   C1408   1.409   .     S
C437   C1428   1.424   .     S
C438   O507    1.397   .     S
C438   C439    1.427   .     A
C439   O533    1.385   .     S
C440   O515    1.376   .     S
C440   C457    1.382   .     A
C441   C457    1.411   .     A
C441   O474    1.381   .     S
C441   C456    1.408   .     A
C442   C458    1.396   .     A
C442   C444    1.456   .     S
C443   C538    1.483   .     S
C443   C449    1.404   .     A
C443   C769    1.383   .     S
C444   O467    1.303   .     A
C444   O466    1.311   .     A
C445   C446    1.401   .     A
C445   O479    1.381   .     S
C446   C454    1.450   .     S
C446   C447    1.405   .     A
C447   O484    1.389   .     S
C448   C449    1.420   .     A
C448   O489    1.387   .     S
C448   C771    1.394   .     S
C450   O494    1.387   .     S
C450   N463    1.362   .     A
C450   C559    1.442   .     S
C451   C499    1.462   .     S
C451   N462    1.384   .     A
C452   N462    1.368   .     A
C452   H461    1.082   .     S
C453   N463    1.374   .     A
C453   O502    1.380   .     S
C453   C560    1.437   .     S
C454   O469    1.307   .     A
C454   O468    1.305   .     A
C455   O470    1.322   .     A
C455   O471    1.291   .     A
C455   C457    1.457   .     S
C456   C512    1.471   .     S
C456   C1409   1.424   1_554 S
C458   C459    1.404   .     A
C458   O520    1.387   .     S
C459   C530    1.481   .     S
C459   C460    1.417   .     A
C460   O1497   1.388   .     S
N462   Zn472   2.048   .     S
N463   Zn473   2.048   .     S
O464   Zn472   2.020   .     S
O465   Zn473   2.009   .     S
O466   Zn472   2.002   .     S
O467   Zn473   2.028   .     S
O468   Zn472   2.009   .     S
O469   Zn473   2.020   .     S
O470   Zn472   2.028   .     S
O471   Zn473   2.002   .     S
O474   C475    1.405   .     S
C475   H477    1.102   .     S
C475   H476    1.108   .     S
C475   H478    1.103   .     S
O479   C480    1.412   .     S
C480   H482    1.102   .     S
C480   H481    1.114   .     S
H483   C804    1.104   .     S
O484   C485    1.409   .     S
C485   H486    1.113   .     S
C485   H487    1.104   .     S
C485   H488    1.105   .     S
O489   C490    1.418   .     S
C490   H492    1.108   .     S
C490   H493    1.110   .     S
C490   H491    1.111   .     S
O494   C495    1.412   .     S
C495   H497    1.108   .     S
C495   H498    1.107   .     S
C495   H496    1.113   .     S
C499   H500    1.078   .     S
C499   O501    1.220   .     D
O502   C503    1.406   .     S
C503   H505    1.111   .     S
C503   H506    1.112   .     S
C503   H504    1.109   .     S
O507   C508    1.407   .     S
C508   H509    1.105   .     S
C508   H510    1.110   .     S
C508   H619    1.105   .     S
C512   O514    1.221   .     D
C512   H621    1.082   .     S
O515   C516    1.419   .     S
C516   H519    1.108   .     S
C516   H518    1.113   .     S
C516   H517    1.113   .     S
O520   C521    1.425   .     S
C521   H523    1.111   .     S
C521   H524    1.099   .     S
C521   H522    1.115   .     S
O525   C526    1.411   .     S
O525   C1432   1.388   1_554 S
C526   H529    1.111   .     S
C526   H528    1.107   .     S
C526   H527    1.108   .     S
C530   O532    1.221   .     D
C530   H1503   1.082   .     S
H531   C1502   1.082   1_554 S
O533   C534    1.412   .     S
C534   H536    1.111   .     S
C534   H537    1.107   .     S
C534   H535    1.112   .     S
C538   H539    1.083   .     S
C538   O540    1.218   .     D
C541   O573    1.314   .     A
C541   O572    1.296   .     A
C541   C557    1.451   .     S
C542   C543    1.390   .     A
C542   C568    1.421   .     A
C542   C1516   1.385   .     S
C543   C547    1.418   .     A
C543   C550    1.395   .     A
C544   C548    1.384   .     A
C544   C1514   1.385   1_554 S
C544   C1517   1.409   1_554 S
C545   C546    1.415   .     A
C545   C1516   1.409   .     S
C545   C1536   1.424   .     S
C546   O615    1.397   .     S
C546   C547    1.427   .     A
C547   O641    1.385   .     S
C548   O623    1.376   .     S
C548   C565    1.382   .     A
C549   C565    1.411   .     A
C549   O582    1.381   .     S
C549   C564    1.408   .     A
C550   C566    1.396   .     A
C550   C552    1.456   .     S
C551   C646    1.483   .     S
C551   C557    1.404   .     A
C551   C877    1.383   .     S
C552   O575    1.303   .     A
C552   O574    1.311   .     A
C553   C554    1.401   .     A
C553   O587    1.381   .     S
C554   C562    1.450   .     S
C554   C555    1.405   .     A
C555   O592    1.389   .     S
C556   C557    1.420   .     A
C556   O597    1.387   .     S
C556   C879    1.394   .     S
C558   O602    1.387   .     S
C558   N571    1.362   .     A
C558   C343    1.442   1_655 S
C559   C607    1.462   .     S
C559   N570    1.384   .     A
C560   N570    1.368   .     A
C560   H569    1.082   .     S
C561   N571    1.374   .     A
C561   O610    1.380   .     S
C561   C344    1.437   1_655 S
C562   O577    1.307   .     A
C562   O576    1.305   .     A
C563   O578    1.322   .     A
C563   O579    1.291   .     A
C563   C565    1.457   .     S
C564   C620    1.471   .     S
C564   C1517   1.424   1_554 S
C566   C567    1.404   .     A
C566   O628    1.387   .     S
C567   C638    1.481   .     S
C567   C568    1.417   .     A
C568   O1605   1.388   .     S
N570   Zn580   2.048   .     S
N571   Zn581   2.048   .     S
O572   Zn580   2.020   .     S
O573   Zn581   2.009   .     S
O574   Zn580   2.002   .     S
O575   Zn581   2.028   .     S
O576   Zn580   2.009   .     S
O577   Zn581   2.020   .     S
O578   Zn580   2.028   .     S
O579   Zn581   2.002   .     S
O582   C583    1.405   .     S
C583   H585    1.102   .     S
C583   H584    1.108   .     S
C583   H586    1.103   .     S
O587   C588    1.412   .     S
C588   H590    1.102   .     S
C588   H589    1.114   .     S
H591   C912    1.104   .     S
O592   C593    1.409   .     S
C593   H594    1.113   .     S
C593   H595    1.104   .     S
C593   H596    1.105   .     S
O597   C598    1.418   .     S
C598   H600    1.108   .     S
C598   H601    1.110   .     S
C598   H599    1.111   .     S
O602   C603    1.412   .     S
C603   H605    1.108   .     S
C603   H606    1.107   .     S
C603   H604    1.113   .     S
C607   H608    1.078   .     S
C607   O609    1.220   .     D
O610   C611    1.406   .     S
C611   H613    1.111   .     S
C611   H614    1.112   .     S
C611   H612    1.109   .     S
O615   C616    1.407   .     S
C616   H617    1.105   .     S
C616   H618    1.110   .     S
C616   H403    1.105   1_655 S
C620   O622    1.221   .     D
C620   H405    1.082   1_655 S
O623   C624    1.419   .     S
C624   H627    1.108   .     S
C624   H626    1.113   .     S
C624   H625    1.113   .     S
O628   C629    1.425   .     S
C629   H631    1.111   .     S
C629   H632    1.099   .     S
C629   H630    1.115   .     S
O633   C634    1.411   .     S
O633   C1540   1.388   1_554 S
C634   H637    1.111   .     S
C634   H636    1.107   .     S
C634   H635    1.108   .     S
C638   O640    1.221   .     D
C638   H1611   1.082   .     S
H639   C1610   1.082   1_554 S
O641   C642    1.412   .     S
C642   H644    1.111   .     S
C642   H645    1.107   .     S
C642   H643    1.112   .     S
C646   H647    1.083   .     S
C646   O648    1.218   .     D
C649   O681    1.314   .     A
C649   O680    1.296   .     A
C649   C665    1.451   .     S
C650   C651    1.390   .     A
C650   C676    1.421   .     A
C650   C1624   1.385   .     S
C651   C655    1.418   .     A
C651   C658    1.395   .     A
C652   C656    1.384   .     A
C652   C1622   1.385   1_554 S
C652   C1625   1.409   1_554 S
C653   C654    1.415   .     A
C653   C1624   1.409   .     S
C653   C1644   1.424   .     S
C654   O723    1.397   .     S
C654   C655    1.427   .     A
C655   O749    1.385   .     S
C656   O731    1.376   .     S
C656   C673    1.382   .     A
C657   C673    1.411   .     A
C657   O690    1.381   .     S
C657   C672    1.408   .     A
C658   C674    1.396   .     A
C658   C660    1.456   .     S
C659   C754    1.483   .     S
C659   C665    1.404   .     A
C659   C13     1.383   1_565 S
C660   O683    1.303   .     A
C660   O682    1.311   .     A
C661   C662    1.401   .     A
C661   O695    1.381   .     S
C662   C670    1.450   .     S
C662   C663    1.405   .     A
C663   O700    1.389   .     S
C664   C665    1.420   .     A
C664   O705    1.387   .     S
C664   C15     1.394   1_565 S
C666   O710    1.387   .     S
C666   N679    1.362   .     A
C666   C775    1.442   .     S
C667   C715    1.462   .     S
C667   N678    1.384   .     A
C667   C882    1.442   1_455 S
C668   N678    1.368   .     A
C668   H677    1.082   .     S
C668   C885    1.437   1_455 S
C669   N679    1.374   .     A
C669   O718    1.380   .     S
C669   C776    1.437   .     S
C670   O685    1.307   .     A
C670   O684    1.305   .     A
C671   O686    1.322   .     A
C671   O687    1.291   .     A
C671   C673    1.457   .     S
C672   C728    1.471   .     S
C672   C1625   1.424   1_554 S
C674   C675    1.404   .     A
C674   O736    1.387   .     S
C675   C746    1.481   .     S
C675   C676    1.417   .     A
C676   O1713   1.388   .     S
N678   Zn688   2.048   .     S
N679   Zn689   2.048   .     S
O680   Zn688   2.020   .     S
O681   Zn689   2.009   .     S
O682   Zn688   2.002   .     S
O683   Zn689   2.028   .     S
O684   Zn688   2.009   .     S
O685   Zn689   2.020   .     S
O686   Zn688   2.028   .     S
O687   Zn689   2.002   .     S
O690   C691    1.405   .     S
C691   H693    1.102   .     S
C691   H692    1.108   .     S
C691   H694    1.103   .     S
O695   C696    1.412   .     S
C696   H698    1.102   .     S
C696   H697    1.114   .     S
H699   C48     1.104   1_565 S
O700   C701    1.409   .     S
C701   H702    1.113   .     S
C701   H703    1.104   .     S
C701   H704    1.105   .     S
O705   C706    1.418   .     S
C706   H708    1.108   .     S
C706   H709    1.110   .     S
C706   H707    1.111   .     S
O710   C711    1.412   .     S
C711   H713    1.108   .     S
C711   H714    1.107   .     S
C711   H712    1.113   .     S
C715   H716    1.078   .     S
C715   O717    1.220   .     D
O718   C719    1.406   .     S
C719   H721    1.111   .     S
C719   H722    1.112   .     S
C719   H720    1.109   .     S
O723   C724    1.407   .     S
C724   H725    1.105   .     S
C724   H726    1.110   .     S
C724   H835    1.105   .     S
H727   C940    1.105   1_455 S
C728   O730    1.221   .     D
C728   H837    1.082   .     S
H729   C944    1.082   1_455 S
O731   C732    1.419   .     S
C732   H735    1.108   .     S
C732   H734    1.113   .     S
C732   H733    1.113   .     S
O736   C737    1.425   .     S
C737   H739    1.111   .     S
C737   H740    1.099   .     S
C737   H738    1.115   .     S
O741   C742    1.411   .     S
O741   C1648   1.388   1_554 S
C742   H745    1.111   .     S
C742   H744    1.107   .     S
C742   H743    1.108   .     S
C746   O748    1.221   .     D
C746   H1719   1.082   .     S
H747   C1718   1.082   1_554 S
O749   C750    1.412   .     S
C750   H752    1.111   .     S
C750   H753    1.107   .     S
C750   H751    1.112   .     S
C754   H755    1.083   .     S
C754   O756    1.218   .     D
C757   O789    1.314   .     A
C757   O788    1.296   .     A
C757   C773    1.451   .     S
C758   C759    1.390   .     A
C758   C784    1.421   .     A
C758   C1732   1.385   .     S
C759   C763    1.418   .     A
C759   C766    1.395   .     A
C760   C764    1.384   .     A
C760   C1730   1.385   1_554 S
C760   C1733   1.409   1_554 S
C761   C762    1.415   .     A
C761   C1732   1.409   .     S
C761   C1752   1.424   .     S
C762   O831    1.397   .     S
C762   C763    1.427   .     A
C763   O857    1.385   .     S
C764   O839    1.376   .     S
C764   C781    1.382   .     A
C765   C781    1.411   .     A
C765   O798    1.381   .     S
C765   C780    1.408   .     A
C766   C782    1.396   .     A
C766   C768    1.456   .     S
C767   C862    1.483   .     S
C767   C773    1.404   .     A
C767   C121    1.383   1_565 S
C768   O791    1.303   .     A
C768   O790    1.311   .     A
C769   C770    1.401   .     A
C769   O803    1.381   .     S
C770   C778    1.450   .     S
C770   C771    1.405   .     A
C771   O808    1.389   .     S
C772   C773    1.420   .     A
C772   O813    1.387   .     S
C772   C123    1.394   1_565 S
C774   O818    1.387   .     S
C774   N787    1.362   .     A
C774   C883    1.442   .     S
C775   C823    1.462   .     S
C775   N786    1.384   .     A
C776   N786    1.368   .     A
C776   H785    1.082   .     S
C777   N787    1.374   .     A
C777   O826    1.380   .     S
C777   C884    1.437   .     S
C778   O793    1.307   .     A
C778   O792    1.305   .     A
C779   O794    1.322   .     A
C779   O795    1.291   .     A
C779   C781    1.457   .     S
C780   C836    1.471   .     S
C780   C1733   1.424   1_554 S
C782   C783    1.404   .     A
C782   O844    1.387   .     S
C783   C854    1.481   .     S
C783   C784    1.417   .     A
C784   O1821   1.388   .     S
N786   Zn796   2.048   .     S
N787   Zn797   2.048   .     S
O788   Zn796   2.020   .     S
O789   Zn797   2.009   .     S
O790   Zn796   2.002   .     S
O791   Zn797   2.028   .     S
O792   Zn796   2.009   .     S
O793   Zn797   2.020   .     S
O794   Zn796   2.028   .     S
O795   Zn797   2.002   .     S
O798   C799    1.405   .     S
C799   H801    1.102   .     S
C799   H800    1.108   .     S
C799   H802    1.103   .     S
O803   C804    1.412   .     S
C804   H806    1.102   .     S
C804   H805    1.114   .     S
H807   C156    1.104   1_565 S
O808   C809    1.409   .     S
C809   H810    1.113   .     S
C809   H811    1.104   .     S
C809   H812    1.105   .     S
O813   C814    1.418   .     S
C814   H816    1.108   .     S
C814   H817    1.110   .     S
C814   H815    1.111   .     S
O818   C819    1.412   .     S
C819   H821    1.108   .     S
C819   H822    1.107   .     S
C819   H820    1.113   .     S
C823   H824    1.078   .     S
C823   O825    1.220   .     D
O826   C827    1.406   .     S
C827   H829    1.111   .     S
C827   H830    1.112   .     S
C827   H828    1.109   .     S
O831   C832    1.407   .     S
C832   H833    1.105   .     S
C832   H834    1.110   .     S
C832   H943    1.105   .     S
C836   O838    1.221   .     D
C836   H945    1.082   .     S
O839   C840    1.419   .     S
C840   H843    1.108   .     S
C840   H842    1.113   .     S
C840   H841    1.113   .     S
O844   C845    1.425   .     S
C845   H847    1.111   .     S
C845   H848    1.099   .     S
C845   H846    1.115   .     S
O849   C850    1.411   .     S
O849   C1756   1.388   1_554 S
C850   H853    1.111   .     S
C850   H852    1.107   .     S
C850   H851    1.108   .     S
C854   O856    1.221   .     D
C854   H1827   1.082   .     S
H855   C1826   1.082   1_554 S
O857   C858    1.412   .     S
C858   H860    1.111   .     S
C858   H861    1.107   .     S
C858   H859    1.112   .     S
C862   H863    1.083   .     S
C862   O864    1.218   .     D
C865   O897    1.314   .     A
C865   O896    1.296   .     A
C865   C881    1.451   .     S
C866   C867    1.390   .     A
C866   C892    1.421   .     A
C866   C1840   1.385   .     S
C867   C871    1.418   .     A
C867   C874    1.395   .     A
C868   C872    1.384   .     A
C868   C1838   1.385   1_554 S
C868   C1841   1.409   1_554 S
C869   C870    1.415   .     A
C869   C1840   1.409   .     S
C869   C1860   1.424   .     S
C870   O939    1.397   .     S
C870   C871    1.427   .     A
C871   O965    1.385   .     S
C872   O947    1.376   .     S
C872   C889    1.382   .     A
C873   C889    1.411   .     A
C873   O906    1.381   .     S
C873   C888    1.408   .     A
C874   C890    1.396   .     A
C874   C876    1.456   .     S
C875   C970    1.483   .     S
C875   C881    1.404   .     A
C875   C229    1.383   1_565 S
C876   O899    1.303   .     A
C876   O898    1.311   .     A
C877   C878    1.401   .     A
C877   O911    1.381   .     S
C878   C886    1.450   .     S
C878   C879    1.405   .     A
C879   O916    1.389   .     S
C880   C881    1.420   .     A
C880   O921    1.387   .     S
C880   C231    1.394   1_565 S
C882   O926    1.387   .     S
C882   N895    1.362   .     A
C882   C667    1.442   1_655 S
C883   C931    1.462   .     S
C883   N894    1.384   .     A
C884   N894    1.368   .     A
C884   H893    1.082   .     S
C885   N895    1.374   .     A
C885   O934    1.380   .     S
C885   C668    1.437   1_655 S
C886   O901    1.307   .     A
C886   O900    1.305   .     A
C887   O902    1.322   .     A
C887   O903    1.291   .     A
C887   C889    1.457   .     S
C888   C944    1.471   .     S
C888   C1841   1.424   1_554 S
C890   C891    1.404   .     A
C890   O952    1.387   .     S
C891   C962    1.481   .     S
C891   C892    1.417   .     A
C892   O1929   1.388   .     S
N894   Zn904   2.048   .     S
N895   Zn905   2.048   .     S
O896   Zn904   2.020   .     S
O897   Zn905   2.009   .     S
O898   Zn904   2.002   .     S
O899   Zn905   2.028   .     S
O900   Zn904   2.009   .     S
O901   Zn905   2.020   .     S
O902   Zn904   2.028   .     S
O903   Zn905   2.002   .     S
O906   C907    1.405   .     S
C907   H909    1.102   .     S
C907   H908    1.108   .     S
C907   H910    1.103   .     S
O911   C912    1.412   .     S
C912   H914    1.102   .     S
C912   H913    1.114   .     S
H915   C264    1.104   1_565 S
O916   C917    1.409   .     S
C917   H918    1.113   .     S
C917   H919    1.104   .     S
C917   H920    1.105   .     S
O921   C922    1.418   .     S
C922   H924    1.108   .     S
C922   H925    1.110   .     S
C922   H923    1.111   .     S
O926   C927    1.412   .     S
C927   H929    1.108   .     S
C927   H930    1.107   .     S
C927   H928    1.113   .     S
C931   H932    1.078   .     S
C931   O933    1.220   .     D
O934   C935    1.406   .     S
C935   H937    1.111   .     S
C935   H938    1.112   .     S
C935   H936    1.109   .     S
O939   C940    1.407   .     S
C940   H941    1.105   .     S
C940   H942    1.110   .     S
C940   H727    1.105   1_655 S
C944   O946    1.221   .     D
C944   H729    1.082   1_655 S
O947   C948    1.419   .     S
C948   H951    1.108   .     S
C948   H950    1.113   .     S
C948   H949    1.113   .     S
O952   C953    1.425   .     S
C953   H955    1.111   .     S
C953   H956    1.099   .     S
C953   H954    1.115   .     S
O957   C958    1.411   .     S
O957   C1864   1.388   1_554 S
C958   H961    1.111   .     S
C958   H960    1.107   .     S
C958   H959    1.108   .     S
C962   O964    1.221   .     D
C962   H1935   1.082   .     S
H963   C1934   1.082   1_554 S
O965   C966    1.412   .     S
C966   H968    1.111   .     S
C966   H969    1.107   .     S
C966   H967    1.112   .     S
C970   H971    1.083   .     S
C970   O972    1.218   .     D
C973   O1005   1.314   .     A
C973   O1004   1.296   .     A
C973   C989    1.451   .     S
C974   C975    1.390   .     A
C974   C1000   1.421   .     A
C974   C4      1.385   1_556 S
C975   C979    1.418   .     A
C975   C982    1.395   .     A
C976   C980    1.384   .     A
C977   C978    1.415   .     A
C977   C4      1.409   1_556 S
C977   C24     1.424   1_556 S
C978   O1047   1.397   .     S
C978   C979    1.427   .     A
C979   O1073   1.385   .     S
C980   O1055   1.376   .     S
C980   C997    1.382   .     A
C981   C997    1.411   .     A
C981   O1014   1.381   .     S
C981   C996    1.408   .     A
C982   C998    1.396   .     A
C982   C984    1.456   .     S
C983   C1078   1.483   .     S
C983   C989    1.404   .     A
C983   C1309   1.383   .     S
C984   O1007   1.303   .     A
C984   O1006   1.311   .     A
C985   C986    1.401   .     A
C985   O1019   1.381   .     S
C985   C1631   1.383   1_545 S
C986   C994    1.450   .     S
C986   C987    1.405   .     A
C987   O1024   1.389   .     S
C987   C1636   1.394   1_545 S
C988   C989    1.420   .     A
C988   O1029   1.387   .     S
C988   C1311   1.394   .     S
C990   O1034   1.387   .     S
C990   N1003   1.362   .     A
C990   C1099   1.442   .     S
C991   C1039   1.462   .     S
C991   N1002   1.384   .     A
C991   C1206   1.442   1_455 S
C992   N1002   1.368   .     A
C992   H1001   1.082   .     S
C992   C1209   1.437   1_455 S
C993   N1003   1.374   .     A
C993   O1042   1.380   .     S
C993   C1100   1.437   .     S
C994   O1009   1.307   .     A
C994   O1008   1.305   .     A
C995   O1010   1.322   .     A
C995   O1011   1.291   .     A
C995   C997    1.457   .     S
C996   C1052   1.471   .     S
C998   C999    1.404   .     A
C998   O1060   1.387   .     S
C999   C1070   1.481   .     S
C999   C1000   1.417   .     A
C1000  O93     1.388   1_556 S
N1002  Zn1012  2.048   .     S
N1003  Zn1013  2.048   .     S
O1004  Zn1012  2.020   .     S
O1005  Zn1013  2.009   .     S
O1006  Zn1012  2.002   .     S
O1007  Zn1013  2.028   .     S
O1008  Zn1012  2.009   .     S
O1009  Zn1013  2.020   .     S
O1010  Zn1012  2.028   .     S
O1011  Zn1013  2.002   .     S
O1014  C1015   1.405   .     S
C1015  H1017   1.102   .     S
C1015  H1016   1.108   .     S
C1015  H1018   1.103   .     S
O1019  C1020   1.412   .     S
C1020  H1022   1.102   .     S
C1020  H1021   1.114   .     S
C1020  H1671   1.104   1_545 S
H1023  C1344   1.104   .     S
O1024  C1025   1.409   .     S
C1025  H1026   1.113   .     S
C1025  H1027   1.104   .     S
C1025  H1028   1.105   .     S
O1029  C1030   1.418   .     S
C1030  H1032   1.108   .     S
C1030  H1033   1.110   .     S
C1030  H1031   1.111   .     S
O1034  C1035   1.412   .     S
C1035  H1037   1.108   .     S
C1035  H1038   1.107   .     S
C1035  H1036   1.113   .     S
C1039  H1040   1.078   .     S
C1039  O1041   1.220   .     D
O1042  C1043   1.406   .     S
C1043  H1045   1.111   .     S
C1043  H1046   1.112   .     S
C1043  H1044   1.109   .     S
O1047  C1048   1.407   .     S
C1048  H1049   1.105   .     S
C1048  H1050   1.110   .     S
C1048  H1159   1.105   .     S
H1051  C1264   1.105   1_455 S
C1052  O1054   1.221   .     D
C1052  H1161   1.082   .     S
H1053  C1268   1.082   1_455 S
O1055  C1056   1.419   .     S
C1056  H1059   1.108   .     S
C1056  H1058   1.113   .     S
C1056  H1057   1.113   .     S
O1060  C1061   1.425   .     S
C1061  H1063   1.111   .     S
C1061  H1064   1.099   .     S
C1061  H1062   1.115   .     S
O1065  C1066   1.411   .     S
C1066  H1069   1.111   .     S
C1066  H1068   1.107   .     S
C1066  H1067   1.108   .     S
C1070  O1072   1.221   .     D
C1070  H99     1.082   1_556 S
O1073  C1074   1.412   .     S
C1074  H1076   1.111   .     S
C1074  H1077   1.107   .     S
C1074  H1075   1.112   .     S
C1078  H1079   1.083   .     S
C1078  O1080   1.218   .     D
C1081  O1113   1.314   .     A
C1081  O1112   1.296   .     A
C1081  C1097   1.451   .     S
C1082  C1083   1.390   .     A
C1082  C1108   1.421   .     A
C1082  C112    1.385   1_556 S
C1083  C1087   1.418   .     A
C1083  C1090   1.395   .     A
C1084  C1088   1.384   .     A
C1085  C1086   1.415   .     A
C1085  C112    1.409   1_556 S
C1085  C132    1.424   1_556 S
C1086  O1155   1.397   .     S
C1086  C1087   1.427   .     A
C1087  O1181   1.385   .     S
C1088  O1163   1.376   .     S
C1088  C1105   1.382   .     A
C1089  C1105   1.411   .     A
C1089  O1122   1.381   .     S
C1089  C1104   1.408   .     A
C1090  C1106   1.396   .     A
C1090  C1092   1.456   .     S
C1091  C1186   1.483   .     S
C1091  C1097   1.404   .     A
C1091  C1417   1.383   .     S
C1092  O1115   1.303   .     A
C1092  O1114   1.311   .     A
C1093  C1094   1.401   .     A
C1093  O1127   1.381   .     S
C1093  C1739   1.383   1_545 S
C1094  C1102   1.450   .     S
C1094  C1095   1.405   .     A
C1095  O1132   1.389   .     S
C1095  C1744   1.394   1_545 S
C1096  C1097   1.420   .     A
C1096  O1137   1.387   .     S
C1096  C1419   1.394   .     S
C1098  O1142   1.387   .     S
C1098  N1111   1.362   .     A
C1098  C1207   1.442   .     S
C1099  C1147   1.462   .     S
C1099  N1110   1.384   .     A
C1100  N1110   1.368   .     A
C1100  H1109   1.082   .     S
C1101  N1111   1.374   .     A
C1101  O1150   1.380   .     S
C1101  C1208   1.437   .     S
C1102  O1117   1.307   .     A
C1102  O1116   1.305   .     A
C1103  O1118   1.322   .     A
C1103  O1119   1.291   .     A
C1103  C1105   1.457   .     S
C1104  C1160   1.471   .     S
C1106  C1107   1.404   .     A
C1106  O1168   1.387   .     S
C1107  C1178   1.481   .     S
C1107  C1108   1.417   .     A
C1108  O201    1.388   1_556 S
N1110  Zn1120  2.048   .     S
N1111  Zn1121  2.048   .     S
O1112  Zn1120  2.020   .     S
O1113  Zn1121  2.009   .     S
O1114  Zn1120  2.002   .     S
O1115  Zn1121  2.028   .     S
O1116  Zn1120  2.009   .     S
O1117  Zn1121  2.020   .     S
O1118  Zn1120  2.028   .     S
O1119  Zn1121  2.002   .     S
O1122  C1123   1.405   .     S
C1123  H1125   1.102   .     S
C1123  H1124   1.108   .     S
C1123  H1126   1.103   .     S
O1127  C1128   1.412   .     S
C1128  H1130   1.102   .     S
C1128  H1129   1.114   .     S
C1128  H1779   1.104   1_545 S
H1131  C1452   1.104   .     S
O1132  C1133   1.409   .     S
C1133  H1134   1.113   .     S
C1133  H1135   1.104   .     S
C1133  H1136   1.105   .     S
O1137  C1138   1.418   .     S
C1138  H1140   1.108   .     S
C1138  H1141   1.110   .     S
C1138  H1139   1.111   .     S
O1142  C1143   1.412   .     S
C1143  H1145   1.108   .     S
C1143  H1146   1.107   .     S
C1143  H1144   1.113   .     S
C1147  H1148   1.078   .     S
C1147  O1149   1.220   .     D
O1150  C1151   1.406   .     S
C1151  H1153   1.111   .     S
C1151  H1154   1.112   .     S
C1151  H1152   1.109   .     S
O1155  C1156   1.407   .     S
C1156  H1157   1.105   .     S
C1156  H1158   1.110   .     S
C1156  H1267   1.105   .     S
C1160  O1162   1.221   .     D
C1160  H1269   1.082   .     S
O1163  C1164   1.419   .     S
C1164  H1167   1.108   .     S
C1164  H1166   1.113   .     S
C1164  H1165   1.113   .     S
O1168  C1169   1.425   .     S
C1169  H1171   1.111   .     S
C1169  H1172   1.099   .     S
C1169  H1170   1.115   .     S
O1173  C1174   1.411   .     S
C1174  H1177   1.111   .     S
C1174  H1176   1.107   .     S
C1174  H1175   1.108   .     S
C1178  O1180   1.221   .     D
C1178  H207    1.082   1_556 S
O1181  C1182   1.412   .     S
C1182  H1184   1.111   .     S
C1182  H1185   1.107   .     S
C1182  H1183   1.112   .     S
C1186  H1187   1.083   .     S
C1186  O1188   1.218   .     D
C1189  O1221   1.314   .     A
C1189  O1220   1.296   .     A
C1189  C1205   1.451   .     S
C1190  C1191   1.390   .     A
C1190  C1216   1.421   .     A
C1190  C220    1.385   1_556 S
C1191  C1195   1.418   .     A
C1191  C1198   1.395   .     A
C1192  C1196   1.384   .     A
C1193  C1194   1.415   .     A
C1193  C220    1.409   1_556 S
C1193  C240    1.424   1_556 S
C1194  O1263   1.397   .     S
C1194  C1195   1.427   .     A
C1195  O1289   1.385   .     S
C1196  O1271   1.376   .     S
C1196  C1213   1.382   .     A
C1197  C1213   1.411   .     A
C1197  O1230   1.381   .     S
C1197  C1212   1.408   .     A
C1198  C1214   1.396   .     A
C1198  C1200   1.456   .     S
C1199  C1294   1.483   .     S
C1199  C1205   1.404   .     A
C1199  C1525   1.383   .     S
C1200  O1223   1.303   .     A
C1200  O1222   1.311   .     A
C1201  C1202   1.401   .     A
C1201  O1235   1.381   .     S
C1201  C1847   1.383   1_545 S
C1202  C1210   1.450   .     S
C1202  C1203   1.405   .     A
C1203  O1240   1.389   .     S
C1203  C1852   1.394   1_545 S
C1204  C1205   1.420   .     A
C1204  O1245   1.387   .     S
C1204  C1527   1.394   .     S
C1206  O1250   1.387   .     S
C1206  N1219   1.362   .     A
C1206  C991    1.442   1_655 S
C1207  C1255   1.462   .     S
C1207  N1218   1.384   .     A
C1208  N1218   1.368   .     A
C1208  H1217   1.082   .     S
C1209  N1219   1.374   .     A
C1209  O1258   1.380   .     S
C1209  C992    1.437   1_655 S
C1210  O1225   1.307   .     A
C1210  O1224   1.305   .     A
C1211  O1226   1.322   .     A
C1211  O1227   1.291   .     A
C1211  C1213   1.457   .     S
C1212  C1268   1.471   .     S
C1214  C1215   1.404   .     A
C1214  O1276   1.387   .     S
C1215  C1286   1.481   .     S
C1215  C1216   1.417   .     A
C1216  O309    1.388   1_556 S
N1218  Zn1228  2.048   .     S
N1219  Zn1229  2.048   .     S
O1220  Zn1228  2.020   .     S
O1221  Zn1229  2.009   .     S
O1222  Zn1228  2.002   .     S
O1223  Zn1229  2.028   .     S
O1224  Zn1228  2.009   .     S
O1225  Zn1229  2.020   .     S
O1226  Zn1228  2.028   .     S
O1227  Zn1229  2.002   .     S
O1230  C1231   1.405   .     S
C1231  H1233   1.102   .     S
C1231  H1232   1.108   .     S
C1231  H1234   1.103   .     S
O1235  C1236   1.412   .     S
C1236  H1238   1.102   .     S
C1236  H1237   1.114   .     S
C1236  H1887   1.104   1_545 S
H1239  C1560   1.104   .     S
O1240  C1241   1.409   .     S
C1241  H1242   1.113   .     S
C1241  H1243   1.104   .     S
C1241  H1244   1.105   .     S
O1245  C1246   1.418   .     S
C1246  H1248   1.108   .     S
C1246  H1249   1.110   .     S
C1246  H1247   1.111   .     S
O1250  C1251   1.412   .     S
C1251  H1253   1.108   .     S
C1251  H1254   1.107   .     S
C1251  H1252   1.113   .     S
C1255  H1256   1.078   .     S
C1255  O1257   1.220   .     D
O1258  C1259   1.406   .     S
C1259  H1261   1.111   .     S
C1259  H1262   1.112   .     S
C1259  H1260   1.109   .     S
O1263  C1264   1.407   .     S
C1264  H1265   1.105   .     S
C1264  H1266   1.110   .     S
C1264  H1051   1.105   1_655 S
C1268  O1270   1.221   .     D
C1268  H1053   1.082   1_655 S
O1271  C1272   1.419   .     S
C1272  H1275   1.108   .     S
C1272  H1274   1.113   .     S
C1272  H1273   1.113   .     S
O1276  C1277   1.425   .     S
C1277  H1279   1.111   .     S
C1277  H1280   1.099   .     S
C1277  H1278   1.115   .     S
O1281  C1282   1.411   .     S
C1282  H1285   1.111   .     S
C1282  H1284   1.107   .     S
C1282  H1283   1.108   .     S
C1286  O1288   1.221   .     D
C1286  H315    1.082   1_556 S
O1289  C1290   1.412   .     S
C1290  H1292   1.111   .     S
C1290  H1293   1.107   .     S
C1290  H1291   1.112   .     S
C1294  H1295   1.083   .     S
C1294  O1296   1.218   .     D
C1297  O1329   1.314   .     A
C1297  O1328   1.296   .     A
C1297  C1313   1.451   .     S
C1298  C1299   1.390   .     A
C1298  C1324   1.421   .     A
C1298  C328    1.385   1_556 S
C1299  C1303   1.418   .     A
C1299  C1306   1.395   .     A
C1300  C1304   1.384   .     A
C1301  C1302   1.415   .     A
C1301  C328    1.409   1_556 S
C1301  C348    1.424   1_556 S
C1302  O1371   1.397   .     S
C1302  C1303   1.427   .     A
C1303  O1397   1.385   .     S
C1304  O1379   1.376   .     S
C1304  C1321   1.382   .     A
C1305  C1321   1.411   .     A
C1305  O1338   1.381   .     S
C1305  C1320   1.408   .     A
C1306  C1322   1.396   .     A
C1306  C1308   1.456   .     S
C1307  C1402   1.483   .     S
C1307  C1313   1.404   .     A
C1307  C1633   1.383   .     S
C1308  O1331   1.303   .     A
C1308  O1330   1.311   .     A
C1309  C1310   1.401   .     A
C1309  O1343   1.381   .     S
C1310  C1318   1.450   .     S
C1310  C1311   1.405   .     A
C1311  O1348   1.389   .     S
C1312  C1313   1.420   .     A
C1312  O1353   1.387   .     S
C1312  C1635   1.394   .     S
C1314  O1358   1.387   .     S
C1314  N1327   1.362   .     A
C1314  C1423   1.442   .     S
C1315  C1363   1.462   .     S
C1315  N1326   1.384   .     A
C1315  C1530   1.442   1_455 S
C1316  N1326   1.368   .     A
C1316  H1325   1.082   .     S
C1316  C1533   1.437   1_455 S
C1317  N1327   1.374   .     A
C1317  O1366   1.380   .     S
C1317  C1424   1.437   .     S
C1318  O1333   1.307   .     A
C1318  O1332   1.305   .     A
C1319  O1334   1.322   .     A
C1319  O1335   1.291   .     A
C1319  C1321   1.457   .     S
C1320  C1376   1.471   .     S
C1322  C1323   1.404   .     A
C1322  O1384   1.387   .     S
C1323  C1394   1.481   .     S
C1323  C1324   1.417   .     A
C1324  O417    1.388   1_556 S
N1326  Zn1336  2.048   .     S
N1327  Zn1337  2.048   .     S
O1328  Zn1336  2.020   .     S
O1329  Zn1337  2.009   .     S
O1330  Zn1336  2.002   .     S
O1331  Zn1337  2.028   .     S
O1332  Zn1336  2.009   .     S
O1333  Zn1337  2.020   .     S
O1334  Zn1336  2.028   .     S
O1335  Zn1337  2.002   .     S
O1338  C1339   1.405   .     S
C1339  H1341   1.102   .     S
C1339  H1340   1.108   .     S
C1339  H1342   1.103   .     S
O1343  C1344   1.412   .     S
C1344  H1346   1.102   .     S
C1344  H1345   1.114   .     S
H1347  C1668   1.104   .     S
O1348  C1349   1.409   .     S
C1349  H1350   1.113   .     S
C1349  H1351   1.104   .     S
C1349  H1352   1.105   .     S
O1353  C1354   1.418   .     S
C1354  H1356   1.108   .     S
C1354  H1357   1.110   .     S
C1354  H1355   1.111   .     S
O1358  C1359   1.412   .     S
C1359  H1361   1.108   .     S
C1359  H1362   1.107   .     S
C1359  H1360   1.113   .     S
C1363  H1364   1.078   .     S
C1363  O1365   1.220   .     D
O1366  C1367   1.406   .     S
C1367  H1369   1.111   .     S
C1367  H1370   1.112   .     S
C1367  H1368   1.109   .     S
O1371  C1372   1.407   .     S
C1372  H1373   1.105   .     S
C1372  H1374   1.110   .     S
C1372  H1483   1.105   .     S
H1375  C1588   1.105   1_455 S
C1376  O1378   1.221   .     D
C1376  H1485   1.082   .     S
H1377  C1592   1.082   1_455 S
O1379  C1380   1.419   .     S
C1380  H1383   1.108   .     S
C1380  H1382   1.113   .     S
C1380  H1381   1.113   .     S
O1384  C1385   1.425   .     S
C1385  H1387   1.111   .     S
C1385  H1388   1.099   .     S
C1385  H1386   1.115   .     S
O1389  C1390   1.411   .     S
C1390  H1393   1.111   .     S
C1390  H1392   1.107   .     S
C1390  H1391   1.108   .     S
C1394  O1396   1.221   .     D
C1394  H423    1.082   1_556 S
O1397  C1398   1.412   .     S
C1398  H1400   1.111   .     S
C1398  H1401   1.107   .     S
C1398  H1399   1.112   .     S
C1402  H1403   1.083   .     S
C1402  O1404   1.218   .     D
C1405  O1437   1.314   .     A
C1405  O1436   1.296   .     A
C1405  C1421   1.451   .     S
C1406  C1407   1.390   .     A
C1406  C1432   1.421   .     A
C1406  C436    1.385   1_556 S
C1407  C1411   1.418   .     A
C1407  C1414   1.395   .     A
C1408  C1412   1.384   .     A
C1409  C1410   1.415   .     A
C1409  C436    1.409   1_556 S
C1409  C456    1.424   1_556 S
C1410  O1479   1.397   .     S
C1410  C1411   1.427   .     A
C1411  O1505   1.385   .     S
C1412  O1487   1.376   .     S
C1412  C1429   1.382   .     A
C1413  C1429   1.411   .     A
C1413  O1446   1.381   .     S
C1413  C1428   1.408   .     A
C1414  C1430   1.396   .     A
C1414  C1416   1.456   .     S
C1415  C1510   1.483   .     S
C1415  C1421   1.404   .     A
C1415  C1741   1.383   .     S
C1416  O1439   1.303   .     A
C1416  O1438   1.311   .     A
C1417  C1418   1.401   .     A
C1417  O1451   1.381   .     S
C1418  C1426   1.450   .     S
C1418  C1419   1.405   .     A
C1419  O1456   1.389   .     S
C1420  C1421   1.420   .     A
C1420  O1461   1.387   .     S
C1420  C1743   1.394   .     S
C1422  O1466   1.387   .     S
C1422  N1435   1.362   .     A
C1422  C1531   1.442   .     S
C1423  C1471   1.462   .     S
C1423  N1434   1.384   .     A
C1424  N1434   1.368   .     A
C1424  H1433   1.082   .     S
C1425  N1435   1.374   .     A
C1425  O1474   1.380   .     S
C1425  C1532   1.437   .     S
C1426  O1441   1.307   .     A
C1426  O1440   1.305   .     A
C1427  O1442   1.322   .     A
C1427  O1443   1.291   .     A
C1427  C1429   1.457   .     S
C1428  C1484   1.471   .     S
C1430  C1431   1.404   .     A
C1430  O1492   1.387   .     S
C1431  C1502   1.481   .     S
C1431  C1432   1.417   .     A
C1432  O525    1.388   1_556 S
N1434  Zn1444  2.048   .     S
N1435  Zn1445  2.048   .     S
O1436  Zn1444  2.020   .     S
O1437  Zn1445  2.009   .     S
O1438  Zn1444  2.002   .     S
O1439  Zn1445  2.028   .     S
O1440  Zn1444  2.009   .     S
O1441  Zn1445  2.020   .     S
O1442  Zn1444  2.028   .     S
O1443  Zn1445  2.002   .     S
O1446  C1447   1.405   .     S
C1447  H1449   1.102   .     S
C1447  H1448   1.108   .     S
C1447  H1450   1.103   .     S
O1451  C1452   1.412   .     S
C1452  H1454   1.102   .     S
C1452  H1453   1.114   .     S
H1455  C1776   1.104   .     S
O1456  C1457   1.409   .     S
C1457  H1458   1.113   .     S
C1457  H1459   1.104   .     S
C1457  H1460   1.105   .     S
O1461  C1462   1.418   .     S
C1462  H1464   1.108   .     S
C1462  H1465   1.110   .     S
C1462  H1463   1.111   .     S
O1466  C1467   1.412   .     S
C1467  H1469   1.108   .     S
C1467  H1470   1.107   .     S
C1467  H1468   1.113   .     S
C1471  H1472   1.078   .     S
C1471  O1473   1.220   .     D
O1474  C1475   1.406   .     S
C1475  H1477   1.111   .     S
C1475  H1478   1.112   .     S
C1475  H1476   1.109   .     S
O1479  C1480   1.407   .     S
C1480  H1481   1.105   .     S
C1480  H1482   1.110   .     S
C1480  H1591   1.105   .     S
C1484  O1486   1.221   .     D
C1484  H1593   1.082   .     S
O1487  C1488   1.419   .     S
C1488  H1491   1.108   .     S
C1488  H1490   1.113   .     S
C1488  H1489   1.113   .     S
O1492  C1493   1.425   .     S
C1493  H1495   1.111   .     S
C1493  H1496   1.099   .     S
C1493  H1494   1.115   .     S
O1497  C1498   1.411   .     S
C1498  H1501   1.111   .     S
C1498  H1500   1.107   .     S
C1498  H1499   1.108   .     S
C1502  O1504   1.221   .     D
C1502  H531    1.082   1_556 S
O1505  C1506   1.412   .     S
C1506  H1508   1.111   .     S
C1506  H1509   1.107   .     S
C1506  H1507   1.112   .     S
C1510  H1511   1.083   .     S
C1510  O1512   1.218   .     D
C1513  O1545   1.314   .     A
C1513  O1544   1.296   .     A
C1513  C1529   1.451   .     S
C1514  C1515   1.390   .     A
C1514  C1540   1.421   .     A
C1514  C544    1.385   1_556 S
C1515  C1519   1.418   .     A
C1515  C1522   1.395   .     A
C1516  C1520   1.384   .     A
C1517  C1518   1.415   .     A
C1517  C544    1.409   1_556 S
C1517  C564    1.424   1_556 S
C1518  O1587   1.397   .     S
C1518  C1519   1.427   .     A
C1519  O1613   1.385   .     S
C1520  O1595   1.376   .     S
C1520  C1537   1.382   .     A
C1521  C1537   1.411   .     A
C1521  O1554   1.381   .     S
C1521  C1536   1.408   .     A
C1522  C1538   1.396   .     A
C1522  C1524   1.456   .     S
C1523  C1618   1.483   .     S
C1523  C1529   1.404   .     A
C1523  C1849   1.383   .     S
C1524  O1547   1.303   .     A
C1524  O1546   1.311   .     A
C1525  C1526   1.401   .     A
C1525  O1559   1.381   .     S
C1526  C1534   1.450   .     S
C1526  C1527   1.405   .     A
C1527  O1564   1.389   .     S
C1528  C1529   1.420   .     A
C1528  O1569   1.387   .     S
C1528  C1851   1.394   .     S
C1530  O1574   1.387   .     S
C1530  N1543   1.362   .     A
C1530  C1315   1.442   1_655 S
C1531  C1579   1.462   .     S
C1531  N1542   1.384   .     A
C1532  N1542   1.368   .     A
C1532  H1541   1.082   .     S
C1533  N1543   1.374   .     A
C1533  O1582   1.380   .     S
C1533  C1316   1.437   1_655 S
C1534  O1549   1.307   .     A
C1534  O1548   1.305   .     A
C1535  O1550   1.322   .     A
C1535  O1551   1.291   .     A
C1535  C1537   1.457   .     S
C1536  C1592   1.471   .     S
C1538  C1539   1.404   .     A
C1538  O1600   1.387   .     S
C1539  C1610   1.481   .     S
C1539  C1540   1.417   .     A
C1540  O633    1.388   1_556 S
N1542  Zn1552  2.048   .     S
N1543  Zn1553  2.048   .     S
O1544  Zn1552  2.020   .     S
O1545  Zn1553  2.009   .     S
O1546  Zn1552  2.002   .     S
O1547  Zn1553  2.028   .     S
O1548  Zn1552  2.009   .     S
O1549  Zn1553  2.020   .     S
O1550  Zn1552  2.028   .     S
O1551  Zn1553  2.002   .     S
O1554  C1555   1.405   .     S
C1555  H1557   1.102   .     S
C1555  H1556   1.108   .     S
C1555  H1558   1.103   .     S
O1559  C1560   1.412   .     S
C1560  H1562   1.102   .     S
C1560  H1561   1.114   .     S
H1563  C1884   1.104   .     S
O1564  C1565   1.409   .     S
C1565  H1566   1.113   .     S
C1565  H1567   1.104   .     S
C1565  H1568   1.105   .     S
O1569  C1570   1.418   .     S
C1570  H1572   1.108   .     S
C1570  H1573   1.110   .     S
C1570  H1571   1.111   .     S
O1574  C1575   1.412   .     S
C1575  H1577   1.108   .     S
C1575  H1578   1.107   .     S
C1575  H1576   1.113   .     S
C1579  H1580   1.078   .     S
C1579  O1581   1.220   .     D
O1582  C1583   1.406   .     S
C1583  H1585   1.111   .     S
C1583  H1586   1.112   .     S
C1583  H1584   1.109   .     S
O1587  C1588   1.407   .     S
C1588  H1589   1.105   .     S
C1588  H1590   1.110   .     S
C1588  H1375   1.105   1_655 S
C1592  O1594   1.221   .     D
C1592  H1377   1.082   1_655 S
O1595  C1596   1.419   .     S
C1596  H1599   1.108   .     S
C1596  H1598   1.113   .     S
C1596  H1597   1.113   .     S
O1600  C1601   1.425   .     S
C1601  H1603   1.111   .     S
C1601  H1604   1.099   .     S
C1601  H1602   1.115   .     S
O1605  C1606   1.411   .     S
C1606  H1609   1.111   .     S
C1606  H1608   1.107   .     S
C1606  H1607   1.108   .     S
C1610  O1612   1.221   .     D
C1610  H639    1.082   1_556 S
O1613  C1614   1.412   .     S
C1614  H1616   1.111   .     S
C1614  H1617   1.107   .     S
C1614  H1615   1.112   .     S
C1618  H1619   1.083   .     S
C1618  O1620   1.218   .     D
C1621  O1653   1.314   .     A
C1621  O1652   1.296   .     A
C1621  C1637   1.451   .     S
C1622  C1623   1.390   .     A
C1622  C1648   1.421   .     A
C1622  C652    1.385   1_556 S
C1623  C1627   1.418   .     A
C1623  C1630   1.395   .     A
C1624  C1628   1.384   .     A
C1625  C1626   1.415   .     A
C1625  C652    1.409   1_556 S
C1625  C672    1.424   1_556 S
C1626  O1695   1.397   .     S
C1626  C1627   1.427   .     A
C1627  O1721   1.385   .     S
C1628  O1703   1.376   .     S
C1628  C1645   1.382   .     A
C1629  C1645   1.411   .     A
C1629  O1662   1.381   .     S
C1629  C1644   1.408   .     A
C1630  C1646   1.396   .     A
C1630  C1632   1.456   .     S
C1631  C1726   1.483   .     S
C1631  C1637   1.404   .     A
C1631  C985    1.383   1_565 S
C1632  O1655   1.303   .     A
C1632  O1654   1.311   .     A
C1633  C1634   1.401   .     A
C1633  O1667   1.381   .     S
C1634  C1642   1.450   .     S
C1634  C1635   1.405   .     A
C1635  O1672   1.389   .     S
C1636  C1637   1.420   .     A
C1636  O1677   1.387   .     S
C1636  C987    1.394   1_565 S
C1638  O1682   1.387   .     S
C1638  N1651   1.362   .     A
C1638  C1747   1.442   .     S
C1639  C1687   1.462   .     S
C1639  N1650   1.384   .     A
C1639  C1854   1.442   1_455 S
C1640  N1650   1.368   .     A
C1640  H1649   1.082   .     S
C1640  C1857   1.437   1_455 S
C1641  N1651   1.374   .     A
C1641  O1690   1.380   .     S
C1641  C1748   1.437   .     S
C1642  O1657   1.307   .     A
C1642  O1656   1.305   .     A
C1643  O1658   1.322   .     A
C1643  O1659   1.291   .     A
C1643  C1645   1.457   .     S
C1644  C1700   1.471   .     S
C1646  C1647   1.404   .     A
C1646  O1708   1.387   .     S
C1647  C1718   1.481   .     S
C1647  C1648   1.417   .     A
C1648  O741    1.388   1_556 S
N1650  Zn1660  2.048   .     S
N1651  Zn1661  2.048   .     S
O1652  Zn1660  2.020   .     S
O1653  Zn1661  2.009   .     S
O1654  Zn1660  2.002   .     S
O1655  Zn1661  2.028   .     S
O1656  Zn1660  2.009   .     S
O1657  Zn1661  2.020   .     S
O1658  Zn1660  2.028   .     S
O1659  Zn1661  2.002   .     S
O1662  C1663   1.405   .     S
C1663  H1665   1.102   .     S
C1663  H1664   1.108   .     S
C1663  H1666   1.103   .     S
O1667  C1668   1.412   .     S
C1668  H1670   1.102   .     S
C1668  H1669   1.114   .     S
H1671  C1020   1.104   1_565 S
O1672  C1673   1.409   .     S
C1673  H1674   1.113   .     S
C1673  H1675   1.104   .     S
C1673  H1676   1.105   .     S
O1677  C1678   1.418   .     S
C1678  H1680   1.108   .     S
C1678  H1681   1.110   .     S
C1678  H1679   1.111   .     S
O1682  C1683   1.412   .     S
C1683  H1685   1.108   .     S
C1683  H1686   1.107   .     S
C1683  H1684   1.113   .     S
C1687  H1688   1.078   .     S
C1687  O1689   1.220   .     D
O1690  C1691   1.406   .     S
C1691  H1693   1.111   .     S
C1691  H1694   1.112   .     S
C1691  H1692   1.109   .     S
O1695  C1696   1.407   .     S
C1696  H1697   1.105   .     S
C1696  H1698   1.110   .     S
C1696  H1807   1.105   .     S
H1699  C1912   1.105   1_455 S
C1700  O1702   1.221   .     D
C1700  H1809   1.082   .     S
H1701  C1916   1.082   1_455 S
O1703  C1704   1.419   .     S
C1704  H1707   1.108   .     S
C1704  H1706   1.113   .     S
C1704  H1705   1.113   .     S
O1708  C1709   1.425   .     S
C1709  H1711   1.111   .     S
C1709  H1712   1.099   .     S
C1709  H1710   1.115   .     S
O1713  C1714   1.411   .     S
C1714  H1717   1.111   .     S
C1714  H1716   1.107   .     S
C1714  H1715   1.108   .     S
C1718  O1720   1.221   .     D
C1718  H747    1.082   1_556 S
O1721  C1722   1.412   .     S
C1722  H1724   1.111   .     S
C1722  H1725   1.107   .     S
C1722  H1723   1.112   .     S
C1726  H1727   1.083   .     S
C1726  O1728   1.218   .     D
C1729  O1761   1.314   .     A
C1729  O1760   1.296   .     A
C1729  C1745   1.451   .     S
C1730  C1731   1.390   .     A
C1730  C1756   1.421   .     A
C1730  C760    1.385   1_556 S
C1731  C1735   1.418   .     A
C1731  C1738   1.395   .     A
C1732  C1736   1.384   .     A
C1733  C1734   1.415   .     A
C1733  C760    1.409   1_556 S
C1733  C780    1.424   1_556 S
C1734  O1803   1.397   .     S
C1734  C1735   1.427   .     A
C1735  O1829   1.385   .     S
C1736  O1811   1.376   .     S
C1736  C1753   1.382   .     A
C1737  C1753   1.411   .     A
C1737  O1770   1.381   .     S
C1737  C1752   1.408   .     A
C1738  C1754   1.396   .     A
C1738  C1740   1.456   .     S
C1739  C1834   1.483   .     S
C1739  C1745   1.404   .     A
C1739  C1093   1.383   1_565 S
C1740  O1763   1.303   .     A
C1740  O1762   1.311   .     A
C1741  C1742   1.401   .     A
C1741  O1775   1.381   .     S
C1742  C1750   1.450   .     S
C1742  C1743   1.405   .     A
C1743  O1780   1.389   .     S
C1744  C1745   1.420   .     A
C1744  O1785   1.387   .     S
C1744  C1095   1.394   1_565 S
C1746  O1790   1.387   .     S
C1746  N1759   1.362   .     A
C1746  C1855   1.442   .     S
C1747  C1795   1.462   .     S
C1747  N1758   1.384   .     A
C1748  N1758   1.368   .     A
C1748  H1757   1.082   .     S
C1749  N1759   1.374   .     A
C1749  O1798   1.380   .     S
C1749  C1856   1.437   .     S
C1750  O1765   1.307   .     A
C1750  O1764   1.305   .     A
C1751  O1766   1.322   .     A
C1751  O1767   1.291   .     A
C1751  C1753   1.457   .     S
C1752  C1808   1.471   .     S
C1754  C1755   1.404   .     A
C1754  O1816   1.387   .     S
C1755  C1826   1.481   .     S
C1755  C1756   1.417   .     A
C1756  O849    1.388   1_556 S
N1758  Zn1768  2.048   .     S
N1759  Zn1769  2.048   .     S
O1760  Zn1768  2.020   .     S
O1761  Zn1769  2.009   .     S
O1762  Zn1768  2.002   .     S
O1763  Zn1769  2.028   .     S
O1764  Zn1768  2.009   .     S
O1765  Zn1769  2.020   .     S
O1766  Zn1768  2.028   .     S
O1767  Zn1769  2.002   .     S
O1770  C1771   1.405   .     S
C1771  H1773   1.102   .     S
C1771  H1772   1.108   .     S
C1771  H1774   1.103   .     S
O1775  C1776   1.412   .     S
C1776  H1778   1.102   .     S
C1776  H1777   1.114   .     S
H1779  C1128   1.104   1_565 S
O1780  C1781   1.409   .     S
C1781  H1782   1.113   .     S
C1781  H1783   1.104   .     S
C1781  H1784   1.105   .     S
O1785  C1786   1.418   .     S
C1786  H1788   1.108   .     S
C1786  H1789   1.110   .     S
C1786  H1787   1.111   .     S
O1790  C1791   1.412   .     S
C1791  H1793   1.108   .     S
C1791  H1794   1.107   .     S
C1791  H1792   1.113   .     S
C1795  H1796   1.078   .     S
C1795  O1797   1.220   .     D
O1798  C1799   1.406   .     S
C1799  H1801   1.111   .     S
C1799  H1802   1.112   .     S
C1799  H1800   1.109   .     S
O1803  C1804   1.407   .     S
C1804  H1805   1.105   .     S
C1804  H1806   1.110   .     S
C1804  H1915   1.105   .     S
C1808  O1810   1.221   .     D
C1808  H1917   1.082   .     S
O1811  C1812   1.419   .     S
C1812  H1815   1.108   .     S
C1812  H1814   1.113   .     S
C1812  H1813   1.113   .     S
O1816  C1817   1.425   .     S
C1817  H1819   1.111   .     S
C1817  H1820   1.099   .     S
C1817  H1818   1.115   .     S
O1821  C1822   1.411   .     S
C1822  H1825   1.111   .     S
C1822  H1824   1.107   .     S
C1822  H1823   1.108   .     S
C1826  O1828   1.221   .     D
C1826  H855    1.082   1_556 S
O1829  C1830   1.412   .     S
C1830  H1832   1.111   .     S
C1830  H1833   1.107   .     S
C1830  H1831   1.112   .     S
C1834  H1835   1.083   .     S
C1834  O1836   1.218   .     D
C1837  O1869   1.314   .     A
C1837  O1868   1.296   .     A
C1837  C1853   1.451   .     S
C1838  C1839   1.390   .     A
C1838  C1864   1.421   .     A
C1838  C868    1.385   1_556 S
C1839  C1843   1.418   .     A
C1839  C1846   1.395   .     A
C1840  C1844   1.384   .     A
C1841  C1842   1.415   .     A
C1841  C868    1.409   1_556 S
C1841  C888    1.424   1_556 S
C1842  O1911   1.397   .     S
C1842  C1843   1.427   .     A
C1843  O1937   1.385   .     S
C1844  O1919   1.376   .     S
C1844  C1861   1.382   .     A
C1845  C1861   1.411   .     A
C1845  O1878   1.381   .     S
C1845  C1860   1.408   .     A
C1846  C1862   1.396   .     A
C1846  C1848   1.456   .     S
C1847  C1942   1.483   .     S
C1847  C1853   1.404   .     A
C1847  C1201   1.383   1_565 S
C1848  O1871   1.303   .     A
C1848  O1870   1.311   .     A
C1849  C1850   1.401   .     A
C1849  O1883   1.381   .     S
C1850  C1858   1.450   .     S
C1850  C1851   1.405   .     A
C1851  O1888   1.389   .     S
C1852  C1853   1.420   .     A
C1852  O1893   1.387   .     S
C1852  C1203   1.394   1_565 S
C1854  O1898   1.387   .     S
C1854  N1867   1.362   .     A
C1854  C1639   1.442   1_655 S
C1855  C1903   1.462   .     S
C1855  N1866   1.384   .     A
C1856  N1866   1.368   .     A
C1856  H1865   1.082   .     S
C1857  N1867   1.374   .     A
C1857  O1906   1.380   .     S
C1857  C1640   1.437   1_655 S
C1858  O1873   1.307   .     A
C1858  O1872   1.305   .     A
C1859  O1874   1.322   .     A
C1859  O1875   1.291   .     A
C1859  C1861   1.457   .     S
C1860  C1916   1.471   .     S
C1862  C1863   1.404   .     A
C1862  O1924   1.387   .     S
C1863  C1934   1.481   .     S
C1863  C1864   1.417   .     A
C1864  O957    1.388   1_556 S
N1866  Zn1876  2.048   .     S
N1867  Zn1877  2.048   .     S
O1868  Zn1876  2.020   .     S
O1869  Zn1877  2.009   .     S
O1870  Zn1876  2.002   .     S
O1871  Zn1877  2.028   .     S
O1872  Zn1876  2.009   .     S
O1873  Zn1877  2.020   .     S
O1874  Zn1876  2.028   .     S
O1875  Zn1877  2.002   .     S
O1878  C1879   1.405   .     S
C1879  H1881   1.102   .     S
C1879  H1880   1.108   .     S
C1879  H1882   1.103   .     S
O1883  C1884   1.412   .     S
C1884  H1886   1.102   .     S
C1884  H1885   1.114   .     S
H1887  C1236   1.104   1_565 S
O1888  C1889   1.409   .     S
C1889  H1890   1.113   .     S
C1889  H1891   1.104   .     S
C1889  H1892   1.105   .     S
O1893  C1894   1.418   .     S
C1894  H1896   1.108   .     S
C1894  H1897   1.110   .     S
C1894  H1895   1.111   .     S
O1898  C1899   1.412   .     S
C1899  H1901   1.108   .     S
C1899  H1902   1.107   .     S
C1899  H1900   1.113   .     S
C1903  H1904   1.078   .     S
C1903  O1905   1.220   .     D
O1906  C1907   1.406   .     S
C1907  H1909   1.111   .     S
C1907  H1910   1.112   .     S
C1907  H1908   1.109   .     S
O1911  C1912   1.407   .     S
C1912  H1913   1.105   .     S
C1912  H1914   1.110   .     S
C1912  H1699   1.105   1_655 S
C1916  O1918   1.221   .     D
C1916  H1701   1.082   1_655 S
O1919  C1920   1.419   .     S
C1920  H1923   1.108   .     S
C1920  H1922   1.113   .     S
C1920  H1921   1.113   .     S
O1924  C1925   1.425   .     S
C1925  H1927   1.111   .     S
C1925  H1928   1.099   .     S
C1925  H1926   1.115   .     S
O1929  C1930   1.411   .     S
C1930  H1933   1.111   .     S
C1930  H1932   1.107   .     S
C1930  H1931   1.108   .     S
C1934  O1936   1.221   .     D
C1934  H963    1.082   1_556 S
O1937  C1938   1.412   .     S
C1938  H1940   1.111   .     S
C1938  H1941   1.107   .     S
C1938  H1939   1.112   .     S
C1942  H1943   1.083   .     S
C1942  O1944   1.218   .     D
