data_str_m2_o1_o18_pcu_sym.69
_audit_creation_date              2020-01-03
_audit_creation_method            'Materials Studio'
_symmetry_space_group_name_H-M    'P1'
_symmetry_Int_Tables_number       1
_symmetry_cell_setting            triclinic
loop_
_symmetry_equiv_pos_as_xyz
  x,y,z
_cell_length_a                    28.6641
_cell_length_b                    32.4926
_cell_length_c                    30.5007
_cell_angle_alpha                 88.5920
_cell_angle_beta                  75.4364
_cell_angle_gamma                 89.7988
loop_
_atom_site_label
_atom_site_type_symbol
_atom_site_fract_x
_atom_site_fract_y
_atom_site_fract_z
_atom_site_U_iso_or_equiv
_atom_site_adp_type
_atom_site_occupancy
C1     C     0.33307   0.08741   0.25083   0.00000  Uiso   1.00
C2     C     0.04239   0.02227   0.23193   0.00000  Uiso   1.00
C3     C     0.00058   0.29058   0.24877   0.00000  Uiso   1.00
C4     C     0.33275   0.04276   0.25115   0.00000  Uiso   1.00
C5     C     0.18588   0.13699   0.27319   0.00000  Uiso   1.00
C6     C     0.14747   0.19630   0.22675   0.00000  Uiso   1.00
C7     C     0.13652   0.13684   0.27371   0.00000  Uiso   1.00
C8     C     0.19684   0.19642   0.22617   0.00000  Uiso   1.00
C9     C     0.30658   0.16861   0.33633   0.00000  Uiso   1.00
C10    C     0.02674   0.16492   0.16362   0.00000  Uiso   1.00
C11    C     0.29245   0.17394   0.38602   0.00000  Uiso   1.00
C12    C     0.00027   0.24592   0.24915   0.00000  Uiso   1.00
C13    C     0.04086   0.16031   0.11377   0.00000  Uiso   1.00
C14    C     0.30344   0.19946   0.45679   0.00000  Uiso   1.00
C15    C     0.02950   0.13670   0.04235   0.00000  Uiso   1.00
C16    C     0.32148   0.19425   0.41023   0.00000  Uiso   1.00
C17    C     0.01129   0.14158   0.08894   0.00000  Uiso   1.00
C18    C     0.24585   0.16117   0.40902   0.00000  Uiso   1.00
C19    C     0.08781   0.17250   0.09110   0.00000  Uiso   1.00
C20    C     0.22537   0.17065   0.45470   0.00000  Uiso   1.00
C21    C     0.10807   0.16404   0.04510   0.00000  Uiso   1.00
C22    C     0.25576   0.18871   0.47908   0.00000  Uiso   1.00
C23    C     0.19025   0.18740   0.04693   0.00000  Uiso   1.00
C24    C     0.07747   0.14682   0.02038   0.00000  Uiso   1.00
C25    C     0.17567   0.16310   0.47649   0.00000  Uiso   1.00
C26    C     0.15777   0.17177   0.02328   0.00000  Uiso   1.00
C27    C     0.14311   0.14806   0.45263   0.00000  Uiso   1.00
C28    C     0.23822   0.19676   0.02519   0.00000  Uiso   1.00
C29    C     0.09498   0.13912   0.47417   0.00000  Uiso   1.00
C30    C     0.28991   0.02059   0.26957   0.00000  Uiso   1.00
C31    C     0.04341   0.31275   0.23031   0.00000  Uiso   1.00
C32    C     0.29093   0.31107   0.26797   0.00000  Uiso   1.00
Cu33   Cu    0.04689   0.16667   0.25000   0.00000  Uiso   1.00
Cu34   Cu    0.28645   0.16666   0.25000   0.00000  Uiso   1.00
H35    H     0.10795   0.18837   0.11083   0.00000  Uiso   1.00
H36    H     0.13354   0.21969   0.20765   0.00000  Uiso   1.00
H37    H     0.25015   0.22043   0.07969   0.00000  Uiso   1.00
H38    H     0.08295   0.11601   0.41946   0.00000  Uiso   1.00
H39    H     0.25695   0.08132   0.17304   0.00000  Uiso   1.00
H40    H     0.11645   0.19532   0.35291   0.00000  Uiso   1.00
H41    H     0.22158   0.02091   0.30082   0.00000  Uiso   1.00
H42    H     0.11172   0.31243   0.19899   0.00000  Uiso   1.00
H43    H     0.07596   0.11601   0.30965   0.00000  Uiso   1.00
H44    H     0.25744   0.21731   0.19037   0.00000  Uiso   1.00
H45    H     0.22614   0.14398   0.38989   0.00000  Uiso   1.00
H46    H     0.32625   0.21383   0.47543   0.00000  Uiso   1.00
H47    H     0.00643   0.12326   0.02334   0.00000  Uiso   1.00
H48    H     0.17974   0.19280   0.08265   0.00000  Uiso   1.00
H49    H     0.15363   0.14328   0.41676   0.00000  Uiso   1.00
H50    H     0.25831   0.29365   0.28255   0.00000  Uiso   1.00
H51    H     0.07502   0.03969   0.21735   0.00000  Uiso   1.00
H52    H     0.19980   0.11360   0.29228   0.00000  Uiso   1.00
N53    N     0.11736   0.16668   0.24999   0.00000  Uiso   1.00
N54    N     0.21597   0.16666   0.25001   0.00000  Uiso   1.00
O55    O     0.03958   0.10655   0.25000   0.00000  Uiso   1.00
O56    O     0.06442   0.12256   0.45055   0.00000  Uiso   1.00
O57    O     0.25208   0.15441   0.13239   0.00000  Uiso   1.00
O58    O     0.26798   0.09698   0.08051   0.00000  Uiso   1.00
O59    O     0.29075   0.08812   0.15718   0.00000  Uiso   1.00
O60    O     0.03975   0.24456   0.34499   0.00000  Uiso   1.00
O61    O     0.06236   0.24256   0.41716   0.00000  Uiso   1.00
O62    O     0.08559   0.18039   0.36467   0.00000  Uiso   1.00
O63    O     0.24803   0.04114   0.28986   0.00000  Uiso   1.00
O64    O     0.08528   0.29220   0.20999   0.00000  Uiso   1.00
O65    O     0.10907   0.10590   0.29902   0.00000  Uiso   1.00
O66    O     0.29375   0.22678   0.25000   0.00000  Uiso   1.00
O67    O     0.22429   0.22734   0.20082   0.00000  Uiso   1.00
O68    O     0.29372   0.10654   0.25001   0.00000  Uiso   1.00
O69    O     0.03961   0.22679   0.25000   0.00000  Uiso   1.00
O70    O     0.01852   0.16668   0.31491   0.00000  Uiso   1.00
O71    O     0.31481   0.16666   0.18509   0.00000  Uiso   1.00
O72    O     0.27267   0.16667   0.31492   0.00000  Uiso   1.00
O73    O     0.06067   0.16667   0.18508   0.00000  Uiso   1.00
O74    O     0.26861   0.21409   0.04852   0.00000  Uiso   1.00
S75    S     0.28677   0.12045   0.11440   0.00000  Uiso   1.00
S76    S     0.04479   0.21717   0.38394   0.00000  Uiso   1.00
C77    C     0.66640   0.08741   0.25083   0.00000  Uiso   1.00
C78    C     0.37572   0.02227   0.23193   0.00000  Uiso   1.00
C79    C     0.33391   0.29058   0.24877   0.00000  Uiso   1.00
C80    C     0.66608   0.04276   0.25115   0.00000  Uiso   1.00
C81    C     0.51921   0.13699   0.27319   0.00000  Uiso   1.00
C82    C     0.48080   0.19630   0.22675   0.00000  Uiso   1.00
C83    C     0.46985   0.13684   0.27371   0.00000  Uiso   1.00
C84    C     0.53018   0.19642   0.22617   0.00000  Uiso   1.00
C85    C     0.63992   0.16861   0.33633   0.00000  Uiso   1.00
C86    C     0.36008   0.16492   0.16362   0.00000  Uiso   1.00
C87    C     0.62579   0.17394   0.38602   0.00000  Uiso   1.00
C88    C     0.33360   0.24592   0.24915   0.00000  Uiso   1.00
C89    C     0.37420   0.16031   0.11377   0.00000  Uiso   1.00
C90    C     0.63677   0.19946   0.45679   0.00000  Uiso   1.00
C91    C     0.36283   0.13670   0.04235   0.00000  Uiso   1.00
C92    C     0.65481   0.19425   0.41023   0.00000  Uiso   1.00
C93    C     0.34462   0.14158   0.08894   0.00000  Uiso   1.00
C94    C     0.57918   0.16117   0.40902   0.00000  Uiso   1.00
C95    C     0.42114   0.17250   0.09110   0.00000  Uiso   1.00
C96    C     0.55871   0.17065   0.45470   0.00000  Uiso   1.00
C97    C     0.44141   0.16404   0.04510   0.00000  Uiso   1.00
C98    C     0.58909   0.18871   0.47908   0.00000  Uiso   1.00
C99    C     0.52359   0.18740   0.04693   0.00000  Uiso   1.00
C100   C     0.41080   0.14682   0.02038   0.00000  Uiso   1.00
C101   C     0.50900   0.16310   0.47649   0.00000  Uiso   1.00
C102   C     0.49110   0.17177   0.02328   0.00000  Uiso   1.00
C103   C     0.47644   0.14806   0.45263   0.00000  Uiso   1.00
C104   C     0.57156   0.19676   0.02519   0.00000  Uiso   1.00
C105   C     0.42832   0.13912   0.47417   0.00000  Uiso   1.00
C106   C     0.62324   0.02059   0.26957   0.00000  Uiso   1.00
C107   C     0.37675   0.31275   0.23031   0.00000  Uiso   1.00
C108   C     0.62427   0.31107   0.26797   0.00000  Uiso   1.00
Cu109  Cu    0.38022   0.16667   0.25000   0.00000  Uiso   1.00
Cu110  Cu    0.61978   0.16666   0.25000   0.00000  Uiso   1.00
H111   H     0.44129   0.18837   0.11083   0.00000  Uiso   1.00
H112   H     0.46688   0.21969   0.20765   0.00000  Uiso   1.00
H113   H     0.58349   0.22043   0.07969   0.00000  Uiso   1.00
H114   H     0.41628   0.11601   0.41946   0.00000  Uiso   1.00
H115   H     0.59029   0.08132   0.17304   0.00000  Uiso   1.00
H116   H     0.44978   0.19532   0.35291   0.00000  Uiso   1.00
H117   H     0.55491   0.02091   0.30082   0.00000  Uiso   1.00
H118   H     0.44505   0.31243   0.19899   0.00000  Uiso   1.00
H119   H     0.40930   0.11601   0.30965   0.00000  Uiso   1.00
H120   H     0.59078   0.21731   0.19037   0.00000  Uiso   1.00
H121   H     0.55947   0.14398   0.38989   0.00000  Uiso   1.00
H122   H     0.65958   0.21383   0.47543   0.00000  Uiso   1.00
H123   H     0.33977   0.12326   0.02334   0.00000  Uiso   1.00
H124   H     0.51307   0.19280   0.08265   0.00000  Uiso   1.00
H125   H     0.48697   0.14328   0.41676   0.00000  Uiso   1.00
H126   H     0.59164   0.29365   0.28255   0.00000  Uiso   1.00
H127   H     0.40835   0.03969   0.21735   0.00000  Uiso   1.00
H128   H     0.53314   0.11360   0.29228   0.00000  Uiso   1.00
N129   N     0.45069   0.16668   0.24999   0.00000  Uiso   1.00
N130   N     0.54931   0.16666   0.25001   0.00000  Uiso   1.00
O131   O     0.37291   0.10655   0.25000   0.00000  Uiso   1.00
O132   O     0.39775   0.12256   0.45055   0.00000  Uiso   1.00
O133   O     0.58541   0.15441   0.13239   0.00000  Uiso   1.00
O134   O     0.60131   0.09698   0.08051   0.00000  Uiso   1.00
O135   O     0.62408   0.08812   0.15718   0.00000  Uiso   1.00
O136   O     0.37308   0.24456   0.34499   0.00000  Uiso   1.00
O137   O     0.39570   0.24256   0.41716   0.00000  Uiso   1.00
O138   O     0.41893   0.18039   0.36467   0.00000  Uiso   1.00
O139   O     0.58136   0.04114   0.28986   0.00000  Uiso   1.00
O140   O     0.41861   0.29220   0.20999   0.00000  Uiso   1.00
O141   O     0.44240   0.10590   0.29902   0.00000  Uiso   1.00
O142   O     0.62709   0.22678   0.25000   0.00000  Uiso   1.00
O143   O     0.55762   0.22734   0.20082   0.00000  Uiso   1.00
O144   O     0.62706   0.10654   0.25001   0.00000  Uiso   1.00
O145   O     0.37294   0.22679   0.25000   0.00000  Uiso   1.00
O146   O     0.35186   0.16668   0.31491   0.00000  Uiso   1.00
O147   O     0.64814   0.16666   0.18509   0.00000  Uiso   1.00
O148   O     0.60600   0.16667   0.31492   0.00000  Uiso   1.00
O149   O     0.39400   0.16667   0.18508   0.00000  Uiso   1.00
O150   O     0.60194   0.21409   0.04852   0.00000  Uiso   1.00
S151   S     0.62010   0.12045   0.11440   0.00000  Uiso   1.00
S152   S     0.37813   0.21717   0.38394   0.00000  Uiso   1.00
C153   C     0.99973   0.08741   0.25083   0.00000  Uiso   1.00
C154   C     0.70906   0.02227   0.23193   0.00000  Uiso   1.00
C155   C     0.66725   0.29058   0.24877   0.00000  Uiso   1.00
C156   C     0.99942   0.04276   0.25115   0.00000  Uiso   1.00
C157   C     0.85255   0.13699   0.27319   0.00000  Uiso   1.00
C158   C     0.81414   0.19630   0.22675   0.00000  Uiso   1.00
C159   C     0.80318   0.13684   0.27371   0.00000  Uiso   1.00
C160   C     0.86351   0.19642   0.22617   0.00000  Uiso   1.00
C161   C     0.97325   0.16861   0.33633   0.00000  Uiso   1.00
C162   C     0.69341   0.16492   0.16362   0.00000  Uiso   1.00
C163   C     0.95912   0.17394   0.38602   0.00000  Uiso   1.00
C164   C     0.66694   0.24592   0.24915   0.00000  Uiso   1.00
C165   C     0.70753   0.16031   0.11377   0.00000  Uiso   1.00
C166   C     0.97010   0.19946   0.45679   0.00000  Uiso   1.00
C167   C     0.69617   0.13670   0.04235   0.00000  Uiso   1.00
C168   C     0.98815   0.19425   0.41023   0.00000  Uiso   1.00
C169   C     0.67796   0.14158   0.08894   0.00000  Uiso   1.00
C170   C     0.91252   0.16117   0.40902   0.00000  Uiso   1.00
C171   C     0.75448   0.17250   0.09110   0.00000  Uiso   1.00
C172   C     0.89204   0.17065   0.45470   0.00000  Uiso   1.00
C173   C     0.77474   0.16404   0.04510   0.00000  Uiso   1.00
C174   C     0.92243   0.18871   0.47908   0.00000  Uiso   1.00
C175   C     0.85692   0.18740   0.04693   0.00000  Uiso   1.00
C176   C     0.74413   0.14682   0.02038   0.00000  Uiso   1.00
C177   C     0.84234   0.16310   0.47649   0.00000  Uiso   1.00
C178   C     0.82443   0.17177   0.02328   0.00000  Uiso   1.00
C179   C     0.80977   0.14806   0.45263   0.00000  Uiso   1.00
C180   C     0.90489   0.19676   0.02519   0.00000  Uiso   1.00
C181   C     0.76165   0.13912   0.47417   0.00000  Uiso   1.00
C182   C     0.95657   0.02059   0.26957   0.00000  Uiso   1.00
C183   C     0.71008   0.31275   0.23031   0.00000  Uiso   1.00
C184   C     0.95760   0.31107   0.26797   0.00000  Uiso   1.00
Cu185  Cu    0.71355   0.16667   0.25000   0.00000  Uiso   1.00
Cu186  Cu    0.95311   0.16666   0.25000   0.00000  Uiso   1.00
H187   H     0.77462   0.18837   0.11083   0.00000  Uiso   1.00
H188   H     0.80021   0.21969   0.20765   0.00000  Uiso   1.00
H189   H     0.91682   0.22043   0.07969   0.00000  Uiso   1.00
H190   H     0.74962   0.11601   0.41946   0.00000  Uiso   1.00
H191   H     0.92362   0.08132   0.17304   0.00000  Uiso   1.00
H192   H     0.78312   0.19532   0.35291   0.00000  Uiso   1.00
H193   H     0.88825   0.02091   0.30082   0.00000  Uiso   1.00
H194   H     0.77838   0.31243   0.19899   0.00000  Uiso   1.00
H195   H     0.74263   0.11601   0.30965   0.00000  Uiso   1.00
H196   H     0.92411   0.21731   0.19037   0.00000  Uiso   1.00
H197   H     0.89280   0.14398   0.38989   0.00000  Uiso   1.00
H198   H     0.99292   0.21383   0.47543   0.00000  Uiso   1.00
H199   H     0.67310   0.12326   0.02334   0.00000  Uiso   1.00
H200   H     0.84641   0.19280   0.08265   0.00000  Uiso   1.00
H201   H     0.82030   0.14328   0.41676   0.00000  Uiso   1.00
H202   H     0.92497   0.29365   0.28255   0.00000  Uiso   1.00
H203   H     0.74168   0.03969   0.21735   0.00000  Uiso   1.00
H204   H     0.86647   0.11360   0.29228   0.00000  Uiso   1.00
N205   N     0.78403   0.16668   0.24999   0.00000  Uiso   1.00
N206   N     0.88264   0.16666   0.25001   0.00000  Uiso   1.00
O207   O     0.70625   0.10655   0.25000   0.00000  Uiso   1.00
O208   O     0.73109   0.12256   0.45055   0.00000  Uiso   1.00
O209   O     0.91874   0.15441   0.13239   0.00000  Uiso   1.00
O210   O     0.93465   0.09698   0.08051   0.00000  Uiso   1.00
O211   O     0.95742   0.08812   0.15718   0.00000  Uiso   1.00
O212   O     0.70642   0.24456   0.34499   0.00000  Uiso   1.00
O213   O     0.72903   0.24256   0.41716   0.00000  Uiso   1.00
O214   O     0.75226   0.18039   0.36467   0.00000  Uiso   1.00
O215   O     0.91469   0.04114   0.28986   0.00000  Uiso   1.00
O216   O     0.75195   0.29220   0.20999   0.00000  Uiso   1.00
O217   O     0.77574   0.10590   0.29902   0.00000  Uiso   1.00
O218   O     0.96042   0.22678   0.25000   0.00000  Uiso   1.00
O219   O     0.89095   0.22734   0.20082   0.00000  Uiso   1.00
O220   O     0.96039   0.10654   0.25001   0.00000  Uiso   1.00
O221   O     0.70628   0.22679   0.25000   0.00000  Uiso   1.00
O222   O     0.68519   0.16668   0.31491   0.00000  Uiso   1.00
O223   O     0.98148   0.16666   0.18509   0.00000  Uiso   1.00
O224   O     0.93933   0.16667   0.31492   0.00000  Uiso   1.00
O225   O     0.72733   0.16667   0.18508   0.00000  Uiso   1.00
O226   O     0.93527   0.21409   0.04852   0.00000  Uiso   1.00
S227   S     0.95343   0.12045   0.11440   0.00000  Uiso   1.00
S228   S     0.71146   0.21717   0.38394   0.00000  Uiso   1.00
C229   C     0.33307   0.42075   0.25083   0.00000  Uiso   1.00
C230   C     0.04239   0.35560   0.23193   0.00000  Uiso   1.00
C231   C     0.00058   0.62391   0.24877   0.00000  Uiso   1.00
C232   C     0.33275   0.37609   0.25115   0.00000  Uiso   1.00
C233   C     0.18588   0.47032   0.27319   0.00000  Uiso   1.00
C234   C     0.14747   0.52963   0.22675   0.00000  Uiso   1.00
C235   C     0.13652   0.47017   0.27371   0.00000  Uiso   1.00
C236   C     0.19684   0.52975   0.22617   0.00000  Uiso   1.00
C237   C     0.30658   0.50195   0.33633   0.00000  Uiso   1.00
C238   C     0.02674   0.49825   0.16362   0.00000  Uiso   1.00
C239   C     0.29245   0.50727   0.38602   0.00000  Uiso   1.00
C240   C     0.00027   0.57925   0.24915   0.00000  Uiso   1.00
C241   C     0.04086   0.49364   0.11377   0.00000  Uiso   1.00
C242   C     0.30344   0.53279   0.45679   0.00000  Uiso   1.00
C243   C     0.02950   0.47004   0.04235   0.00000  Uiso   1.00
C244   C     0.32148   0.52758   0.41023   0.00000  Uiso   1.00
C245   C     0.01129   0.47491   0.08894   0.00000  Uiso   1.00
C246   C     0.24585   0.49451   0.40902   0.00000  Uiso   1.00
C247   C     0.08781   0.50584   0.09110   0.00000  Uiso   1.00
C248   C     0.22537   0.50399   0.45470   0.00000  Uiso   1.00
C249   C     0.10807   0.49737   0.04510   0.00000  Uiso   1.00
C250   C     0.25576   0.52204   0.47908   0.00000  Uiso   1.00
C251   C     0.19025   0.52073   0.04693   0.00000  Uiso   1.00
C252   C     0.07747   0.48015   0.02038   0.00000  Uiso   1.00
C253   C     0.17567   0.49643   0.47649   0.00000  Uiso   1.00
C254   C     0.15777   0.50511   0.02328   0.00000  Uiso   1.00
C255   C     0.14311   0.48140   0.45263   0.00000  Uiso   1.00
C256   C     0.23822   0.53010   0.02519   0.00000  Uiso   1.00
C257   C     0.09498   0.47245   0.47417   0.00000  Uiso   1.00
C258   C     0.28991   0.35392   0.26957   0.00000  Uiso   1.00
C259   C     0.04341   0.64608   0.23031   0.00000  Uiso   1.00
C260   C     0.29093   0.64441   0.26797   0.00000  Uiso   1.00
Cu261  Cu    0.04689   0.50001   0.25000   0.00000  Uiso   1.00
Cu262  Cu    0.28645   0.49999   0.25000   0.00000  Uiso   1.00
H263   H     0.10795   0.52171   0.11083   0.00000  Uiso   1.00
H264   H     0.13354   0.55302   0.20765   0.00000  Uiso   1.00
H265   H     0.25015   0.55376   0.07969   0.00000  Uiso   1.00
H266   H     0.08295   0.44934   0.41946   0.00000  Uiso   1.00
H267   H     0.25695   0.41466   0.17304   0.00000  Uiso   1.00
H268   H     0.11645   0.52866   0.35291   0.00000  Uiso   1.00
H269   H     0.22158   0.35424   0.30082   0.00000  Uiso   1.00
H270   H     0.11172   0.64576   0.19899   0.00000  Uiso   1.00
H271   H     0.07596   0.44935   0.30965   0.00000  Uiso   1.00
H272   H     0.25744   0.55065   0.19037   0.00000  Uiso   1.00
H273   H     0.22614   0.47731   0.38989   0.00000  Uiso   1.00
H274   H     0.32625   0.54717   0.47543   0.00000  Uiso   1.00
H275   H     0.00643   0.45660   0.02334   0.00000  Uiso   1.00
H276   H     0.17974   0.52614   0.08265   0.00000  Uiso   1.00
H277   H     0.15363   0.47661   0.41676   0.00000  Uiso   1.00
H278   H     0.25831   0.62698   0.28255   0.00000  Uiso   1.00
H279   H     0.07502   0.37302   0.21735   0.00000  Uiso   1.00
H280   H     0.19980   0.44693   0.29228   0.00000  Uiso   1.00
N281   N     0.11736   0.50001   0.24999   0.00000  Uiso   1.00
N282   N     0.21597   0.49999   0.25001   0.00000  Uiso   1.00
O283   O     0.03958   0.43989   0.25000   0.00000  Uiso   1.00
O284   O     0.06442   0.45589   0.45055   0.00000  Uiso   1.00
O285   O     0.25208   0.48774   0.13239   0.00000  Uiso   1.00
O286   O     0.26798   0.43032   0.08051   0.00000  Uiso   1.00
O287   O     0.29075   0.42145   0.15718   0.00000  Uiso   1.00
O288   O     0.03975   0.57790   0.34499   0.00000  Uiso   1.00
O289   O     0.06236   0.57589   0.41716   0.00000  Uiso   1.00
O290   O     0.08559   0.51372   0.36467   0.00000  Uiso   1.00
O291   O     0.24803   0.37447   0.28986   0.00000  Uiso   1.00
O292   O     0.08528   0.62553   0.20999   0.00000  Uiso   1.00
O293   O     0.10907   0.43924   0.29902   0.00000  Uiso   1.00
O294   O     0.29375   0.56011   0.25000   0.00000  Uiso   1.00
O295   O     0.22429   0.56067   0.20082   0.00000  Uiso   1.00
O296   O     0.29372   0.43988   0.25001   0.00000  Uiso   1.00
O297   O     0.03961   0.56012   0.25000   0.00000  Uiso   1.00
O298   O     0.01852   0.50001   0.31491   0.00000  Uiso   1.00
O299   O     0.31481   0.49999   0.18509   0.00000  Uiso   1.00
O300   O     0.27267   0.50000   0.31492   0.00000  Uiso   1.00
O301   O     0.06067   0.50000   0.18508   0.00000  Uiso   1.00
O302   O     0.26861   0.54742   0.04852   0.00000  Uiso   1.00
S303   S     0.28677   0.45378   0.11440   0.00000  Uiso   1.00
S304   S     0.04479   0.55050   0.38394   0.00000  Uiso   1.00
C305   C     0.66640   0.42075   0.25083   0.00000  Uiso   1.00
C306   C     0.37572   0.35560   0.23193   0.00000  Uiso   1.00
C307   C     0.33391   0.62391   0.24877   0.00000  Uiso   1.00
C308   C     0.66608   0.37609   0.25115   0.00000  Uiso   1.00
C309   C     0.51921   0.47032   0.27319   0.00000  Uiso   1.00
C310   C     0.48080   0.52963   0.22675   0.00000  Uiso   1.00
C311   C     0.46985   0.47017   0.27371   0.00000  Uiso   1.00
C312   C     0.53018   0.52975   0.22617   0.00000  Uiso   1.00
C313   C     0.63992   0.50195   0.33633   0.00000  Uiso   1.00
C314   C     0.36008   0.49825   0.16362   0.00000  Uiso   1.00
C315   C     0.62579   0.50727   0.38602   0.00000  Uiso   1.00
C316   C     0.33360   0.57925   0.24915   0.00000  Uiso   1.00
C317   C     0.37420   0.49364   0.11377   0.00000  Uiso   1.00
C318   C     0.63677   0.53279   0.45679   0.00000  Uiso   1.00
C319   C     0.36283   0.47004   0.04235   0.00000  Uiso   1.00
C320   C     0.65481   0.52758   0.41023   0.00000  Uiso   1.00
C321   C     0.34462   0.47491   0.08894   0.00000  Uiso   1.00
C322   C     0.57918   0.49451   0.40902   0.00000  Uiso   1.00
C323   C     0.42114   0.50584   0.09110   0.00000  Uiso   1.00
C324   C     0.55871   0.50399   0.45470   0.00000  Uiso   1.00
C325   C     0.44141   0.49737   0.04510   0.00000  Uiso   1.00
C326   C     0.58909   0.52204   0.47908   0.00000  Uiso   1.00
C327   C     0.52359   0.52073   0.04693   0.00000  Uiso   1.00
C328   C     0.41080   0.48015   0.02038   0.00000  Uiso   1.00
C329   C     0.50900   0.49643   0.47649   0.00000  Uiso   1.00
C330   C     0.49110   0.50511   0.02328   0.00000  Uiso   1.00
C331   C     0.47644   0.48140   0.45263   0.00000  Uiso   1.00
C332   C     0.57156   0.53010   0.02519   0.00000  Uiso   1.00
C333   C     0.42832   0.47245   0.47417   0.00000  Uiso   1.00
C334   C     0.62324   0.35392   0.26957   0.00000  Uiso   1.00
C335   C     0.37675   0.64608   0.23031   0.00000  Uiso   1.00
C336   C     0.62427   0.64441   0.26797   0.00000  Uiso   1.00
Cu337  Cu    0.38022   0.50001   0.25000   0.00000  Uiso   1.00
Cu338  Cu    0.61978   0.49999   0.25000   0.00000  Uiso   1.00
H339   H     0.44129   0.52171   0.11083   0.00000  Uiso   1.00
H340   H     0.46688   0.55302   0.20765   0.00000  Uiso   1.00
H341   H     0.58349   0.55376   0.07969   0.00000  Uiso   1.00
H342   H     0.41628   0.44934   0.41946   0.00000  Uiso   1.00
H343   H     0.59029   0.41466   0.17304   0.00000  Uiso   1.00
H344   H     0.44978   0.52866   0.35291   0.00000  Uiso   1.00
H345   H     0.55491   0.35424   0.30082   0.00000  Uiso   1.00
H346   H     0.44505   0.64576   0.19899   0.00000  Uiso   1.00
H347   H     0.40930   0.44935   0.30965   0.00000  Uiso   1.00
H348   H     0.59078   0.55065   0.19037   0.00000  Uiso   1.00
H349   H     0.55947   0.47731   0.38989   0.00000  Uiso   1.00
H350   H     0.65958   0.54717   0.47543   0.00000  Uiso   1.00
H351   H     0.33977   0.45660   0.02334   0.00000  Uiso   1.00
H352   H     0.51307   0.52614   0.08265   0.00000  Uiso   1.00
H353   H     0.48697   0.47661   0.41676   0.00000  Uiso   1.00
H354   H     0.59164   0.62698   0.28255   0.00000  Uiso   1.00
H355   H     0.40835   0.37302   0.21735   0.00000  Uiso   1.00
H356   H     0.53314   0.44693   0.29228   0.00000  Uiso   1.00
N357   N     0.45069   0.50001   0.24999   0.00000  Uiso   1.00
N358   N     0.54931   0.49999   0.25001   0.00000  Uiso   1.00
O359   O     0.37291   0.43989   0.25000   0.00000  Uiso   1.00
O360   O     0.39775   0.45589   0.45055   0.00000  Uiso   1.00
O361   O     0.58541   0.48774   0.13239   0.00000  Uiso   1.00
O362   O     0.60131   0.43032   0.08051   0.00000  Uiso   1.00
O363   O     0.62408   0.42145   0.15718   0.00000  Uiso   1.00
O364   O     0.37308   0.57790   0.34499   0.00000  Uiso   1.00
O365   O     0.39570   0.57589   0.41716   0.00000  Uiso   1.00
O366   O     0.41893   0.51372   0.36467   0.00000  Uiso   1.00
O367   O     0.58136   0.37447   0.28986   0.00000  Uiso   1.00
O368   O     0.41861   0.62553   0.20999   0.00000  Uiso   1.00
O369   O     0.44240   0.43924   0.29902   0.00000  Uiso   1.00
O370   O     0.62709   0.56011   0.25000   0.00000  Uiso   1.00
O371   O     0.55762   0.56067   0.20082   0.00000  Uiso   1.00
O372   O     0.62706   0.43988   0.25001   0.00000  Uiso   1.00
O373   O     0.37294   0.56012   0.25000   0.00000  Uiso   1.00
O374   O     0.35186   0.50001   0.31491   0.00000  Uiso   1.00
O375   O     0.64814   0.49999   0.18509   0.00000  Uiso   1.00
O376   O     0.60600   0.50000   0.31492   0.00000  Uiso   1.00
O377   O     0.39400   0.50000   0.18508   0.00000  Uiso   1.00
O378   O     0.60194   0.54742   0.04852   0.00000  Uiso   1.00
S379   S     0.62010   0.45378   0.11440   0.00000  Uiso   1.00
S380   S     0.37813   0.55050   0.38394   0.00000  Uiso   1.00
C381   C     0.99973   0.42075   0.25083   0.00000  Uiso   1.00
C382   C     0.70906   0.35560   0.23193   0.00000  Uiso   1.00
C383   C     0.66725   0.62391   0.24877   0.00000  Uiso   1.00
C384   C     0.99942   0.37609   0.25115   0.00000  Uiso   1.00
C385   C     0.85255   0.47032   0.27319   0.00000  Uiso   1.00
C386   C     0.81414   0.52963   0.22675   0.00000  Uiso   1.00
C387   C     0.80318   0.47017   0.27371   0.00000  Uiso   1.00
C388   C     0.86351   0.52975   0.22617   0.00000  Uiso   1.00
C389   C     0.97325   0.50195   0.33633   0.00000  Uiso   1.00
C390   C     0.69341   0.49825   0.16362   0.00000  Uiso   1.00
C391   C     0.95912   0.50727   0.38602   0.00000  Uiso   1.00
C392   C     0.66694   0.57925   0.24915   0.00000  Uiso   1.00
C393   C     0.70753   0.49364   0.11377   0.00000  Uiso   1.00
C394   C     0.97010   0.53279   0.45679   0.00000  Uiso   1.00
C395   C     0.69617   0.47004   0.04235   0.00000  Uiso   1.00
C396   C     0.98815   0.52758   0.41023   0.00000  Uiso   1.00
C397   C     0.67796   0.47491   0.08894   0.00000  Uiso   1.00
C398   C     0.91252   0.49451   0.40902   0.00000  Uiso   1.00
C399   C     0.75448   0.50584   0.09110   0.00000  Uiso   1.00
C400   C     0.89204   0.50399   0.45470   0.00000  Uiso   1.00
C401   C     0.77474   0.49737   0.04510   0.00000  Uiso   1.00
C402   C     0.92243   0.52204   0.47908   0.00000  Uiso   1.00
C403   C     0.85692   0.52073   0.04693   0.00000  Uiso   1.00
C404   C     0.74413   0.48015   0.02038   0.00000  Uiso   1.00
C405   C     0.84234   0.49643   0.47649   0.00000  Uiso   1.00
C406   C     0.82443   0.50511   0.02328   0.00000  Uiso   1.00
C407   C     0.80977   0.48140   0.45263   0.00000  Uiso   1.00
C408   C     0.90489   0.53010   0.02519   0.00000  Uiso   1.00
C409   C     0.76165   0.47245   0.47417   0.00000  Uiso   1.00
C410   C     0.95657   0.35392   0.26957   0.00000  Uiso   1.00
C411   C     0.71008   0.64608   0.23031   0.00000  Uiso   1.00
C412   C     0.95760   0.64441   0.26797   0.00000  Uiso   1.00
Cu413  Cu    0.71355   0.50001   0.25000   0.00000  Uiso   1.00
Cu414  Cu    0.95311   0.49999   0.25000   0.00000  Uiso   1.00
H415   H     0.77462   0.52171   0.11083   0.00000  Uiso   1.00
H416   H     0.80021   0.55302   0.20765   0.00000  Uiso   1.00
H417   H     0.91682   0.55376   0.07969   0.00000  Uiso   1.00
H418   H     0.74962   0.44934   0.41946   0.00000  Uiso   1.00
H419   H     0.92362   0.41466   0.17304   0.00000  Uiso   1.00
H420   H     0.78312   0.52866   0.35291   0.00000  Uiso   1.00
H421   H     0.88825   0.35424   0.30082   0.00000  Uiso   1.00
H422   H     0.77838   0.64576   0.19899   0.00000  Uiso   1.00
H423   H     0.74263   0.44935   0.30965   0.00000  Uiso   1.00
H424   H     0.92411   0.55065   0.19037   0.00000  Uiso   1.00
H425   H     0.89280   0.47731   0.38989   0.00000  Uiso   1.00
H426   H     0.99292   0.54717   0.47543   0.00000  Uiso   1.00
H427   H     0.67310   0.45660   0.02334   0.00000  Uiso   1.00
H428   H     0.84641   0.52614   0.08265   0.00000  Uiso   1.00
H429   H     0.82030   0.47661   0.41676   0.00000  Uiso   1.00
H430   H     0.92497   0.62698   0.28255   0.00000  Uiso   1.00
H431   H     0.74168   0.37302   0.21735   0.00000  Uiso   1.00
H432   H     0.86647   0.44693   0.29228   0.00000  Uiso   1.00
N433   N     0.78403   0.50001   0.24999   0.00000  Uiso   1.00
N434   N     0.88264   0.49999   0.25001   0.00000  Uiso   1.00
O435   O     0.70625   0.43989   0.25000   0.00000  Uiso   1.00
O436   O     0.73109   0.45589   0.45055   0.00000  Uiso   1.00
O437   O     0.91874   0.48774   0.13239   0.00000  Uiso   1.00
O438   O     0.93465   0.43032   0.08051   0.00000  Uiso   1.00
O439   O     0.95742   0.42145   0.15718   0.00000  Uiso   1.00
O440   O     0.70642   0.57790   0.34499   0.00000  Uiso   1.00
O441   O     0.72903   0.57589   0.41716   0.00000  Uiso   1.00
O442   O     0.75226   0.51372   0.36467   0.00000  Uiso   1.00
O443   O     0.91469   0.37447   0.28986   0.00000  Uiso   1.00
O444   O     0.75195   0.62553   0.20999   0.00000  Uiso   1.00
O445   O     0.77574   0.43924   0.29902   0.00000  Uiso   1.00
O446   O     0.96042   0.56011   0.25000   0.00000  Uiso   1.00
O447   O     0.89095   0.56067   0.20082   0.00000  Uiso   1.00
O448   O     0.96039   0.43988   0.25001   0.00000  Uiso   1.00
O449   O     0.70628   0.56012   0.25000   0.00000  Uiso   1.00
O450   O     0.68519   0.50001   0.31491   0.00000  Uiso   1.00
O451   O     0.98148   0.49999   0.18509   0.00000  Uiso   1.00
O452   O     0.93933   0.50000   0.31492   0.00000  Uiso   1.00
O453   O     0.72733   0.50000   0.18508   0.00000  Uiso   1.00
O454   O     0.93527   0.54742   0.04852   0.00000  Uiso   1.00
S455   S     0.95343   0.45378   0.11440   0.00000  Uiso   1.00
S456   S     0.71146   0.55050   0.38394   0.00000  Uiso   1.00
C457   C     0.33307   0.75408   0.25083   0.00000  Uiso   1.00
C458   C     0.04239   0.68893   0.23193   0.00000  Uiso   1.00
C459   C     0.00058   0.95725   0.24877   0.00000  Uiso   1.00
C460   C     0.33275   0.70942   0.25115   0.00000  Uiso   1.00
C461   C     0.18588   0.80366   0.27319   0.00000  Uiso   1.00
C462   C     0.14747   0.86297   0.22675   0.00000  Uiso   1.00
C463   C     0.13652   0.80350   0.27371   0.00000  Uiso   1.00
C464   C     0.19684   0.86309   0.22617   0.00000  Uiso   1.00
C465   C     0.30658   0.83528   0.33633   0.00000  Uiso   1.00
C466   C     0.02674   0.83158   0.16362   0.00000  Uiso   1.00
C467   C     0.29245   0.84060   0.38602   0.00000  Uiso   1.00
C468   C     0.00027   0.91259   0.24915   0.00000  Uiso   1.00
C469   C     0.04086   0.82697   0.11377   0.00000  Uiso   1.00
C470   C     0.30344   0.86613   0.45679   0.00000  Uiso   1.00
C471   C     0.02950   0.80337   0.04235   0.00000  Uiso   1.00
C472   C     0.32148   0.86092   0.41023   0.00000  Uiso   1.00
C473   C     0.01129   0.80825   0.08894   0.00000  Uiso   1.00
C474   C     0.24585   0.82784   0.40902   0.00000  Uiso   1.00
C475   C     0.08781   0.83917   0.09110   0.00000  Uiso   1.00
C476   C     0.22537   0.83732   0.45470   0.00000  Uiso   1.00
C477   C     0.10807   0.83070   0.04510   0.00000  Uiso   1.00
C478   C     0.25576   0.85538   0.47908   0.00000  Uiso   1.00
C479   C     0.19025   0.85406   0.04693   0.00000  Uiso   1.00
C480   C     0.07747   0.81349   0.02038   0.00000  Uiso   1.00
C481   C     0.17567   0.82977   0.47649   0.00000  Uiso   1.00
C482   C     0.15777   0.83844   0.02328   0.00000  Uiso   1.00
C483   C     0.14311   0.81473   0.45263   0.00000  Uiso   1.00
C484   C     0.23822   0.86343   0.02519   0.00000  Uiso   1.00
C485   C     0.09498   0.80579   0.47417   0.00000  Uiso   1.00
C486   C     0.28991   0.68725   0.26957   0.00000  Uiso   1.00
C487   C     0.04341   0.97942   0.23031   0.00000  Uiso   1.00
C488   C     0.29093   0.97774   0.26797   0.00000  Uiso   1.00
Cu489  Cu    0.04689   0.83334   0.25000   0.00000  Uiso   1.00
Cu490  Cu    0.28645   0.83333   0.25000   0.00000  Uiso   1.00
H491   H     0.10795   0.85504   0.11083   0.00000  Uiso   1.00
H492   H     0.13354   0.88636   0.20765   0.00000  Uiso   1.00
H493   H     0.25015   0.88709   0.07969   0.00000  Uiso   1.00
H494   H     0.08295   0.78267   0.41946   0.00000  Uiso   1.00
H495   H     0.25695   0.74799   0.17304   0.00000  Uiso   1.00
H496   H     0.11645   0.86199   0.35291   0.00000  Uiso   1.00
H497   H     0.22158   0.68758   0.30082   0.00000  Uiso   1.00
H498   H     0.11172   0.97909   0.19899   0.00000  Uiso   1.00
H499   H     0.07596   0.78268   0.30965   0.00000  Uiso   1.00
H500   H     0.25744   0.88398   0.19037   0.00000  Uiso   1.00
H501   H     0.22614   0.81065   0.38989   0.00000  Uiso   1.00
H502   H     0.32625   0.88050   0.47543   0.00000  Uiso   1.00
H503   H     0.00643   0.78993   0.02334   0.00000  Uiso   1.00
H504   H     0.17974   0.85947   0.08265   0.00000  Uiso   1.00
H505   H     0.15363   0.80994   0.41676   0.00000  Uiso   1.00
H506   H     0.25831   0.96032   0.28255   0.00000  Uiso   1.00
H507   H     0.07502   0.70636   0.21735   0.00000  Uiso   1.00
H508   H     0.19980   0.78027   0.29228   0.00000  Uiso   1.00
N509   N     0.11736   0.83334   0.24999   0.00000  Uiso   1.00
N510   N     0.21597   0.83332   0.25001   0.00000  Uiso   1.00
O511   O     0.03958   0.77322   0.25000   0.00000  Uiso   1.00
O512   O     0.06442   0.78922   0.45055   0.00000  Uiso   1.00
O513   O     0.25208   0.82107   0.13239   0.00000  Uiso   1.00
O514   O     0.26798   0.76365   0.08051   0.00000  Uiso   1.00
O515   O     0.29075   0.75478   0.15718   0.00000  Uiso   1.00
O516   O     0.03975   0.91123   0.34499   0.00000  Uiso   1.00
O517   O     0.06236   0.90923   0.41716   0.00000  Uiso   1.00
O518   O     0.08559   0.84706   0.36467   0.00000  Uiso   1.00
O519   O     0.24803   0.70780   0.28986   0.00000  Uiso   1.00
O520   O     0.08528   0.95886   0.20999   0.00000  Uiso   1.00
O521   O     0.10907   0.77257   0.29902   0.00000  Uiso   1.00
O522   O     0.29375   0.89345   0.25000   0.00000  Uiso   1.00
O523   O     0.22429   0.89401   0.20082   0.00000  Uiso   1.00
O524   O     0.29372   0.77321   0.25001   0.00000  Uiso   1.00
O525   O     0.03961   0.89346   0.25000   0.00000  Uiso   1.00
O526   O     0.01852   0.83334   0.31491   0.00000  Uiso   1.00
O527   O     0.31481   0.83332   0.18509   0.00000  Uiso   1.00
O528   O     0.27267   0.83333   0.31492   0.00000  Uiso   1.00
O529   O     0.06067   0.83333   0.18508   0.00000  Uiso   1.00
O530   O     0.26861   0.88076   0.04852   0.00000  Uiso   1.00
S531   S     0.28677   0.78711   0.11440   0.00000  Uiso   1.00
S532   S     0.04479   0.88384   0.38394   0.00000  Uiso   1.00
C533   C     0.66640   0.75408   0.25083   0.00000  Uiso   1.00
C534   C     0.37572   0.68893   0.23193   0.00000  Uiso   1.00
C535   C     0.33391   0.95725   0.24877   0.00000  Uiso   1.00
C536   C     0.66608   0.70942   0.25115   0.00000  Uiso   1.00
C537   C     0.51921   0.80366   0.27319   0.00000  Uiso   1.00
C538   C     0.48080   0.86297   0.22675   0.00000  Uiso   1.00
C539   C     0.46985   0.80350   0.27371   0.00000  Uiso   1.00
C540   C     0.53018   0.86309   0.22617   0.00000  Uiso   1.00
C541   C     0.63992   0.83528   0.33633   0.00000  Uiso   1.00
C542   C     0.36008   0.83158   0.16362   0.00000  Uiso   1.00
C543   C     0.62579   0.84060   0.38602   0.00000  Uiso   1.00
C544   C     0.33360   0.91259   0.24915   0.00000  Uiso   1.00
C545   C     0.37420   0.82697   0.11377   0.00000  Uiso   1.00
C546   C     0.63677   0.86613   0.45679   0.00000  Uiso   1.00
C547   C     0.36283   0.80337   0.04235   0.00000  Uiso   1.00
C548   C     0.65481   0.86092   0.41023   0.00000  Uiso   1.00
C549   C     0.34462   0.80825   0.08894   0.00000  Uiso   1.00
C550   C     0.57918   0.82784   0.40902   0.00000  Uiso   1.00
C551   C     0.42114   0.83917   0.09110   0.00000  Uiso   1.00
C552   C     0.55871   0.83732   0.45470   0.00000  Uiso   1.00
C553   C     0.44141   0.83070   0.04510   0.00000  Uiso   1.00
C554   C     0.58909   0.85538   0.47908   0.00000  Uiso   1.00
C555   C     0.52359   0.85406   0.04693   0.00000  Uiso   1.00
C556   C     0.41080   0.81349   0.02038   0.00000  Uiso   1.00
C557   C     0.50900   0.82977   0.47649   0.00000  Uiso   1.00
C558   C     0.49110   0.83844   0.02328   0.00000  Uiso   1.00
C559   C     0.47644   0.81473   0.45263   0.00000  Uiso   1.00
C560   C     0.57156   0.86343   0.02519   0.00000  Uiso   1.00
C561   C     0.42832   0.80579   0.47417   0.00000  Uiso   1.00
C562   C     0.62324   0.68725   0.26957   0.00000  Uiso   1.00
C563   C     0.37675   0.97942   0.23031   0.00000  Uiso   1.00
C564   C     0.62427   0.97774   0.26797   0.00000  Uiso   1.00
Cu565  Cu    0.38022   0.83334   0.25000   0.00000  Uiso   1.00
Cu566  Cu    0.61978   0.83333   0.25000   0.00000  Uiso   1.00
H567   H     0.44129   0.85504   0.11083   0.00000  Uiso   1.00
H568   H     0.46688   0.88636   0.20765   0.00000  Uiso   1.00
H569   H     0.58349   0.88709   0.07969   0.00000  Uiso   1.00
H570   H     0.41628   0.78267   0.41946   0.00000  Uiso   1.00
H571   H     0.59029   0.74799   0.17304   0.00000  Uiso   1.00
H572   H     0.44978   0.86199   0.35291   0.00000  Uiso   1.00
H573   H     0.55491   0.68758   0.30082   0.00000  Uiso   1.00
H574   H     0.44505   0.97909   0.19899   0.00000  Uiso   1.00
H575   H     0.40930   0.78268   0.30965   0.00000  Uiso   1.00
H576   H     0.59078   0.88398   0.19037   0.00000  Uiso   1.00
H577   H     0.55947   0.81065   0.38989   0.00000  Uiso   1.00
H578   H     0.65958   0.88050   0.47543   0.00000  Uiso   1.00
H579   H     0.33977   0.78993   0.02334   0.00000  Uiso   1.00
H580   H     0.51307   0.85947   0.08265   0.00000  Uiso   1.00
H581   H     0.48697   0.80994   0.41676   0.00000  Uiso   1.00
H582   H     0.59164   0.96032   0.28255   0.00000  Uiso   1.00
H583   H     0.40835   0.70636   0.21735   0.00000  Uiso   1.00
H584   H     0.53314   0.78027   0.29228   0.00000  Uiso   1.00
N585   N     0.45069   0.83334   0.24999   0.00000  Uiso   1.00
N586   N     0.54931   0.83332   0.25001   0.00000  Uiso   1.00
O587   O     0.37291   0.77322   0.25000   0.00000  Uiso   1.00
O588   O     0.39775   0.78922   0.45055   0.00000  Uiso   1.00
O589   O     0.58541   0.82107   0.13239   0.00000  Uiso   1.00
O590   O     0.60131   0.76365   0.08051   0.00000  Uiso   1.00
O591   O     0.62408   0.75478   0.15718   0.00000  Uiso   1.00
O592   O     0.37308   0.91123   0.34499   0.00000  Uiso   1.00
O593   O     0.39570   0.90923   0.41716   0.00000  Uiso   1.00
O594   O     0.41893   0.84706   0.36467   0.00000  Uiso   1.00
O595   O     0.58136   0.70780   0.28986   0.00000  Uiso   1.00
O596   O     0.41861   0.95886   0.20999   0.00000  Uiso   1.00
O597   O     0.44240   0.77257   0.29902   0.00000  Uiso   1.00
O598   O     0.62709   0.89345   0.25000   0.00000  Uiso   1.00
O599   O     0.55762   0.89401   0.20082   0.00000  Uiso   1.00
O600   O     0.62706   0.77321   0.25001   0.00000  Uiso   1.00
O601   O     0.37294   0.89346   0.25000   0.00000  Uiso   1.00
O602   O     0.35186   0.83334   0.31491   0.00000  Uiso   1.00
O603   O     0.64814   0.83332   0.18509   0.00000  Uiso   1.00
O604   O     0.60600   0.83333   0.31492   0.00000  Uiso   1.00
O605   O     0.39400   0.83333   0.18508   0.00000  Uiso   1.00
O606   O     0.60194   0.88076   0.04852   0.00000  Uiso   1.00
S607   S     0.62010   0.78711   0.11440   0.00000  Uiso   1.00
S608   S     0.37813   0.88384   0.38394   0.00000  Uiso   1.00
C609   C     0.99973   0.75408   0.25083   0.00000  Uiso   1.00
C610   C     0.70906   0.68893   0.23193   0.00000  Uiso   1.00
C611   C     0.66725   0.95725   0.24877   0.00000  Uiso   1.00
C612   C     0.99942   0.70942   0.25115   0.00000  Uiso   1.00
C613   C     0.85255   0.80366   0.27319   0.00000  Uiso   1.00
C614   C     0.81414   0.86297   0.22675   0.00000  Uiso   1.00
C615   C     0.80318   0.80350   0.27371   0.00000  Uiso   1.00
C616   C     0.86351   0.86309   0.22617   0.00000  Uiso   1.00
C617   C     0.97325   0.83528   0.33633   0.00000  Uiso   1.00
C618   C     0.69341   0.83158   0.16362   0.00000  Uiso   1.00
C619   C     0.95912   0.84060   0.38602   0.00000  Uiso   1.00
C620   C     0.66694   0.91259   0.24915   0.00000  Uiso   1.00
C621   C     0.70753   0.82697   0.11377   0.00000  Uiso   1.00
C622   C     0.97010   0.86613   0.45679   0.00000  Uiso   1.00
C623   C     0.69617   0.80337   0.04235   0.00000  Uiso   1.00
C624   C     0.98815   0.86092   0.41023   0.00000  Uiso   1.00
C625   C     0.67796   0.80825   0.08894   0.00000  Uiso   1.00
C626   C     0.91252   0.82784   0.40902   0.00000  Uiso   1.00
C627   C     0.75448   0.83917   0.09110   0.00000  Uiso   1.00
C628   C     0.89204   0.83732   0.45470   0.00000  Uiso   1.00
C629   C     0.77474   0.83070   0.04510   0.00000  Uiso   1.00
C630   C     0.92243   0.85538   0.47908   0.00000  Uiso   1.00
C631   C     0.85692   0.85406   0.04693   0.00000  Uiso   1.00
C632   C     0.74413   0.81349   0.02038   0.00000  Uiso   1.00
C633   C     0.84234   0.82977   0.47649   0.00000  Uiso   1.00
C634   C     0.82443   0.83844   0.02328   0.00000  Uiso   1.00
C635   C     0.80977   0.81473   0.45263   0.00000  Uiso   1.00
C636   C     0.90489   0.86343   0.02519   0.00000  Uiso   1.00
C637   C     0.76165   0.80579   0.47417   0.00000  Uiso   1.00
C638   C     0.95657   0.68725   0.26957   0.00000  Uiso   1.00
C639   C     0.71008   0.97942   0.23031   0.00000  Uiso   1.00
C640   C     0.95760   0.97774   0.26797   0.00000  Uiso   1.00
Cu641  Cu    0.71355   0.83334   0.25000   0.00000  Uiso   1.00
Cu642  Cu    0.95311   0.83333   0.25000   0.00000  Uiso   1.00
H643   H     0.77462   0.85504   0.11083   0.00000  Uiso   1.00
H644   H     0.80021   0.88636   0.20765   0.00000  Uiso   1.00
H645   H     0.91682   0.88709   0.07969   0.00000  Uiso   1.00
H646   H     0.74962   0.78267   0.41946   0.00000  Uiso   1.00
H647   H     0.92362   0.74799   0.17304   0.00000  Uiso   1.00
H648   H     0.78312   0.86199   0.35291   0.00000  Uiso   1.00
H649   H     0.88825   0.68758   0.30082   0.00000  Uiso   1.00
H650   H     0.77838   0.97909   0.19899   0.00000  Uiso   1.00
H651   H     0.74263   0.78268   0.30965   0.00000  Uiso   1.00
H652   H     0.92411   0.88398   0.19037   0.00000  Uiso   1.00
H653   H     0.89280   0.81065   0.38989   0.00000  Uiso   1.00
H654   H     0.99292   0.88050   0.47543   0.00000  Uiso   1.00
H655   H     0.67310   0.78993   0.02334   0.00000  Uiso   1.00
H656   H     0.84641   0.85947   0.08265   0.00000  Uiso   1.00
H657   H     0.82030   0.80994   0.41676   0.00000  Uiso   1.00
H658   H     0.92497   0.96032   0.28255   0.00000  Uiso   1.00
H659   H     0.74168   0.70636   0.21735   0.00000  Uiso   1.00
H660   H     0.86647   0.78027   0.29228   0.00000  Uiso   1.00
N661   N     0.78403   0.83334   0.24999   0.00000  Uiso   1.00
N662   N     0.88264   0.83332   0.25001   0.00000  Uiso   1.00
O663   O     0.70625   0.77322   0.25000   0.00000  Uiso   1.00
O664   O     0.73109   0.78922   0.45055   0.00000  Uiso   1.00
O665   O     0.91874   0.82107   0.13239   0.00000  Uiso   1.00
O666   O     0.93465   0.76365   0.08051   0.00000  Uiso   1.00
O667   O     0.95742   0.75478   0.15718   0.00000  Uiso   1.00
O668   O     0.70642   0.91123   0.34499   0.00000  Uiso   1.00
O669   O     0.72903   0.90923   0.41716   0.00000  Uiso   1.00
O670   O     0.75226   0.84706   0.36467   0.00000  Uiso   1.00
O671   O     0.91469   0.70780   0.28986   0.00000  Uiso   1.00
O672   O     0.75195   0.95886   0.20999   0.00000  Uiso   1.00
O673   O     0.77574   0.77257   0.29902   0.00000  Uiso   1.00
O674   O     0.96042   0.89345   0.25000   0.00000  Uiso   1.00
O675   O     0.89095   0.89401   0.20082   0.00000  Uiso   1.00
O676   O     0.96039   0.77321   0.25001   0.00000  Uiso   1.00
O677   O     0.70628   0.89346   0.25000   0.00000  Uiso   1.00
O678   O     0.68519   0.83334   0.31491   0.00000  Uiso   1.00
O679   O     0.98148   0.83332   0.18509   0.00000  Uiso   1.00
O680   O     0.93933   0.83333   0.31492   0.00000  Uiso   1.00
O681   O     0.72733   0.83333   0.18508   0.00000  Uiso   1.00
O682   O     0.93527   0.88076   0.04852   0.00000  Uiso   1.00
S683   S     0.95343   0.78711   0.11440   0.00000  Uiso   1.00
S684   S     0.71146   0.88384   0.38394   0.00000  Uiso   1.00
C685   C     0.33307   0.08741   0.75083   0.00000  Uiso   1.00
C686   C     0.04239   0.02227   0.73193   0.00000  Uiso   1.00
C687   C     0.00058   0.29058   0.74877   0.00000  Uiso   1.00
C688   C     0.33275   0.04276   0.75115   0.00000  Uiso   1.00
C689   C     0.18588   0.13699   0.77319   0.00000  Uiso   1.00
C690   C     0.14747   0.19630   0.72675   0.00000  Uiso   1.00
C691   C     0.13652   0.13684   0.77371   0.00000  Uiso   1.00
C692   C     0.19684   0.19642   0.72617   0.00000  Uiso   1.00
C693   C     0.30658   0.16861   0.83633   0.00000  Uiso   1.00
C694   C     0.02674   0.16492   0.66362   0.00000  Uiso   1.00
C695   C     0.29245   0.17394   0.88602   0.00000  Uiso   1.00
C696   C     0.00027   0.24592   0.74915   0.00000  Uiso   1.00
C697   C     0.04086   0.16031   0.61377   0.00000  Uiso   1.00
C698   C     0.30344   0.19946   0.95679   0.00000  Uiso   1.00
C699   C     0.02950   0.13670   0.54235   0.00000  Uiso   1.00
C700   C     0.32148   0.19425   0.91023   0.00000  Uiso   1.00
C701   C     0.01129   0.14158   0.58894   0.00000  Uiso   1.00
C702   C     0.24585   0.16117   0.90902   0.00000  Uiso   1.00
C703   C     0.08781   0.17250   0.59110   0.00000  Uiso   1.00
C704   C     0.22537   0.17065   0.95470   0.00000  Uiso   1.00
C705   C     0.10807   0.16404   0.54510   0.00000  Uiso   1.00
C706   C     0.25576   0.18871   0.97908   0.00000  Uiso   1.00
C707   C     0.19025   0.18740   0.54693   0.00000  Uiso   1.00
C708   C     0.07747   0.14682   0.52038   0.00000  Uiso   1.00
C709   C     0.17567   0.16310   0.97649   0.00000  Uiso   1.00
C710   C     0.15777   0.17177   0.52328   0.00000  Uiso   1.00
C711   C     0.14311   0.14806   0.95263   0.00000  Uiso   1.00
C712   C     0.23822   0.19676   0.52519   0.00000  Uiso   1.00
C713   C     0.09498   0.13912   0.97417   0.00000  Uiso   1.00
C714   C     0.28991   0.02059   0.76957   0.00000  Uiso   1.00
C715   C     0.04341   0.31275   0.73031   0.00000  Uiso   1.00
C716   C     0.29093   0.31107   0.76797   0.00000  Uiso   1.00
Cu717  Cu    0.04689   0.16667   0.75000   0.00000  Uiso   1.00
Cu718  Cu    0.28645   0.16666   0.75000   0.00000  Uiso   1.00
H719   H     0.10795   0.18837   0.61083   0.00000  Uiso   1.00
H720   H     0.13354   0.21969   0.70765   0.00000  Uiso   1.00
H721   H     0.25015   0.22043   0.57969   0.00000  Uiso   1.00
H722   H     0.08295   0.11601   0.91946   0.00000  Uiso   1.00
H723   H     0.25695   0.08132   0.67304   0.00000  Uiso   1.00
H724   H     0.11645   0.19532   0.85291   0.00000  Uiso   1.00
H725   H     0.22158   0.02091   0.80082   0.00000  Uiso   1.00
H726   H     0.11172   0.31243   0.69899   0.00000  Uiso   1.00
H727   H     0.07596   0.11601   0.80965   0.00000  Uiso   1.00
H728   H     0.25744   0.21731   0.69037   0.00000  Uiso   1.00
H729   H     0.22614   0.14398   0.88989   0.00000  Uiso   1.00
H730   H     0.32625   0.21383   0.97543   0.00000  Uiso   1.00
H731   H     0.00643   0.12326   0.52334   0.00000  Uiso   1.00
H732   H     0.17974   0.19280   0.58265   0.00000  Uiso   1.00
H733   H     0.15363   0.14328   0.91676   0.00000  Uiso   1.00
H734   H     0.25831   0.29365   0.78255   0.00000  Uiso   1.00
H735   H     0.07502   0.03969   0.71735   0.00000  Uiso   1.00
H736   H     0.19980   0.11360   0.79228   0.00000  Uiso   1.00
N737   N     0.11736   0.16668   0.74999   0.00000  Uiso   1.00
N738   N     0.21597   0.16666   0.75001   0.00000  Uiso   1.00
O739   O     0.03958   0.10655   0.75000   0.00000  Uiso   1.00
O740   O     0.06442   0.12256   0.95055   0.00000  Uiso   1.00
O741   O     0.25208   0.15441   0.63239   0.00000  Uiso   1.00
O742   O     0.26798   0.09698   0.58051   0.00000  Uiso   1.00
O743   O     0.29075   0.08812   0.65718   0.00000  Uiso   1.00
O744   O     0.03975   0.24456   0.84499   0.00000  Uiso   1.00
O745   O     0.06236   0.24256   0.91716   0.00000  Uiso   1.00
O746   O     0.08559   0.18039   0.86467   0.00000  Uiso   1.00
O747   O     0.24803   0.04114   0.78986   0.00000  Uiso   1.00
O748   O     0.08528   0.29220   0.70999   0.00000  Uiso   1.00
O749   O     0.10907   0.10590   0.79902   0.00000  Uiso   1.00
O750   O     0.29375   0.22678   0.75000   0.00000  Uiso   1.00
O751   O     0.22429   0.22734   0.70082   0.00000  Uiso   1.00
O752   O     0.29372   0.10654   0.75001   0.00000  Uiso   1.00
O753   O     0.03961   0.22679   0.75000   0.00000  Uiso   1.00
O754   O     0.01852   0.16668   0.81491   0.00000  Uiso   1.00
O755   O     0.31481   0.16666   0.68509   0.00000  Uiso   1.00
O756   O     0.27267   0.16667   0.81492   0.00000  Uiso   1.00
O757   O     0.06067   0.16667   0.68508   0.00000  Uiso   1.00
O758   O     0.26861   0.21409   0.54852   0.00000  Uiso   1.00
S759   S     0.28677   0.12045   0.61440   0.00000  Uiso   1.00
S760   S     0.04479   0.21717   0.88394   0.00000  Uiso   1.00
C761   C     0.66640   0.08741   0.75083   0.00000  Uiso   1.00
C762   C     0.37572   0.02227   0.73193   0.00000  Uiso   1.00
C763   C     0.33391   0.29058   0.74877   0.00000  Uiso   1.00
C764   C     0.66608   0.04276   0.75115   0.00000  Uiso   1.00
C765   C     0.51921   0.13699   0.77319   0.00000  Uiso   1.00
C766   C     0.48080   0.19630   0.72675   0.00000  Uiso   1.00
C767   C     0.46985   0.13684   0.77371   0.00000  Uiso   1.00
C768   C     0.53018   0.19642   0.72617   0.00000  Uiso   1.00
C769   C     0.63992   0.16861   0.83633   0.00000  Uiso   1.00
C770   C     0.36008   0.16492   0.66362   0.00000  Uiso   1.00
C771   C     0.62579   0.17394   0.88602   0.00000  Uiso   1.00
C772   C     0.33360   0.24592   0.74915   0.00000  Uiso   1.00
C773   C     0.37420   0.16031   0.61377   0.00000  Uiso   1.00
C774   C     0.63677   0.19946   0.95679   0.00000  Uiso   1.00
C775   C     0.36283   0.13670   0.54235   0.00000  Uiso   1.00
C776   C     0.65481   0.19425   0.91023   0.00000  Uiso   1.00
C777   C     0.34462   0.14158   0.58894   0.00000  Uiso   1.00
C778   C     0.57918   0.16117   0.90902   0.00000  Uiso   1.00
C779   C     0.42114   0.17250   0.59110   0.00000  Uiso   1.00
C780   C     0.55871   0.17065   0.95470   0.00000  Uiso   1.00
C781   C     0.44141   0.16404   0.54510   0.00000  Uiso   1.00
C782   C     0.58909   0.18871   0.97908   0.00000  Uiso   1.00
C783   C     0.52359   0.18740   0.54693   0.00000  Uiso   1.00
C784   C     0.41080   0.14682   0.52038   0.00000  Uiso   1.00
C785   C     0.50900   0.16310   0.97649   0.00000  Uiso   1.00
C786   C     0.49110   0.17177   0.52328   0.00000  Uiso   1.00
C787   C     0.47644   0.14806   0.95263   0.00000  Uiso   1.00
C788   C     0.57156   0.19676   0.52519   0.00000  Uiso   1.00
C789   C     0.42832   0.13912   0.97417   0.00000  Uiso   1.00
C790   C     0.62324   0.02059   0.76957   0.00000  Uiso   1.00
C791   C     0.37675   0.31275   0.73031   0.00000  Uiso   1.00
C792   C     0.62427   0.31107   0.76797   0.00000  Uiso   1.00
Cu793  Cu    0.38022   0.16667   0.75000   0.00000  Uiso   1.00
Cu794  Cu    0.61978   0.16666   0.75000   0.00000  Uiso   1.00
H795   H     0.44129   0.18837   0.61083   0.00000  Uiso   1.00
H796   H     0.46688   0.21969   0.70765   0.00000  Uiso   1.00
H797   H     0.58349   0.22043   0.57969   0.00000  Uiso   1.00
H798   H     0.41628   0.11601   0.91946   0.00000  Uiso   1.00
H799   H     0.59029   0.08132   0.67304   0.00000  Uiso   1.00
H800   H     0.44978   0.19532   0.85291   0.00000  Uiso   1.00
H801   H     0.55491   0.02091   0.80082   0.00000  Uiso   1.00
H802   H     0.44505   0.31243   0.69899   0.00000  Uiso   1.00
H803   H     0.40930   0.11601   0.80965   0.00000  Uiso   1.00
H804   H     0.59078   0.21731   0.69037   0.00000  Uiso   1.00
H805   H     0.55947   0.14398   0.88989   0.00000  Uiso   1.00
H806   H     0.65958   0.21383   0.97543   0.00000  Uiso   1.00
H807   H     0.33977   0.12326   0.52334   0.00000  Uiso   1.00
H808   H     0.51307   0.19280   0.58265   0.00000  Uiso   1.00
H809   H     0.48697   0.14328   0.91676   0.00000  Uiso   1.00
H810   H     0.59164   0.29365   0.78255   0.00000  Uiso   1.00
H811   H     0.40835   0.03969   0.71735   0.00000  Uiso   1.00
H812   H     0.53314   0.11360   0.79228   0.00000  Uiso   1.00
N813   N     0.45069   0.16668   0.74999   0.00000  Uiso   1.00
N814   N     0.54931   0.16666   0.75001   0.00000  Uiso   1.00
O815   O     0.37291   0.10655   0.75000   0.00000  Uiso   1.00
O816   O     0.39775   0.12256   0.95055   0.00000  Uiso   1.00
O817   O     0.58541   0.15441   0.63239   0.00000  Uiso   1.00
O818   O     0.60131   0.09698   0.58051   0.00000  Uiso   1.00
O819   O     0.62408   0.08812   0.65718   0.00000  Uiso   1.00
O820   O     0.37308   0.24456   0.84499   0.00000  Uiso   1.00
O821   O     0.39570   0.24256   0.91716   0.00000  Uiso   1.00
O822   O     0.41893   0.18039   0.86467   0.00000  Uiso   1.00
O823   O     0.58136   0.04114   0.78986   0.00000  Uiso   1.00
O824   O     0.41861   0.29220   0.70999   0.00000  Uiso   1.00
O825   O     0.44240   0.10590   0.79902   0.00000  Uiso   1.00
O826   O     0.62709   0.22678   0.75000   0.00000  Uiso   1.00
O827   O     0.55762   0.22734   0.70082   0.00000  Uiso   1.00
O828   O     0.62706   0.10654   0.75001   0.00000  Uiso   1.00
O829   O     0.37294   0.22679   0.75000   0.00000  Uiso   1.00
O830   O     0.35186   0.16668   0.81491   0.00000  Uiso   1.00
O831   O     0.64814   0.16666   0.68509   0.00000  Uiso   1.00
O832   O     0.60600   0.16667   0.81492   0.00000  Uiso   1.00
O833   O     0.39400   0.16667   0.68508   0.00000  Uiso   1.00
O834   O     0.60194   0.21409   0.54852   0.00000  Uiso   1.00
S835   S     0.62010   0.12045   0.61440   0.00000  Uiso   1.00
S836   S     0.37813   0.21717   0.88394   0.00000  Uiso   1.00
C837   C     0.99973   0.08741   0.75083   0.00000  Uiso   1.00
C838   C     0.70906   0.02227   0.73193   0.00000  Uiso   1.00
C839   C     0.66725   0.29058   0.74877   0.00000  Uiso   1.00
C840   C     0.99942   0.04276   0.75115   0.00000  Uiso   1.00
C841   C     0.85255   0.13699   0.77319   0.00000  Uiso   1.00
C842   C     0.81414   0.19630   0.72675   0.00000  Uiso   1.00
C843   C     0.80318   0.13684   0.77371   0.00000  Uiso   1.00
C844   C     0.86351   0.19642   0.72617   0.00000  Uiso   1.00
C845   C     0.97325   0.16861   0.83633   0.00000  Uiso   1.00
C846   C     0.69341   0.16492   0.66362   0.00000  Uiso   1.00
C847   C     0.95912   0.17394   0.88602   0.00000  Uiso   1.00
C848   C     0.66694   0.24592   0.74915   0.00000  Uiso   1.00
C849   C     0.70753   0.16031   0.61377   0.00000  Uiso   1.00
C850   C     0.97010   0.19946   0.95679   0.00000  Uiso   1.00
C851   C     0.69617   0.13670   0.54235   0.00000  Uiso   1.00
C852   C     0.98815   0.19425   0.91023   0.00000  Uiso   1.00
C853   C     0.67796   0.14158   0.58894   0.00000  Uiso   1.00
C854   C     0.91252   0.16117   0.90902   0.00000  Uiso   1.00
C855   C     0.75448   0.17250   0.59110   0.00000  Uiso   1.00
C856   C     0.89204   0.17065   0.95470   0.00000  Uiso   1.00
C857   C     0.77474   0.16404   0.54510   0.00000  Uiso   1.00
C858   C     0.92243   0.18871   0.97908   0.00000  Uiso   1.00
C859   C     0.85692   0.18740   0.54693   0.00000  Uiso   1.00
C860   C     0.74413   0.14682   0.52038   0.00000  Uiso   1.00
C861   C     0.84234   0.16310   0.97649   0.00000  Uiso   1.00
C862   C     0.82443   0.17177   0.52328   0.00000  Uiso   1.00
C863   C     0.80977   0.14806   0.95263   0.00000  Uiso   1.00
C864   C     0.90489   0.19676   0.52519   0.00000  Uiso   1.00
C865   C     0.76165   0.13912   0.97417   0.00000  Uiso   1.00
C866   C     0.95657   0.02059   0.76957   0.00000  Uiso   1.00
C867   C     0.71008   0.31275   0.73031   0.00000  Uiso   1.00
C868   C     0.95760   0.31107   0.76797   0.00000  Uiso   1.00
Cu869  Cu    0.71355   0.16667   0.75000   0.00000  Uiso   1.00
Cu870  Cu    0.95311   0.16666   0.75000   0.00000  Uiso   1.00
H871   H     0.77462   0.18837   0.61083   0.00000  Uiso   1.00
H872   H     0.80021   0.21969   0.70765   0.00000  Uiso   1.00
H873   H     0.91682   0.22043   0.57969   0.00000  Uiso   1.00
H874   H     0.74962   0.11601   0.91946   0.00000  Uiso   1.00
H875   H     0.92362   0.08132   0.67304   0.00000  Uiso   1.00
H876   H     0.78312   0.19532   0.85291   0.00000  Uiso   1.00
H877   H     0.88825   0.02091   0.80082   0.00000  Uiso   1.00
H878   H     0.77838   0.31243   0.69899   0.00000  Uiso   1.00
H879   H     0.74263   0.11601   0.80965   0.00000  Uiso   1.00
H880   H     0.92411   0.21731   0.69037   0.00000  Uiso   1.00
H881   H     0.89280   0.14398   0.88989   0.00000  Uiso   1.00
H882   H     0.99292   0.21383   0.97543   0.00000  Uiso   1.00
H883   H     0.67310   0.12326   0.52334   0.00000  Uiso   1.00
H884   H     0.84641   0.19280   0.58265   0.00000  Uiso   1.00
H885   H     0.82030   0.14328   0.91676   0.00000  Uiso   1.00
H886   H     0.92497   0.29365   0.78255   0.00000  Uiso   1.00
H887   H     0.74168   0.03969   0.71735   0.00000  Uiso   1.00
H888   H     0.86647   0.11360   0.79228   0.00000  Uiso   1.00
N889   N     0.78403   0.16668   0.74999   0.00000  Uiso   1.00
N890   N     0.88264   0.16666   0.75001   0.00000  Uiso   1.00
O891   O     0.70625   0.10655   0.75000   0.00000  Uiso   1.00
O892   O     0.73109   0.12256   0.95055   0.00000  Uiso   1.00
O893   O     0.91874   0.15441   0.63239   0.00000  Uiso   1.00
O894   O     0.93465   0.09698   0.58051   0.00000  Uiso   1.00
O895   O     0.95742   0.08812   0.65718   0.00000  Uiso   1.00
O896   O     0.70642   0.24456   0.84499   0.00000  Uiso   1.00
O897   O     0.72903   0.24256   0.91716   0.00000  Uiso   1.00
O898   O     0.75226   0.18039   0.86467   0.00000  Uiso   1.00
O899   O     0.91469   0.04114   0.78986   0.00000  Uiso   1.00
O900   O     0.75195   0.29220   0.70999   0.00000  Uiso   1.00
O901   O     0.77574   0.10590   0.79902   0.00000  Uiso   1.00
O902   O     0.96042   0.22678   0.75000   0.00000  Uiso   1.00
O903   O     0.89095   0.22734   0.70082   0.00000  Uiso   1.00
O904   O     0.96039   0.10654   0.75001   0.00000  Uiso   1.00
O905   O     0.70628   0.22679   0.75000   0.00000  Uiso   1.00
O906   O     0.68519   0.16668   0.81491   0.00000  Uiso   1.00
O907   O     0.98148   0.16666   0.68509   0.00000  Uiso   1.00
O908   O     0.93933   0.16667   0.81492   0.00000  Uiso   1.00
O909   O     0.72733   0.16667   0.68508   0.00000  Uiso   1.00
O910   O     0.93527   0.21409   0.54852   0.00000  Uiso   1.00
S911   S     0.95343   0.12045   0.61440   0.00000  Uiso   1.00
S912   S     0.71146   0.21717   0.88394   0.00000  Uiso   1.00
C913   C     0.33307   0.42075   0.75083   0.00000  Uiso   1.00
C914   C     0.04239   0.35560   0.73193   0.00000  Uiso   1.00
C915   C     0.00058   0.62391   0.74877   0.00000  Uiso   1.00
C916   C     0.33275   0.37609   0.75115   0.00000  Uiso   1.00
C917   C     0.18588   0.47032   0.77319   0.00000  Uiso   1.00
C918   C     0.14747   0.52963   0.72675   0.00000  Uiso   1.00
C919   C     0.13652   0.47017   0.77371   0.00000  Uiso   1.00
C920   C     0.19684   0.52975   0.72617   0.00000  Uiso   1.00
C921   C     0.30658   0.50195   0.83633   0.00000  Uiso   1.00
C922   C     0.02674   0.49825   0.66362   0.00000  Uiso   1.00
C923   C     0.29245   0.50727   0.88602   0.00000  Uiso   1.00
C924   C     0.00027   0.57925   0.74915   0.00000  Uiso   1.00
C925   C     0.04086   0.49364   0.61377   0.00000  Uiso   1.00
C926   C     0.30344   0.53279   0.95679   0.00000  Uiso   1.00
C927   C     0.02950   0.47004   0.54235   0.00000  Uiso   1.00
C928   C     0.32148   0.52758   0.91023   0.00000  Uiso   1.00
C929   C     0.01129   0.47491   0.58894   0.00000  Uiso   1.00
C930   C     0.24585   0.49451   0.90902   0.00000  Uiso   1.00
C931   C     0.08781   0.50584   0.59110   0.00000  Uiso   1.00
C932   C     0.22537   0.50399   0.95470   0.00000  Uiso   1.00
C933   C     0.10807   0.49737   0.54510   0.00000  Uiso   1.00
C934   C     0.25576   0.52204   0.97908   0.00000  Uiso   1.00
C935   C     0.19025   0.52073   0.54693   0.00000  Uiso   1.00
C936   C     0.07747   0.48015   0.52038   0.00000  Uiso   1.00
C937   C     0.17567   0.49643   0.97649   0.00000  Uiso   1.00
C938   C     0.15777   0.50511   0.52328   0.00000  Uiso   1.00
C939   C     0.14311   0.48140   0.95263   0.00000  Uiso   1.00
C940   C     0.23822   0.53010   0.52519   0.00000  Uiso   1.00
C941   C     0.09498   0.47245   0.97417   0.00000  Uiso   1.00
C942   C     0.28991   0.35392   0.76957   0.00000  Uiso   1.00
C943   C     0.04341   0.64608   0.73031   0.00000  Uiso   1.00
C944   C     0.29093   0.64441   0.76797   0.00000  Uiso   1.00
Cu945  Cu    0.04689   0.50001   0.75000   0.00000  Uiso   1.00
Cu946  Cu    0.28645   0.49999   0.75000   0.00000  Uiso   1.00
H947   H     0.10795   0.52171   0.61083   0.00000  Uiso   1.00
H948   H     0.13354   0.55302   0.70765   0.00000  Uiso   1.00
H949   H     0.25015   0.55376   0.57969   0.00000  Uiso   1.00
H950   H     0.08295   0.44934   0.91946   0.00000  Uiso   1.00
H951   H     0.25695   0.41466   0.67304   0.00000  Uiso   1.00
H952   H     0.11645   0.52866   0.85291   0.00000  Uiso   1.00
H953   H     0.22158   0.35424   0.80082   0.00000  Uiso   1.00
H954   H     0.11172   0.64576   0.69899   0.00000  Uiso   1.00
H955   H     0.07596   0.44935   0.80965   0.00000  Uiso   1.00
H956   H     0.25744   0.55065   0.69037   0.00000  Uiso   1.00
H957   H     0.22614   0.47731   0.88989   0.00000  Uiso   1.00
H958   H     0.32625   0.54717   0.97543   0.00000  Uiso   1.00
H959   H     0.00643   0.45660   0.52334   0.00000  Uiso   1.00
H960   H     0.17974   0.52614   0.58265   0.00000  Uiso   1.00
H961   H     0.15363   0.47661   0.91676   0.00000  Uiso   1.00
H962   H     0.25831   0.62698   0.78255   0.00000  Uiso   1.00
H963   H     0.07502   0.37302   0.71735   0.00000  Uiso   1.00
H964   H     0.19980   0.44693   0.79228   0.00000  Uiso   1.00
N965   N     0.11736   0.50001   0.74999   0.00000  Uiso   1.00
N966   N     0.21597   0.49999   0.75001   0.00000  Uiso   1.00
O967   O     0.03958   0.43989   0.75000   0.00000  Uiso   1.00
O968   O     0.06442   0.45589   0.95055   0.00000  Uiso   1.00
O969   O     0.25208   0.48774   0.63239   0.00000  Uiso   1.00
O970   O     0.26798   0.43032   0.58051   0.00000  Uiso   1.00
O971   O     0.29075   0.42145   0.65718   0.00000  Uiso   1.00
O972   O     0.03975   0.57790   0.84499   0.00000  Uiso   1.00
O973   O     0.06236   0.57589   0.91716   0.00000  Uiso   1.00
O974   O     0.08559   0.51372   0.86467   0.00000  Uiso   1.00
O975   O     0.24803   0.37447   0.78986   0.00000  Uiso   1.00
O976   O     0.08528   0.62553   0.70999   0.00000  Uiso   1.00
O977   O     0.10907   0.43924   0.79902   0.00000  Uiso   1.00
O978   O     0.29375   0.56011   0.75000   0.00000  Uiso   1.00
O979   O     0.22429   0.56067   0.70082   0.00000  Uiso   1.00
O980   O     0.29372   0.43988   0.75001   0.00000  Uiso   1.00
O981   O     0.03961   0.56012   0.75000   0.00000  Uiso   1.00
O982   O     0.01852   0.50001   0.81491   0.00000  Uiso   1.00
O983   O     0.31481   0.49999   0.68509   0.00000  Uiso   1.00
O984   O     0.27267   0.50000   0.81492   0.00000  Uiso   1.00
O985   O     0.06067   0.50000   0.68508   0.00000  Uiso   1.00
O986   O     0.26861   0.54742   0.54852   0.00000  Uiso   1.00
S987   S     0.28677   0.45378   0.61440   0.00000  Uiso   1.00
S988   S     0.04479   0.55050   0.88394   0.00000  Uiso   1.00
C989   C     0.66640   0.42075   0.75083   0.00000  Uiso   1.00
C990   C     0.37572   0.35560   0.73193   0.00000  Uiso   1.00
C991   C     0.33391   0.62391   0.74877   0.00000  Uiso   1.00
C992   C     0.66608   0.37609   0.75115   0.00000  Uiso   1.00
C993   C     0.51921   0.47032   0.77319   0.00000  Uiso   1.00
C994   C     0.48080   0.52963   0.72675   0.00000  Uiso   1.00
C995   C     0.46985   0.47017   0.77371   0.00000  Uiso   1.00
C996   C     0.53018   0.52975   0.72617   0.00000  Uiso   1.00
C997   C     0.63992   0.50195   0.83633   0.00000  Uiso   1.00
C998   C     0.36008   0.49825   0.66362   0.00000  Uiso   1.00
C999   C     0.62579   0.50727   0.88602   0.00000  Uiso   1.00
C1000  C     0.33360   0.57925   0.74915   0.00000  Uiso   1.00
C1001  C     0.37420   0.49364   0.61377   0.00000  Uiso   1.00
C1002  C     0.63677   0.53279   0.95679   0.00000  Uiso   1.00
C1003  C     0.36283   0.47004   0.54235   0.00000  Uiso   1.00
C1004  C     0.65481   0.52758   0.91023   0.00000  Uiso   1.00
C1005  C     0.34462   0.47491   0.58894   0.00000  Uiso   1.00
C1006  C     0.57918   0.49451   0.90902   0.00000  Uiso   1.00
C1007  C     0.42114   0.50584   0.59110   0.00000  Uiso   1.00
C1008  C     0.55871   0.50399   0.95470   0.00000  Uiso   1.00
C1009  C     0.44141   0.49737   0.54510   0.00000  Uiso   1.00
C1010  C     0.58909   0.52204   0.97908   0.00000  Uiso   1.00
C1011  C     0.52359   0.52073   0.54693   0.00000  Uiso   1.00
C1012  C     0.41080   0.48015   0.52038   0.00000  Uiso   1.00
C1013  C     0.50900   0.49643   0.97649   0.00000  Uiso   1.00
C1014  C     0.49110   0.50511   0.52328   0.00000  Uiso   1.00
C1015  C     0.47644   0.48140   0.95263   0.00000  Uiso   1.00
C1016  C     0.57156   0.53010   0.52519   0.00000  Uiso   1.00
C1017  C     0.42832   0.47245   0.97417   0.00000  Uiso   1.00
C1018  C     0.62324   0.35392   0.76957   0.00000  Uiso   1.00
C1019  C     0.37675   0.64608   0.73031   0.00000  Uiso   1.00
C1020  C     0.62427   0.64441   0.76797   0.00000  Uiso   1.00
Cu1021 Cu    0.38022   0.50001   0.75000   0.00000  Uiso   1.00
Cu1022 Cu    0.61978   0.49999   0.75000   0.00000  Uiso   1.00
H1023  H     0.44129   0.52171   0.61083   0.00000  Uiso   1.00
H1024  H     0.46688   0.55302   0.70765   0.00000  Uiso   1.00
H1025  H     0.58349   0.55376   0.57969   0.00000  Uiso   1.00
H1026  H     0.41628   0.44934   0.91946   0.00000  Uiso   1.00
H1027  H     0.59029   0.41466   0.67304   0.00000  Uiso   1.00
H1028  H     0.44978   0.52866   0.85291   0.00000  Uiso   1.00
H1029  H     0.55491   0.35424   0.80082   0.00000  Uiso   1.00
H1030  H     0.44505   0.64576   0.69899   0.00000  Uiso   1.00
H1031  H     0.40930   0.44935   0.80965   0.00000  Uiso   1.00
H1032  H     0.59078   0.55065   0.69037   0.00000  Uiso   1.00
H1033  H     0.55947   0.47731   0.88989   0.00000  Uiso   1.00
H1034  H     0.65958   0.54717   0.97543   0.00000  Uiso   1.00
H1035  H     0.33977   0.45660   0.52334   0.00000  Uiso   1.00
H1036  H     0.51307   0.52614   0.58265   0.00000  Uiso   1.00
H1037  H     0.48697   0.47661   0.91676   0.00000  Uiso   1.00
H1038  H     0.59164   0.62698   0.78255   0.00000  Uiso   1.00
H1039  H     0.40835   0.37302   0.71735   0.00000  Uiso   1.00
H1040  H     0.53314   0.44693   0.79228   0.00000  Uiso   1.00
N1041  N     0.45069   0.50001   0.74999   0.00000  Uiso   1.00
N1042  N     0.54931   0.49999   0.75001   0.00000  Uiso   1.00
O1043  O     0.37291   0.43989   0.75000   0.00000  Uiso   1.00
O1044  O     0.39775   0.45589   0.95055   0.00000  Uiso   1.00
O1045  O     0.58541   0.48774   0.63239   0.00000  Uiso   1.00
O1046  O     0.60131   0.43032   0.58051   0.00000  Uiso   1.00
O1047  O     0.62408   0.42145   0.65718   0.00000  Uiso   1.00
O1048  O     0.37308   0.57790   0.84499   0.00000  Uiso   1.00
O1049  O     0.39570   0.57589   0.91716   0.00000  Uiso   1.00
O1050  O     0.41893   0.51372   0.86467   0.00000  Uiso   1.00
O1051  O     0.58136   0.37447   0.78986   0.00000  Uiso   1.00
O1052  O     0.41861   0.62553   0.70999   0.00000  Uiso   1.00
O1053  O     0.44240   0.43924   0.79902   0.00000  Uiso   1.00
O1054  O     0.62709   0.56011   0.75000   0.00000  Uiso   1.00
O1055  O     0.55762   0.56067   0.70082   0.00000  Uiso   1.00
O1056  O     0.62706   0.43988   0.75001   0.00000  Uiso   1.00
O1057  O     0.37294   0.56012   0.75000   0.00000  Uiso   1.00
O1058  O     0.35186   0.50001   0.81491   0.00000  Uiso   1.00
O1059  O     0.64814   0.49999   0.68509   0.00000  Uiso   1.00
O1060  O     0.60600   0.50000   0.81492   0.00000  Uiso   1.00
O1061  O     0.39400   0.50000   0.68508   0.00000  Uiso   1.00
O1062  O     0.60194   0.54742   0.54852   0.00000  Uiso   1.00
S1063  S     0.62010   0.45378   0.61440   0.00000  Uiso   1.00
S1064  S     0.37813   0.55050   0.88394   0.00000  Uiso   1.00
C1065  C     0.99973   0.42075   0.75083   0.00000  Uiso   1.00
C1066  C     0.70906   0.35560   0.73193   0.00000  Uiso   1.00
C1067  C     0.66725   0.62391   0.74877   0.00000  Uiso   1.00
C1068  C     0.99942   0.37609   0.75115   0.00000  Uiso   1.00
C1069  C     0.85255   0.47032   0.77319   0.00000  Uiso   1.00
C1070  C     0.81414   0.52963   0.72675   0.00000  Uiso   1.00
C1071  C     0.80318   0.47017   0.77371   0.00000  Uiso   1.00
C1072  C     0.86351   0.52975   0.72617   0.00000  Uiso   1.00
C1073  C     0.97325   0.50195   0.83633   0.00000  Uiso   1.00
C1074  C     0.69341   0.49825   0.66362   0.00000  Uiso   1.00
C1075  C     0.95912   0.50727   0.88602   0.00000  Uiso   1.00
C1076  C     0.66694   0.57925   0.74915   0.00000  Uiso   1.00
C1077  C     0.70753   0.49364   0.61377   0.00000  Uiso   1.00
C1078  C     0.97010   0.53279   0.95679   0.00000  Uiso   1.00
C1079  C     0.69617   0.47004   0.54235   0.00000  Uiso   1.00
C1080  C     0.98815   0.52758   0.91023   0.00000  Uiso   1.00
C1081  C     0.67796   0.47491   0.58894   0.00000  Uiso   1.00
C1082  C     0.91252   0.49451   0.90902   0.00000  Uiso   1.00
C1083  C     0.75448   0.50584   0.59110   0.00000  Uiso   1.00
C1084  C     0.89204   0.50399   0.95470   0.00000  Uiso   1.00
C1085  C     0.77474   0.49737   0.54510   0.00000  Uiso   1.00
C1086  C     0.92243   0.52204   0.97908   0.00000  Uiso   1.00
C1087  C     0.85692   0.52073   0.54693   0.00000  Uiso   1.00
C1088  C     0.74413   0.48015   0.52038   0.00000  Uiso   1.00
C1089  C     0.84234   0.49643   0.97649   0.00000  Uiso   1.00
C1090  C     0.82443   0.50511   0.52328   0.00000  Uiso   1.00
C1091  C     0.80977   0.48140   0.95263   0.00000  Uiso   1.00
C1092  C     0.90489   0.53010   0.52519   0.00000  Uiso   1.00
C1093  C     0.76165   0.47245   0.97417   0.00000  Uiso   1.00
C1094  C     0.95657   0.35392   0.76957   0.00000  Uiso   1.00
C1095  C     0.71008   0.64608   0.73031   0.00000  Uiso   1.00
C1096  C     0.95760   0.64441   0.76797   0.00000  Uiso   1.00
Cu1097 Cu    0.71355   0.50001   0.75000   0.00000  Uiso   1.00
Cu1098 Cu    0.95311   0.49999   0.75000   0.00000  Uiso   1.00
H1099  H     0.77462   0.52171   0.61083   0.00000  Uiso   1.00
H1100  H     0.80021   0.55302   0.70765   0.00000  Uiso   1.00
H1101  H     0.91682   0.55376   0.57969   0.00000  Uiso   1.00
H1102  H     0.74962   0.44934   0.91946   0.00000  Uiso   1.00
H1103  H     0.92362   0.41466   0.67304   0.00000  Uiso   1.00
H1104  H     0.78312   0.52866   0.85291   0.00000  Uiso   1.00
H1105  H     0.88825   0.35424   0.80082   0.00000  Uiso   1.00
H1106  H     0.77838   0.64576   0.69899   0.00000  Uiso   1.00
H1107  H     0.74263   0.44935   0.80965   0.00000  Uiso   1.00
H1108  H     0.92411   0.55065   0.69037   0.00000  Uiso   1.00
H1109  H     0.89280   0.47731   0.88989   0.00000  Uiso   1.00
H1110  H     0.99292   0.54717   0.97543   0.00000  Uiso   1.00
H1111  H     0.67310   0.45660   0.52334   0.00000  Uiso   1.00
H1112  H     0.84641   0.52614   0.58265   0.00000  Uiso   1.00
H1113  H     0.82030   0.47661   0.91676   0.00000  Uiso   1.00
H1114  H     0.92497   0.62698   0.78255   0.00000  Uiso   1.00
H1115  H     0.74168   0.37302   0.71735   0.00000  Uiso   1.00
H1116  H     0.86647   0.44693   0.79228   0.00000  Uiso   1.00
N1117  N     0.78403   0.50001   0.74999   0.00000  Uiso   1.00
N1118  N     0.88264   0.49999   0.75001   0.00000  Uiso   1.00
O1119  O     0.70625   0.43989   0.75000   0.00000  Uiso   1.00
O1120  O     0.73109   0.45589   0.95055   0.00000  Uiso   1.00
O1121  O     0.91874   0.48774   0.63239   0.00000  Uiso   1.00
O1122  O     0.93465   0.43032   0.58051   0.00000  Uiso   1.00
O1123  O     0.95742   0.42145   0.65718   0.00000  Uiso   1.00
O1124  O     0.70642   0.57790   0.84499   0.00000  Uiso   1.00
O1125  O     0.72903   0.57589   0.91716   0.00000  Uiso   1.00
O1126  O     0.75226   0.51372   0.86467   0.00000  Uiso   1.00
O1127  O     0.91469   0.37447   0.78986   0.00000  Uiso   1.00
O1128  O     0.75195   0.62553   0.70999   0.00000  Uiso   1.00
O1129  O     0.77574   0.43924   0.79902   0.00000  Uiso   1.00
O1130  O     0.96042   0.56011   0.75000   0.00000  Uiso   1.00
O1131  O     0.89095   0.56067   0.70082   0.00000  Uiso   1.00
O1132  O     0.96039   0.43988   0.75001   0.00000  Uiso   1.00
O1133  O     0.70628   0.56012   0.75000   0.00000  Uiso   1.00
O1134  O     0.68519   0.50001   0.81491   0.00000  Uiso   1.00
O1135  O     0.98148   0.49999   0.68509   0.00000  Uiso   1.00
O1136  O     0.93933   0.50000   0.81492   0.00000  Uiso   1.00
O1137  O     0.72733   0.50000   0.68508   0.00000  Uiso   1.00
O1138  O     0.93527   0.54742   0.54852   0.00000  Uiso   1.00
S1139  S     0.95343   0.45378   0.61440   0.00000  Uiso   1.00
S1140  S     0.71146   0.55050   0.88394   0.00000  Uiso   1.00
C1141  C     0.33307   0.75408   0.75083   0.00000  Uiso   1.00
C1142  C     0.04239   0.68893   0.73193   0.00000  Uiso   1.00
C1143  C     0.00058   0.95725   0.74877   0.00000  Uiso   1.00
C1144  C     0.33275   0.70942   0.75115   0.00000  Uiso   1.00
C1145  C     0.18588   0.80366   0.77319   0.00000  Uiso   1.00
C1146  C     0.14747   0.86297   0.72675   0.00000  Uiso   1.00
C1147  C     0.13652   0.80350   0.77371   0.00000  Uiso   1.00
C1148  C     0.19684   0.86309   0.72617   0.00000  Uiso   1.00
C1149  C     0.30658   0.83528   0.83633   0.00000  Uiso   1.00
C1150  C     0.02674   0.83158   0.66362   0.00000  Uiso   1.00
C1151  C     0.29245   0.84060   0.88602   0.00000  Uiso   1.00
C1152  C     0.00027   0.91259   0.74915   0.00000  Uiso   1.00
C1153  C     0.04086   0.82697   0.61377   0.00000  Uiso   1.00
C1154  C     0.30344   0.86613   0.95679   0.00000  Uiso   1.00
C1155  C     0.02950   0.80337   0.54235   0.00000  Uiso   1.00
C1156  C     0.32148   0.86092   0.91023   0.00000  Uiso   1.00
C1157  C     0.01129   0.80825   0.58894   0.00000  Uiso   1.00
C1158  C     0.24585   0.82784   0.90902   0.00000  Uiso   1.00
C1159  C     0.08781   0.83917   0.59110   0.00000  Uiso   1.00
C1160  C     0.22537   0.83732   0.95470   0.00000  Uiso   1.00
C1161  C     0.10807   0.83070   0.54510   0.00000  Uiso   1.00
C1162  C     0.25576   0.85538   0.97908   0.00000  Uiso   1.00
C1163  C     0.19025   0.85406   0.54693   0.00000  Uiso   1.00
C1164  C     0.07747   0.81349   0.52038   0.00000  Uiso   1.00
C1165  C     0.17567   0.82977   0.97649   0.00000  Uiso   1.00
C1166  C     0.15777   0.83844   0.52328   0.00000  Uiso   1.00
C1167  C     0.14311   0.81473   0.95263   0.00000  Uiso   1.00
C1168  C     0.23822   0.86343   0.52519   0.00000  Uiso   1.00
C1169  C     0.09498   0.80579   0.97417   0.00000  Uiso   1.00
C1170  C     0.28991   0.68725   0.76957   0.00000  Uiso   1.00
C1171  C     0.04341   0.97942   0.73031   0.00000  Uiso   1.00
C1172  C     0.29093   0.97774   0.76797   0.00000  Uiso   1.00
Cu1173 Cu    0.04689   0.83334   0.75000   0.00000  Uiso   1.00
Cu1174 Cu    0.28645   0.83333   0.75000   0.00000  Uiso   1.00
H1175  H     0.10795   0.85504   0.61083   0.00000  Uiso   1.00
H1176  H     0.13354   0.88636   0.70765   0.00000  Uiso   1.00
H1177  H     0.25015   0.88709   0.57969   0.00000  Uiso   1.00
H1178  H     0.08295   0.78267   0.91946   0.00000  Uiso   1.00
H1179  H     0.25695   0.74799   0.67304   0.00000  Uiso   1.00
H1180  H     0.11645   0.86199   0.85291   0.00000  Uiso   1.00
H1181  H     0.22158   0.68758   0.80082   0.00000  Uiso   1.00
H1182  H     0.11172   0.97909   0.69899   0.00000  Uiso   1.00
H1183  H     0.07596   0.78268   0.80965   0.00000  Uiso   1.00
H1184  H     0.25744   0.88398   0.69037   0.00000  Uiso   1.00
H1185  H     0.22614   0.81065   0.88989   0.00000  Uiso   1.00
H1186  H     0.32625   0.88050   0.97543   0.00000  Uiso   1.00
H1187  H     0.00643   0.78993   0.52334   0.00000  Uiso   1.00
H1188  H     0.17974   0.85947   0.58265   0.00000  Uiso   1.00
H1189  H     0.15363   0.80994   0.91676   0.00000  Uiso   1.00
H1190  H     0.25831   0.96032   0.78255   0.00000  Uiso   1.00
H1191  H     0.07502   0.70636   0.71735   0.00000  Uiso   1.00
H1192  H     0.19980   0.78027   0.79228   0.00000  Uiso   1.00
N1193  N     0.11736   0.83334   0.74999   0.00000  Uiso   1.00
N1194  N     0.21597   0.83332   0.75001   0.00000  Uiso   1.00
O1195  O     0.03958   0.77322   0.75000   0.00000  Uiso   1.00
O1196  O     0.06442   0.78922   0.95055   0.00000  Uiso   1.00
O1197  O     0.25208   0.82107   0.63239   0.00000  Uiso   1.00
O1198  O     0.26798   0.76365   0.58051   0.00000  Uiso   1.00
O1199  O     0.29075   0.75478   0.65718   0.00000  Uiso   1.00
O1200  O     0.03975   0.91123   0.84499   0.00000  Uiso   1.00
O1201  O     0.06236   0.90923   0.91716   0.00000  Uiso   1.00
O1202  O     0.08559   0.84706   0.86467   0.00000  Uiso   1.00
O1203  O     0.24803   0.70780   0.78986   0.00000  Uiso   1.00
O1204  O     0.08528   0.95886   0.70999   0.00000  Uiso   1.00
O1205  O     0.10907   0.77257   0.79902   0.00000  Uiso   1.00
O1206  O     0.29375   0.89345   0.75000   0.00000  Uiso   1.00
O1207  O     0.22429   0.89401   0.70082   0.00000  Uiso   1.00
O1208  O     0.29372   0.77321   0.75001   0.00000  Uiso   1.00
O1209  O     0.03961   0.89346   0.75000   0.00000  Uiso   1.00
O1210  O     0.01852   0.83334   0.81491   0.00000  Uiso   1.00
O1211  O     0.31481   0.83332   0.68509   0.00000  Uiso   1.00
O1212  O     0.27267   0.83333   0.81492   0.00000  Uiso   1.00
O1213  O     0.06067   0.83333   0.68508   0.00000  Uiso   1.00
O1214  O     0.26861   0.88076   0.54852   0.00000  Uiso   1.00
S1215  S     0.28677   0.78711   0.61440   0.00000  Uiso   1.00
S1216  S     0.04479   0.88384   0.88394   0.00000  Uiso   1.00
C1217  C     0.66640   0.75408   0.75083   0.00000  Uiso   1.00
C1218  C     0.37572   0.68893   0.73193   0.00000  Uiso   1.00
C1219  C     0.33391   0.95725   0.74877   0.00000  Uiso   1.00
C1220  C     0.66608   0.70942   0.75115   0.00000  Uiso   1.00
C1221  C     0.51921   0.80366   0.77319   0.00000  Uiso   1.00
C1222  C     0.48080   0.86297   0.72675   0.00000  Uiso   1.00
C1223  C     0.46985   0.80350   0.77371   0.00000  Uiso   1.00
C1224  C     0.53018   0.86309   0.72617   0.00000  Uiso   1.00
C1225  C     0.63992   0.83528   0.83633   0.00000  Uiso   1.00
C1226  C     0.36008   0.83158   0.66362   0.00000  Uiso   1.00
C1227  C     0.62579   0.84060   0.88602   0.00000  Uiso   1.00
C1228  C     0.33360   0.91259   0.74915   0.00000  Uiso   1.00
C1229  C     0.37420   0.82697   0.61377   0.00000  Uiso   1.00
C1230  C     0.63677   0.86613   0.95679   0.00000  Uiso   1.00
C1231  C     0.36283   0.80337   0.54235   0.00000  Uiso   1.00
C1232  C     0.65481   0.86092   0.91023   0.00000  Uiso   1.00
C1233  C     0.34462   0.80825   0.58894   0.00000  Uiso   1.00
C1234  C     0.57918   0.82784   0.90902   0.00000  Uiso   1.00
C1235  C     0.42114   0.83917   0.59110   0.00000  Uiso   1.00
C1236  C     0.55871   0.83732   0.95470   0.00000  Uiso   1.00
C1237  C     0.44141   0.83070   0.54510   0.00000  Uiso   1.00
C1238  C     0.58909   0.85538   0.97908   0.00000  Uiso   1.00
C1239  C     0.52359   0.85406   0.54693   0.00000  Uiso   1.00
C1240  C     0.41080   0.81349   0.52038   0.00000  Uiso   1.00
C1241  C     0.50900   0.82977   0.97649   0.00000  Uiso   1.00
C1242  C     0.49110   0.83844   0.52328   0.00000  Uiso   1.00
C1243  C     0.47644   0.81473   0.95263   0.00000  Uiso   1.00
C1244  C     0.57156   0.86343   0.52519   0.00000  Uiso   1.00
C1245  C     0.42832   0.80579   0.97417   0.00000  Uiso   1.00
C1246  C     0.62324   0.68725   0.76957   0.00000  Uiso   1.00
C1247  C     0.37675   0.97942   0.73031   0.00000  Uiso   1.00
C1248  C     0.62427   0.97774   0.76797   0.00000  Uiso   1.00
Cu1249 Cu    0.38022   0.83334   0.75000   0.00000  Uiso   1.00
Cu1250 Cu    0.61978   0.83333   0.75000   0.00000  Uiso   1.00
H1251  H     0.44129   0.85504   0.61083   0.00000  Uiso   1.00
H1252  H     0.46688   0.88636   0.70765   0.00000  Uiso   1.00
H1253  H     0.58349   0.88709   0.57969   0.00000  Uiso   1.00
H1254  H     0.41628   0.78267   0.91946   0.00000  Uiso   1.00
H1255  H     0.59029   0.74799   0.67304   0.00000  Uiso   1.00
H1256  H     0.44978   0.86199   0.85291   0.00000  Uiso   1.00
H1257  H     0.55491   0.68758   0.80082   0.00000  Uiso   1.00
H1258  H     0.44505   0.97909   0.69899   0.00000  Uiso   1.00
H1259  H     0.40930   0.78268   0.80965   0.00000  Uiso   1.00
H1260  H     0.59078   0.88398   0.69037   0.00000  Uiso   1.00
H1261  H     0.55947   0.81065   0.88989   0.00000  Uiso   1.00
H1262  H     0.65958   0.88050   0.97543   0.00000  Uiso   1.00
H1263  H     0.33977   0.78993   0.52334   0.00000  Uiso   1.00
H1264  H     0.51307   0.85947   0.58265   0.00000  Uiso   1.00
H1265  H     0.48697   0.80994   0.91676   0.00000  Uiso   1.00
H1266  H     0.59164   0.96032   0.78255   0.00000  Uiso   1.00
H1267  H     0.40835   0.70636   0.71735   0.00000  Uiso   1.00
H1268  H     0.53314   0.78027   0.79228   0.00000  Uiso   1.00
N1269  N     0.45069   0.83334   0.74999   0.00000  Uiso   1.00
N1270  N     0.54931   0.83332   0.75001   0.00000  Uiso   1.00
O1271  O     0.37291   0.77322   0.75000   0.00000  Uiso   1.00
O1272  O     0.39775   0.78922   0.95055   0.00000  Uiso   1.00
O1273  O     0.58541   0.82107   0.63239   0.00000  Uiso   1.00
O1274  O     0.60131   0.76365   0.58051   0.00000  Uiso   1.00
O1275  O     0.62408   0.75478   0.65718   0.00000  Uiso   1.00
O1276  O     0.37308   0.91123   0.84499   0.00000  Uiso   1.00
O1277  O     0.39570   0.90923   0.91716   0.00000  Uiso   1.00
O1278  O     0.41893   0.84706   0.86467   0.00000  Uiso   1.00
O1279  O     0.58136   0.70780   0.78986   0.00000  Uiso   1.00
O1280  O     0.41861   0.95886   0.70999   0.00000  Uiso   1.00
O1281  O     0.44240   0.77257   0.79902   0.00000  Uiso   1.00
O1282  O     0.62709   0.89345   0.75000   0.00000  Uiso   1.00
O1283  O     0.55762   0.89401   0.70082   0.00000  Uiso   1.00
O1284  O     0.62706   0.77321   0.75001   0.00000  Uiso   1.00
O1285  O     0.37294   0.89346   0.75000   0.00000  Uiso   1.00
O1286  O     0.35186   0.83334   0.81491   0.00000  Uiso   1.00
O1287  O     0.64814   0.83332   0.68509   0.00000  Uiso   1.00
O1288  O     0.60600   0.83333   0.81492   0.00000  Uiso   1.00
O1289  O     0.39400   0.83333   0.68508   0.00000  Uiso   1.00
O1290  O     0.60194   0.88076   0.54852   0.00000  Uiso   1.00
S1291  S     0.62010   0.78711   0.61440   0.00000  Uiso   1.00
S1292  S     0.37813   0.88384   0.88394   0.00000  Uiso   1.00
C1293  C     0.99973   0.75408   0.75083   0.00000  Uiso   1.00
C1294  C     0.70906   0.68893   0.73193   0.00000  Uiso   1.00
C1295  C     0.66725   0.95725   0.74877   0.00000  Uiso   1.00
C1296  C     0.99942   0.70942   0.75115   0.00000  Uiso   1.00
C1297  C     0.85255   0.80366   0.77319   0.00000  Uiso   1.00
C1298  C     0.81414   0.86297   0.72675   0.00000  Uiso   1.00
C1299  C     0.80318   0.80350   0.77371   0.00000  Uiso   1.00
C1300  C     0.86351   0.86309   0.72617   0.00000  Uiso   1.00
C1301  C     0.97325   0.83528   0.83633   0.00000  Uiso   1.00
C1302  C     0.69341   0.83158   0.66362   0.00000  Uiso   1.00
C1303  C     0.95912   0.84060   0.88602   0.00000  Uiso   1.00
C1304  C     0.66694   0.91259   0.74915   0.00000  Uiso   1.00
C1305  C     0.70753   0.82697   0.61377   0.00000  Uiso   1.00
C1306  C     0.97010   0.86613   0.95679   0.00000  Uiso   1.00
C1307  C     0.69617   0.80337   0.54235   0.00000  Uiso   1.00
C1308  C     0.98815   0.86092   0.91023   0.00000  Uiso   1.00
C1309  C     0.67796   0.80825   0.58894   0.00000  Uiso   1.00
C1310  C     0.91252   0.82784   0.90902   0.00000  Uiso   1.00
C1311  C     0.75448   0.83917   0.59110   0.00000  Uiso   1.00
C1312  C     0.89204   0.83732   0.95470   0.00000  Uiso   1.00
C1313  C     0.77474   0.83070   0.54510   0.00000  Uiso   1.00
C1314  C     0.92243   0.85538   0.97908   0.00000  Uiso   1.00
C1315  C     0.85692   0.85406   0.54693   0.00000  Uiso   1.00
C1316  C     0.74413   0.81349   0.52038   0.00000  Uiso   1.00
C1317  C     0.84234   0.82977   0.97649   0.00000  Uiso   1.00
C1318  C     0.82443   0.83844   0.52328   0.00000  Uiso   1.00
C1319  C     0.80977   0.81473   0.95263   0.00000  Uiso   1.00
C1320  C     0.90489   0.86343   0.52519   0.00000  Uiso   1.00
C1321  C     0.76165   0.80579   0.97417   0.00000  Uiso   1.00
C1322  C     0.95657   0.68725   0.76957   0.00000  Uiso   1.00
C1323  C     0.71008   0.97942   0.73031   0.00000  Uiso   1.00
C1324  C     0.95760   0.97774   0.76797   0.00000  Uiso   1.00
Cu1325 Cu    0.71355   0.83334   0.75000   0.00000  Uiso   1.00
Cu1326 Cu    0.95311   0.83333   0.75000   0.00000  Uiso   1.00
H1327  H     0.77462   0.85504   0.61083   0.00000  Uiso   1.00
H1328  H     0.80021   0.88636   0.70765   0.00000  Uiso   1.00
H1329  H     0.91682   0.88709   0.57969   0.00000  Uiso   1.00
H1330  H     0.74962   0.78267   0.91946   0.00000  Uiso   1.00
H1331  H     0.92362   0.74799   0.67304   0.00000  Uiso   1.00
H1332  H     0.78312   0.86199   0.85291   0.00000  Uiso   1.00
H1333  H     0.88825   0.68758   0.80082   0.00000  Uiso   1.00
H1334  H     0.77838   0.97909   0.69899   0.00000  Uiso   1.00
H1335  H     0.74263   0.78268   0.80965   0.00000  Uiso   1.00
H1336  H     0.92411   0.88398   0.69037   0.00000  Uiso   1.00
H1337  H     0.89280   0.81065   0.88989   0.00000  Uiso   1.00
H1338  H     0.99292   0.88050   0.97543   0.00000  Uiso   1.00
H1339  H     0.67310   0.78993   0.52334   0.00000  Uiso   1.00
H1340  H     0.84641   0.85947   0.58265   0.00000  Uiso   1.00
H1341  H     0.82030   0.80994   0.91676   0.00000  Uiso   1.00
H1342  H     0.92497   0.96032   0.78255   0.00000  Uiso   1.00
H1343  H     0.74168   0.70636   0.71735   0.00000  Uiso   1.00
H1344  H     0.86647   0.78027   0.79228   0.00000  Uiso   1.00
N1345  N     0.78403   0.83334   0.74999   0.00000  Uiso   1.00
N1346  N     0.88264   0.83332   0.75001   0.00000  Uiso   1.00
O1347  O     0.70625   0.77322   0.75000   0.00000  Uiso   1.00
O1348  O     0.73109   0.78922   0.95055   0.00000  Uiso   1.00
O1349  O     0.91874   0.82107   0.63239   0.00000  Uiso   1.00
O1350  O     0.93465   0.76365   0.58051   0.00000  Uiso   1.00
O1351  O     0.95742   0.75478   0.65718   0.00000  Uiso   1.00
O1352  O     0.70642   0.91123   0.84499   0.00000  Uiso   1.00
O1353  O     0.72903   0.90923   0.91716   0.00000  Uiso   1.00
O1354  O     0.75226   0.84706   0.86467   0.00000  Uiso   1.00
O1355  O     0.91469   0.70780   0.78986   0.00000  Uiso   1.00
O1356  O     0.75195   0.95886   0.70999   0.00000  Uiso   1.00
O1357  O     0.77574   0.77257   0.79902   0.00000  Uiso   1.00
O1358  O     0.96042   0.89345   0.75000   0.00000  Uiso   1.00
O1359  O     0.89095   0.89401   0.70082   0.00000  Uiso   1.00
O1360  O     0.96039   0.77321   0.75001   0.00000  Uiso   1.00
O1361  O     0.70628   0.89346   0.75000   0.00000  Uiso   1.00
O1362  O     0.68519   0.83334   0.81491   0.00000  Uiso   1.00
O1363  O     0.98148   0.83332   0.68509   0.00000  Uiso   1.00
O1364  O     0.93933   0.83333   0.81492   0.00000  Uiso   1.00
O1365  O     0.72733   0.83333   0.68508   0.00000  Uiso   1.00
O1366  O     0.93527   0.88076   0.54852   0.00000  Uiso   1.00
S1367  S     0.95343   0.78711   0.61440   0.00000  Uiso   1.00
S1368  S     0.71146   0.88384   0.88394   0.00000  Uiso   1.00
loop_
_geom_bond_atom_site_label_1
_geom_bond_atom_site_label_2
_geom_bond_distance
_geom_bond_site_symmetry_2
_ccdc_geom_bond_type
C1     O68     1.291   .     A
C1     C4      1.451   .     S
C1     O131    1.297   .     S
C2     H51     1.084   .     S
C2     C156    1.398   1_455 S
C2     C487    1.394   1_545 S
C3     C12     1.451   .     S
C3     C31     1.408   .     A
C3     C184    1.398   1_455 S
C4     C30     1.408   .     A
C4     C78     1.398   .     S
C5     H52     1.081   .     S
C5     N54     1.356   .     A
C5     C7      1.411   .     A
C6     C8      1.411   .     A
C6     N53     1.356   .     A
C6     H36     1.081   .     S
C7     O65     1.374   .     S
C7     N53     1.388   .     A
C8     N54     1.388   .     A
C8     O67     1.374   .     S
C9     O72     1.303   .     A
C9     C11     1.481   .     S
C9     O146    1.300   .     S
C10    O73     1.304   .     A
C10    C13     1.483   .     S
C10    O223    1.300   1_455 S
C11    C18     1.402   .     A
C11    C16     1.418   .     A
C12    O69     1.291   .     A
C12    O218    1.297   1_455 S
C13    C19     1.403   .     A
C13    C17     1.418   .     A
C14    H46     1.082   .     S
C14    C16     1.398   .     A
C14    C22     1.406   .     A
C15    H47     1.082   .     S
C15    C24     1.406   .     A
C15    C17     1.398   .     A
C16    S152    1.777   .     S
C17    S227    1.777   1_455 S
C18    H45     1.075   .     S
C18    C20     1.410   .     A
C19    C21     1.411   .     A
C19    H35     1.074   .     S
C20    C25     1.432   .     A
C20    C22     1.416   .     A
C21    C26     1.433   .     A
C21    C24     1.417   .     A
C22    C712    1.400   .     S
C23    C26     1.416   .     A
C23    C28     1.399   .     A
C23    H48     1.074   .     S
C24    C713    1.401   1_554 S
C25    C27     1.415   .     A
C25    C710    1.425   .     S
C26    C709    1.425   1_554 S
C27    C29     1.399   .     A
C27    H49     1.074   .     S
C28    O74     1.384   .     S
C28    C706    1.400   1_554 S
C29    O56     1.384   .     S
C29    C708    1.401   .     S
C30    O63     1.382   .     S
C30    C488    1.394   1_545 S
C31    O64     1.382   .     S
C31    C230    1.394   .     S
C32    H50     1.084   .     S
C32    C79     1.398   .     S
C32    C258    1.394   .     S
Cu33   O55     1.965   .     S
Cu33   O69     1.964   .     S
Cu33   N53     2.020   .     S
Cu33   O70     1.942   .     S
Cu33   O73     1.919   .     S
Cu33   Cu186   2.688   1_455 S
Cu34   O66     1.965   .     S
Cu34   N54     2.020   .     S
Cu34   O68     1.964   .     S
Cu34   O72     1.919   .     S
Cu34   O71     1.942   .     S
Cu34   Cu109   2.688   .     S
H37    O74     0.991   .     S
H38    O56     0.991   .     S
H39    O59     0.991   .     S
H40    O62     0.991   .     S
H41    O63     0.992   .     S
H42    O64     0.992   .     S
H43    O65     0.981   .     S
H44    O67     0.981   .     S
O55    C153    1.297   1_455 S
O57    S75     1.502   .     D
O58    S75     1.504   .     D
O59    S75     1.681   .     S
O60    S76     1.503   .     D
O61    S76     1.504   .     D
O62    S76     1.679   .     S
O66    C88     1.297   .     S
O70    C161    1.300   1_455 S
O71    C86     1.300   .     S
S75    C93     1.777   .     S
S76    C168    1.777   1_455 S
C77    O144    1.291   .     A
C77    C80     1.451   .     S
C77    O207    1.297   .     S
C78    H127    1.084   .     S
C78    C563    1.394   1_545 S
C79    C88     1.451   .     S
C79    C107    1.408   .     A
C80    C106    1.408   .     A
C80    C154    1.398   .     S
C81    H128    1.081   .     S
C81    N130    1.356   .     A
C81    C83     1.411   .     A
C82    C84     1.411   .     A
C82    N129    1.356   .     A
C82    H112    1.081   .     S
C83    O141    1.374   .     S
C83    N129    1.388   .     A
C84    N130    1.388   .     A
C84    O143    1.374   .     S
C85    O148    1.303   .     A
C85    C87     1.481   .     S
C85    O222    1.300   .     S
C86    O149    1.304   .     A
C86    C89     1.483   .     S
C87    C94     1.402   .     A
C87    C92     1.418   .     A
C88    O145    1.291   .     A
C89    C95     1.403   .     A
C89    C93     1.418   .     A
C90    H122    1.082   .     S
C90    C92     1.398   .     A
C90    C98     1.406   .     A
C91    H123    1.082   .     S
C91    C100    1.406   .     A
C91    C93     1.398   .     A
C92    S228    1.777   .     S
C94    H121    1.075   .     S
C94    C96     1.410   .     A
C95    C97     1.411   .     A
C95    H111    1.074   .     S
C96    C101    1.432   .     A
C96    C98     1.416   .     A
C97    C102    1.433   .     A
C97    C100    1.417   .     A
C98    C788    1.400   .     S
C99    C102    1.416   .     A
C99    C104    1.399   .     A
C99    H124    1.074   .     S
C100   C789    1.401   1_554 S
C101   C103    1.415   .     A
C101   C786    1.425   .     S
C102   C785    1.425   1_554 S
C103   C105    1.399   .     A
C103   H125    1.074   .     S
C104   O150    1.384   .     S
C104   C782    1.400   1_554 S
C105   O132    1.384   .     S
C105   C784    1.401   .     S
C106   O139    1.382   .     S
C106   C564    1.394   1_545 S
C107   O140    1.382   .     S
C107   C306    1.394   .     S
C108   H126    1.084   .     S
C108   C155    1.398   .     S
C108   C334    1.394   .     S
Cu109  O131    1.965   .     S
Cu109  O145    1.964   .     S
Cu109  N129    2.020   .     S
Cu109  O146    1.942   .     S
Cu109  O149    1.919   .     S
Cu110  O142    1.965   .     S
Cu110  N130    2.020   .     S
Cu110  O144    1.964   .     S
Cu110  O148    1.919   .     S
Cu110  O147    1.942   .     S
Cu110  Cu185   2.688   .     S
H113   O150    0.991   .     S
H114   O132    0.991   .     S
H115   O135    0.991   .     S
H116   O138    0.991   .     S
H117   O139    0.992   .     S
H118   O140    0.992   .     S
H119   O141    0.981   .     S
H120   O143    0.981   .     S
O133   S151    1.502   .     D
O134   S151    1.504   .     D
O135   S151    1.681   .     S
O136   S152    1.503   .     D
O137   S152    1.504   .     D
O138   S152    1.679   .     S
O142   C164    1.297   .     S
O147   C162    1.300   .     S
S151   C169    1.777   .     S
C153   O220    1.291   .     A
C153   C156    1.451   .     S
C153   O55     1.297   1_655 S
C154   H203    1.084   .     S
C154   C639    1.394   1_545 S
C155   C164    1.451   .     S
C155   C183    1.408   .     A
C156   C182    1.408   .     A
C156   C2      1.398   1_655 S
C157   H204    1.081   .     S
C157   N206    1.356   .     A
C157   C159    1.411   .     A
C158   C160    1.411   .     A
C158   N205    1.356   .     A
C158   H188    1.081   .     S
C159   O217    1.374   .     S
C159   N205    1.388   .     A
C160   N206    1.388   .     A
C160   O219    1.374   .     S
C161   O224    1.303   .     A
C161   C163    1.481   .     S
C161   O70     1.300   1_655 S
C162   O225    1.304   .     A
C162   C165    1.483   .     S
C163   C170    1.402   .     A
C163   C168    1.418   .     A
C164   O221    1.291   .     A
C165   C171    1.403   .     A
C165   C169    1.418   .     A
C166   H198    1.082   .     S
C166   C168    1.398   .     A
C166   C174    1.406   .     A
C167   H199    1.082   .     S
C167   C176    1.406   .     A
C167   C169    1.398   .     A
C168   S76     1.777   1_655 S
C170   H197    1.075   .     S
C170   C172    1.410   .     A
C171   C173    1.411   .     A
C171   H187    1.074   .     S
C172   C177    1.432   .     A
C172   C174    1.416   .     A
C173   C178    1.433   .     A
C173   C176    1.417   .     A
C174   C864    1.400   .     S
C175   C178    1.416   .     A
C175   C180    1.399   .     A
C175   H200    1.074   .     S
C176   C865    1.401   1_554 S
C177   C179    1.415   .     A
C177   C862    1.425   .     S
C178   C861    1.425   1_554 S
C179   C181    1.399   .     A
C179   H201    1.074   .     S
C180   O226    1.384   .     S
C180   C858    1.400   1_554 S
C181   O208    1.384   .     S
C181   C860    1.401   .     S
C182   O215    1.382   .     S
C182   C640    1.394   1_545 S
C183   O216    1.382   .     S
C183   C382    1.394   .     S
C184   H202    1.084   .     S
C184   C3      1.398   1_655 S
C184   C410    1.394   .     S
Cu185  O207    1.965   .     S
Cu185  O221    1.964   .     S
Cu185  N205    2.020   .     S
Cu185  O222    1.942   .     S
Cu185  O225    1.919   .     S
Cu186  O218    1.965   .     S
Cu186  N206    2.020   .     S
Cu186  O220    1.964   .     S
Cu186  O224    1.919   .     S
Cu186  O223    1.942   .     S
Cu186  Cu33    2.688   1_655 S
H189   O226    0.991   .     S
H190   O208    0.991   .     S
H191   O211    0.991   .     S
H192   O214    0.991   .     S
H193   O215    0.992   .     S
H194   O216    0.992   .     S
H195   O217    0.981   .     S
H196   O219    0.981   .     S
O209   S227    1.502   .     D
O210   S227    1.504   .     D
O211   S227    1.681   .     S
O212   S228    1.503   .     D
O213   S228    1.504   .     D
O214   S228    1.679   .     S
O218   C12     1.297   1_655 S
O223   C10     1.300   1_655 S
S227   C17     1.777   1_655 S
C229   O296    1.291   .     A
C229   C232    1.451   .     S
C229   O359    1.297   .     S
C230   H279    1.084   .     S
C230   C384    1.398   1_455 S
C231   C240    1.451   .     S
C231   C259    1.408   .     A
C231   C412    1.398   1_455 S
C232   C258    1.408   .     A
C232   C306    1.398   .     S
C233   H280    1.081   .     S
C233   N282    1.356   .     A
C233   C235    1.411   .     A
C234   C236    1.411   .     A
C234   N281    1.356   .     A
C234   H264    1.081   .     S
C235   O293    1.374   .     S
C235   N281    1.388   .     A
C236   N282    1.388   .     A
C236   O295    1.374   .     S
C237   O300    1.303   .     A
C237   C239    1.481   .     S
C237   O374    1.300   .     S
C238   O301    1.304   .     A
C238   C241    1.483   .     S
C238   O451    1.300   1_455 S
C239   C246    1.402   .     A
C239   C244    1.418   .     A
C240   O297    1.291   .     A
C240   O446    1.297   1_455 S
C241   C247    1.403   .     A
C241   C245    1.418   .     A
C242   H274    1.082   .     S
C242   C244    1.398   .     A
C242   C250    1.406   .     A
C243   H275    1.082   .     S
C243   C252    1.406   .     A
C243   C245    1.398   .     A
C244   S380    1.777   .     S
C245   S455    1.777   1_455 S
C246   H273    1.075   .     S
C246   C248    1.410   .     A
C247   C249    1.411   .     A
C247   H263    1.074   .     S
C248   C253    1.432   .     A
C248   C250    1.416   .     A
C249   C254    1.433   .     A
C249   C252    1.417   .     A
C250   C940    1.400   .     S
C251   C254    1.416   .     A
C251   C256    1.399   .     A
C251   H276    1.074   .     S
C252   C941    1.401   1_554 S
C253   C255    1.415   .     A
C253   C938    1.425   .     S
C254   C937    1.425   1_554 S
C255   C257    1.399   .     A
C255   H277    1.074   .     S
C256   O302    1.384   .     S
C256   C934    1.400   1_554 S
C257   O284    1.384   .     S
C257   C936    1.401   .     S
C258   O291    1.382   .     S
C259   O292    1.382   .     S
C259   C458    1.394   .     S
C260   H278    1.084   .     S
C260   C307    1.398   .     S
C260   C486    1.394   .     S
Cu261  O283    1.965   .     S
Cu261  O297    1.964   .     S
Cu261  N281    2.020   .     S
Cu261  O298    1.942   .     S
Cu261  O301    1.919   .     S
Cu261  Cu414   2.688   1_455 S
Cu262  O294    1.965   .     S
Cu262  N282    2.020   .     S
Cu262  O296    1.964   .     S
Cu262  O300    1.919   .     S
Cu262  O299    1.942   .     S
Cu262  Cu337   2.688   .     S
H265   O302    0.991   .     S
H266   O284    0.991   .     S
H267   O287    0.991   .     S
H268   O290    0.991   .     S
H269   O291    0.992   .     S
H270   O292    0.992   .     S
H271   O293    0.981   .     S
H272   O295    0.981   .     S
O283   C381    1.297   1_455 S
O285   S303    1.502   .     D
O286   S303    1.504   .     D
O287   S303    1.681   .     S
O288   S304    1.503   .     D
O289   S304    1.504   .     D
O290   S304    1.679   .     S
O294   C316    1.297   .     S
O298   C389    1.300   1_455 S
O299   C314    1.300   .     S
S303   C321    1.777   .     S
S304   C396    1.777   1_455 S
C305   O372    1.291   .     A
C305   C308    1.451   .     S
C305   O435    1.297   .     S
C306   H355    1.084   .     S
C307   C316    1.451   .     S
C307   C335    1.408   .     A
C308   C334    1.408   .     A
C308   C382    1.398   .     S
C309   H356    1.081   .     S
C309   N358    1.356   .     A
C309   C311    1.411   .     A
C310   C312    1.411   .     A
C310   N357    1.356   .     A
C310   H340    1.081   .     S
C311   O369    1.374   .     S
C311   N357    1.388   .     A
C312   N358    1.388   .     A
C312   O371    1.374   .     S
C313   O376    1.303   .     A
C313   C315    1.481   .     S
C313   O450    1.300   .     S
C314   O377    1.304   .     A
C314   C317    1.483   .     S
C315   C322    1.402   .     A
C315   C320    1.418   .     A
C316   O373    1.291   .     A
C317   C323    1.403   .     A
C317   C321    1.418   .     A
C318   H350    1.082   .     S
C318   C320    1.398   .     A
C318   C326    1.406   .     A
C319   H351    1.082   .     S
C319   C328    1.406   .     A
C319   C321    1.398   .     A
C320   S456    1.777   .     S
C322   H349    1.075   .     S
C322   C324    1.410   .     A
C323   C325    1.411   .     A
C323   H339    1.074   .     S
C324   C329    1.432   .     A
C324   C326    1.416   .     A
C325   C330    1.433   .     A
C325   C328    1.417   .     A
C326   C1016   1.400   .     S
C327   C330    1.416   .     A
C327   C332    1.399   .     A
C327   H352    1.074   .     S
C328   C1017   1.401   1_554 S
C329   C331    1.415   .     A
C329   C1014   1.425   .     S
C330   C1013   1.425   1_554 S
C331   C333    1.399   .     A
C331   H353    1.074   .     S
C332   O378    1.384   .     S
C332   C1010   1.400   1_554 S
C333   O360    1.384   .     S
C333   C1012   1.401   .     S
C334   O367    1.382   .     S
C335   O368    1.382   .     S
C335   C534    1.394   .     S
C336   H354    1.084   .     S
C336   C383    1.398   .     S
C336   C562    1.394   .     S
Cu337  O359    1.965   .     S
Cu337  O373    1.964   .     S
Cu337  N357    2.020   .     S
Cu337  O374    1.942   .     S
Cu337  O377    1.919   .     S
Cu338  O370    1.965   .     S
Cu338  N358    2.020   .     S
Cu338  O372    1.964   .     S
Cu338  O376    1.919   .     S
Cu338  O375    1.942   .     S
Cu338  Cu413   2.688   .     S
H341   O378    0.991   .     S
H342   O360    0.991   .     S
H343   O363    0.991   .     S
H344   O366    0.991   .     S
H345   O367    0.992   .     S
H346   O368    0.992   .     S
H347   O369    0.981   .     S
H348   O371    0.981   .     S
O361   S379    1.502   .     D
O362   S379    1.504   .     D
O363   S379    1.681   .     S
O364   S380    1.503   .     D
O365   S380    1.504   .     D
O366   S380    1.679   .     S
O370   C392    1.297   .     S
O375   C390    1.300   .     S
S379   C397    1.777   .     S
C381   O448    1.291   .     A
C381   C384    1.451   .     S
C381   O283    1.297   1_655 S
C382   H431    1.084   .     S
C383   C392    1.451   .     S
C383   C411    1.408   .     A
C384   C410    1.408   .     A
C384   C230    1.398   1_655 S
C385   H432    1.081   .     S
C385   N434    1.356   .     A
C385   C387    1.411   .     A
C386   C388    1.411   .     A
C386   N433    1.356   .     A
C386   H416    1.081   .     S
C387   O445    1.374   .     S
C387   N433    1.388   .     A
C388   N434    1.388   .     A
C388   O447    1.374   .     S
C389   O452    1.303   .     A
C389   C391    1.481   .     S
C389   O298    1.300   1_655 S
C390   O453    1.304   .     A
C390   C393    1.483   .     S
C391   C398    1.402   .     A
C391   C396    1.418   .     A
C392   O449    1.291   .     A
C393   C399    1.403   .     A
C393   C397    1.418   .     A
C394   H426    1.082   .     S
C394   C396    1.398   .     A
C394   C402    1.406   .     A
C395   H427    1.082   .     S
C395   C404    1.406   .     A
C395   C397    1.398   .     A
C396   S304    1.777   1_655 S
C398   H425    1.075   .     S
C398   C400    1.410   .     A
C399   C401    1.411   .     A
C399   H415    1.074   .     S
C400   C405    1.432   .     A
C400   C402    1.416   .     A
C401   C406    1.433   .     A
C401   C404    1.417   .     A
C402   C1092   1.400   .     S
C403   C406    1.416   .     A
C403   C408    1.399   .     A
C403   H428    1.074   .     S
C404   C1093   1.401   1_554 S
C405   C407    1.415   .     A
C405   C1090   1.425   .     S
C406   C1089   1.425   1_554 S
C407   C409    1.399   .     A
C407   H429    1.074   .     S
C408   O454    1.384   .     S
C408   C1086   1.400   1_554 S
C409   O436    1.384   .     S
C409   C1088   1.401   .     S
C410   O443    1.382   .     S
C411   O444    1.382   .     S
C411   C610    1.394   .     S
C412   H430    1.084   .     S
C412   C231    1.398   1_655 S
C412   C638    1.394   .     S
Cu413  O435    1.965   .     S
Cu413  O449    1.964   .     S
Cu413  N433    2.020   .     S
Cu413  O450    1.942   .     S
Cu413  O453    1.919   .     S
Cu414  O446    1.965   .     S
Cu414  N434    2.020   .     S
Cu414  O448    1.964   .     S
Cu414  O452    1.919   .     S
Cu414  O451    1.942   .     S
Cu414  Cu261   2.688   1_655 S
H417   O454    0.991   .     S
H418   O436    0.991   .     S
H419   O439    0.991   .     S
H420   O442    0.991   .     S
H421   O443    0.992   .     S
H422   O444    0.992   .     S
H423   O445    0.981   .     S
H424   O447    0.981   .     S
O437   S455    1.502   .     D
O438   S455    1.504   .     D
O439   S455    1.681   .     S
O440   S456    1.503   .     D
O441   S456    1.504   .     D
O442   S456    1.679   .     S
O446   C240    1.297   1_655 S
O451   C238    1.300   1_655 S
S455   C245    1.777   1_655 S
C457   O524    1.291   .     A
C457   C460    1.451   .     S
C457   O587    1.297   .     S
C458   H507    1.084   .     S
C458   C612    1.398   1_455 S
C459   C468    1.451   .     S
C459   C487    1.408   .     A
C459   C640    1.398   1_455 S
C460   C486    1.408   .     A
C460   C534    1.398   .     S
C461   H508    1.081   .     S
C461   N510    1.356   .     A
C461   C463    1.411   .     A
C462   C464    1.411   .     A
C462   N509    1.356   .     A
C462   H492    1.081   .     S
C463   O521    1.374   .     S
C463   N509    1.388   .     A
C464   N510    1.388   .     A
C464   O523    1.374   .     S
C465   O528    1.303   .     A
C465   C467    1.481   .     S
C465   O602    1.300   .     S
C466   O529    1.304   .     A
C466   C469    1.483   .     S
C466   O679    1.300   1_455 S
C467   C474    1.402   .     A
C467   C472    1.418   .     A
C468   O525    1.291   .     A
C468   O674    1.297   1_455 S
C469   C475    1.403   .     A
C469   C473    1.418   .     A
C470   H502    1.082   .     S
C470   C472    1.398   .     A
C470   C478    1.406   .     A
C471   H503    1.082   .     S
C471   C480    1.406   .     A
C471   C473    1.398   .     A
C472   S608    1.777   .     S
C473   S683    1.777   1_455 S
C474   H501    1.075   .     S
C474   C476    1.410   .     A
C475   C477    1.411   .     A
C475   H491    1.074   .     S
C476   C481    1.432   .     A
C476   C478    1.416   .     A
C477   C482    1.433   .     A
C477   C480    1.417   .     A
C478   C1168   1.400   .     S
C479   C482    1.416   .     A
C479   C484    1.399   .     A
C479   H504    1.074   .     S
C480   C1169   1.401   1_554 S
C481   C483    1.415   .     A
C481   C1166   1.425   .     S
C482   C1165   1.425   1_554 S
C483   C485    1.399   .     A
C483   H505    1.074   .     S
C484   O530    1.384   .     S
C484   C1162   1.400   1_554 S
C485   O512    1.384   .     S
C485   C1164   1.401   .     S
C486   O519    1.382   .     S
C487   O520    1.382   .     S
C487   C2      1.394   1_565 S
C488   H506    1.084   .     S
C488   C535    1.398   .     S
C488   C30     1.394   1_565 S
Cu489  O511    1.965   .     S
Cu489  O525    1.964   .     S
Cu489  N509    2.020   .     S
Cu489  O526    1.942   .     S
Cu489  O529    1.919   .     S
Cu489  Cu642   2.688   1_455 S
Cu490  O522    1.965   .     S
Cu490  N510    2.020   .     S
Cu490  O524    1.964   .     S
Cu490  O528    1.919   .     S
Cu490  O527    1.942   .     S
Cu490  Cu565   2.688   .     S
H493   O530    0.991   .     S
H494   O512    0.991   .     S
H495   O515    0.991   .     S
H496   O518    0.991   .     S
H497   O519    0.992   .     S
H498   O520    0.992   .     S
H499   O521    0.981   .     S
H500   O523    0.981   .     S
O511   C609    1.297   1_455 S
O513   S531    1.502   .     D
O514   S531    1.504   .     D
O515   S531    1.681   .     S
O516   S532    1.503   .     D
O517   S532    1.504   .     D
O518   S532    1.679   .     S
O522   C544    1.297   .     S
O526   C617    1.300   1_455 S
O527   C542    1.300   .     S
S531   C549    1.777   .     S
S532   C624    1.777   1_455 S
C533   O600    1.291   .     A
C533   C536    1.451   .     S
C533   O663    1.297   .     S
C534   H583    1.084   .     S
C535   C544    1.451   .     S
C535   C563    1.408   .     A
C536   C562    1.408   .     A
C536   C610    1.398   .     S
C537   H584    1.081   .     S
C537   N586    1.356   .     A
C537   C539    1.411   .     A
C538   C540    1.411   .     A
C538   N585    1.356   .     A
C538   H568    1.081   .     S
C539   O597    1.374   .     S
C539   N585    1.388   .     A
C540   N586    1.388   .     A
C540   O599    1.374   .     S
C541   O604    1.303   .     A
C541   C543    1.481   .     S
C541   O678    1.300   .     S
C542   O605    1.304   .     A
C542   C545    1.483   .     S
C543   C550    1.402   .     A
C543   C548    1.418   .     A
C544   O601    1.291   .     A
C545   C551    1.403   .     A
C545   C549    1.418   .     A
C546   H578    1.082   .     S
C546   C548    1.398   .     A
C546   C554    1.406   .     A
C547   H579    1.082   .     S
C547   C556    1.406   .     A
C547   C549    1.398   .     A
C548   S684    1.777   .     S
C550   H577    1.075   .     S
C550   C552    1.410   .     A
C551   C553    1.411   .     A
C551   H567    1.074   .     S
C552   C557    1.432   .     A
C552   C554    1.416   .     A
C553   C558    1.433   .     A
C553   C556    1.417   .     A
C554   C1244   1.400   .     S
C555   C558    1.416   .     A
C555   C560    1.399   .     A
C555   H580    1.074   .     S
C556   C1245   1.401   1_554 S
C557   C559    1.415   .     A
C557   C1242   1.425   .     S
C558   C1241   1.425   1_554 S
C559   C561    1.399   .     A
C559   H581    1.074   .     S
C560   O606    1.384   .     S
C560   C1238   1.400   1_554 S
C561   O588    1.384   .     S
C561   C1240   1.401   .     S
C562   O595    1.382   .     S
C563   O596    1.382   .     S
C563   C78     1.394   1_565 S
C564   H582    1.084   .     S
C564   C611    1.398   .     S
C564   C106    1.394   1_565 S
Cu565  O587    1.965   .     S
Cu565  O601    1.964   .     S
Cu565  N585    2.020   .     S
Cu565  O602    1.942   .     S
Cu565  O605    1.919   .     S
Cu566  O598    1.965   .     S
Cu566  N586    2.020   .     S
Cu566  O600    1.964   .     S
Cu566  O604    1.919   .     S
Cu566  O603    1.942   .     S
Cu566  Cu641   2.688   .     S
H569   O606    0.991   .     S
H570   O588    0.991   .     S
H571   O591    0.991   .     S
H572   O594    0.991   .     S
H573   O595    0.992   .     S
H574   O596    0.992   .     S
H575   O597    0.981   .     S
H576   O599    0.981   .     S
O589   S607    1.502   .     D
O590   S607    1.504   .     D
O591   S607    1.681   .     S
O592   S608    1.503   .     D
O593   S608    1.504   .     D
O594   S608    1.679   .     S
O598   C620    1.297   .     S
O603   C618    1.300   .     S
S607   C625    1.777   .     S
C609   O676    1.291   .     A
C609   C612    1.451   .     S
C609   O511    1.297   1_655 S
C610   H659    1.084   .     S
C611   C620    1.451   .     S
C611   C639    1.408   .     A
C612   C638    1.408   .     A
C612   C458    1.398   1_655 S
C613   H660    1.081   .     S
C613   N662    1.356   .     A
C613   C615    1.411   .     A
C614   C616    1.411   .     A
C614   N661    1.356   .     A
C614   H644    1.081   .     S
C615   O673    1.374   .     S
C615   N661    1.388   .     A
C616   N662    1.388   .     A
C616   O675    1.374   .     S
C617   O680    1.303   .     A
C617   C619    1.481   .     S
C617   O526    1.300   1_655 S
C618   O681    1.304   .     A
C618   C621    1.483   .     S
C619   C626    1.402   .     A
C619   C624    1.418   .     A
C620   O677    1.291   .     A
C621   C627    1.403   .     A
C621   C625    1.418   .     A
C622   H654    1.082   .     S
C622   C624    1.398   .     A
C622   C630    1.406   .     A
C623   H655    1.082   .     S
C623   C632    1.406   .     A
C623   C625    1.398   .     A
C624   S532    1.777   1_655 S
C626   H653    1.075   .     S
C626   C628    1.410   .     A
C627   C629    1.411   .     A
C627   H643    1.074   .     S
C628   C633    1.432   .     A
C628   C630    1.416   .     A
C629   C634    1.433   .     A
C629   C632    1.417   .     A
C630   C1320   1.400   .     S
C631   C634    1.416   .     A
C631   C636    1.399   .     A
C631   H656    1.074   .     S
C632   C1321   1.401   1_554 S
C633   C635    1.415   .     A
C633   C1318   1.425   .     S
C634   C1317   1.425   1_554 S
C635   C637    1.399   .     A
C635   H657    1.074   .     S
C636   O682    1.384   .     S
C636   C1314   1.400   1_554 S
C637   O664    1.384   .     S
C637   C1316   1.401   .     S
C638   O671    1.382   .     S
C639   O672    1.382   .     S
C639   C154    1.394   1_565 S
C640   H658    1.084   .     S
C640   C459    1.398   1_655 S
C640   C182    1.394   1_565 S
Cu641  O663    1.965   .     S
Cu641  O677    1.964   .     S
Cu641  N661    2.020   .     S
Cu641  O678    1.942   .     S
Cu641  O681    1.919   .     S
Cu642  O674    1.965   .     S
Cu642  N662    2.020   .     S
Cu642  O676    1.964   .     S
Cu642  O680    1.919   .     S
Cu642  O679    1.942   .     S
Cu642  Cu489   2.688   1_655 S
H645   O682    0.991   .     S
H646   O664    0.991   .     S
H647   O667    0.991   .     S
H648   O670    0.991   .     S
H649   O671    0.992   .     S
H650   O672    0.992   .     S
H651   O673    0.981   .     S
H652   O675    0.981   .     S
O665   S683    1.502   .     D
O666   S683    1.504   .     D
O667   S683    1.681   .     S
O668   S684    1.503   .     D
O669   S684    1.504   .     D
O670   S684    1.679   .     S
O674   C468    1.297   1_655 S
O679   C466    1.300   1_655 S
S683   C473    1.777   1_655 S
C685   O752    1.291   .     A
C685   C688    1.451   .     S
C685   O815    1.297   .     S
C686   H735    1.084   .     S
C686   C840    1.398   1_455 S
C686   C1171   1.394   1_545 S
C687   C696    1.451   .     S
C687   C715    1.408   .     A
C687   C868    1.398   1_455 S
C688   C714    1.408   .     A
C688   C762    1.398   .     S
C689   H736    1.081   .     S
C689   N738    1.356   .     A
C689   C691    1.411   .     A
C690   C692    1.411   .     A
C690   N737    1.356   .     A
C690   H720    1.081   .     S
C691   O749    1.374   .     S
C691   N737    1.388   .     A
C692   N738    1.388   .     A
C692   O751    1.374   .     S
C693   O756    1.303   .     A
C693   C695    1.481   .     S
C693   O830    1.300   .     S
C694   O757    1.304   .     A
C694   C697    1.483   .     S
C694   O907    1.300   1_455 S
C695   C702    1.402   .     A
C695   C700    1.418   .     A
C696   O753    1.291   .     A
C696   O902    1.297   1_455 S
C697   C703    1.403   .     A
C697   C701    1.418   .     A
C698   H730    1.082   .     S
C698   C700    1.398   .     A
C698   C706    1.406   .     A
C699   H731    1.082   .     S
C699   C708    1.406   .     A
C699   C701    1.398   .     A
C700   S836    1.777   .     S
C701   S911    1.777   1_455 S
C702   H729    1.075   .     S
C702   C704    1.410   .     A
C703   C705    1.411   .     A
C703   H719    1.074   .     S
C704   C709    1.432   .     A
C704   C706    1.416   .     A
C705   C710    1.433   .     A
C705   C708    1.417   .     A
C706   C28     1.400   1_556 S
C707   C710    1.416   .     A
C707   C712    1.399   .     A
C707   H732    1.074   .     S
C709   C711    1.415   .     A
C709   C26     1.425   1_556 S
C711   C713    1.399   .     A
C711   H733    1.074   .     S
C712   O758    1.384   .     S
C713   O740    1.384   .     S
C713   C24     1.401   1_556 S
C714   O747    1.382   .     S
C714   C1172   1.394   1_545 S
C715   O748    1.382   .     S
C715   C914    1.394   .     S
C716   H734    1.084   .     S
C716   C763    1.398   .     S
C716   C942    1.394   .     S
Cu717  O739    1.965   .     S
Cu717  O753    1.964   .     S
Cu717  N737    2.020   .     S
Cu717  O754    1.942   .     S
Cu717  O757    1.919   .     S
Cu717  Cu870   2.688   1_455 S
Cu718  O750    1.965   .     S
Cu718  N738    2.020   .     S
Cu718  O752    1.964   .     S
Cu718  O756    1.919   .     S
Cu718  O755    1.942   .     S
Cu718  Cu793   2.688   .     S
H721   O758    0.991   .     S
H722   O740    0.991   .     S
H723   O743    0.991   .     S
H724   O746    0.991   .     S
H725   O747    0.992   .     S
H726   O748    0.992   .     S
H727   O749    0.981   .     S
H728   O751    0.981   .     S
O739   C837    1.297   1_455 S
O741   S759    1.502   .     D
O742   S759    1.504   .     D
O743   S759    1.681   .     S
O744   S760    1.503   .     D
O745   S760    1.504   .     D
O746   S760    1.679   .     S
O750   C772    1.297   .     S
O754   C845    1.300   1_455 S
O755   C770    1.300   .     S
S759   C777    1.777   .     S
S760   C852    1.777   1_455 S
C761   O828    1.291   .     A
C761   C764    1.451   .     S
C761   O891    1.297   .     S
C762   H811    1.084   .     S
C762   C1247   1.394   1_545 S
C763   C772    1.451   .     S
C763   C791    1.408   .     A
C764   C790    1.408   .     A
C764   C838    1.398   .     S
C765   H812    1.081   .     S
C765   N814    1.356   .     A
C765   C767    1.411   .     A
C766   C768    1.411   .     A
C766   N813    1.356   .     A
C766   H796    1.081   .     S
C767   O825    1.374   .     S
C767   N813    1.388   .     A
C768   N814    1.388   .     A
C768   O827    1.374   .     S
C769   O832    1.303   .     A
C769   C771    1.481   .     S
C769   O906    1.300   .     S
C770   O833    1.304   .     A
C770   C773    1.483   .     S
C771   C778    1.402   .     A
C771   C776    1.418   .     A
C772   O829    1.291   .     A
C773   C779    1.403   .     A
C773   C777    1.418   .     A
C774   H806    1.082   .     S
C774   C776    1.398   .     A
C774   C782    1.406   .     A
C775   H807    1.082   .     S
C775   C784    1.406   .     A
C775   C777    1.398   .     A
C776   S912    1.777   .     S
C778   H805    1.075   .     S
C778   C780    1.410   .     A
C779   C781    1.411   .     A
C779   H795    1.074   .     S
C780   C785    1.432   .     A
C780   C782    1.416   .     A
C781   C786    1.433   .     A
C781   C784    1.417   .     A
C782   C104    1.400   1_556 S
C783   C786    1.416   .     A
C783   C788    1.399   .     A
C783   H808    1.074   .     S
C785   C787    1.415   .     A
C785   C102    1.425   1_556 S
C787   C789    1.399   .     A
C787   H809    1.074   .     S
C788   O834    1.384   .     S
C789   O816    1.384   .     S
C789   C100    1.401   1_556 S
C790   O823    1.382   .     S
C790   C1248   1.394   1_545 S
C791   O824    1.382   .     S
C791   C990    1.394   .     S
C792   H810    1.084   .     S
C792   C839    1.398   .     S
C792   C1018   1.394   .     S
Cu793  O815    1.965   .     S
Cu793  O829    1.964   .     S
Cu793  N813    2.020   .     S
Cu793  O830    1.942   .     S
Cu793  O833    1.919   .     S
Cu794  O826    1.965   .     S
Cu794  N814    2.020   .     S
Cu794  O828    1.964   .     S
Cu794  O832    1.919   .     S
Cu794  O831    1.942   .     S
Cu794  Cu869   2.688   .     S
H797   O834    0.991   .     S
H798   O816    0.991   .     S
H799   O819    0.991   .     S
H800   O822    0.991   .     S
H801   O823    0.992   .     S
H802   O824    0.992   .     S
H803   O825    0.981   .     S
H804   O827    0.981   .     S
O817   S835    1.502   .     D
O818   S835    1.504   .     D
O819   S835    1.681   .     S
O820   S836    1.503   .     D
O821   S836    1.504   .     D
O822   S836    1.679   .     S
O826   C848    1.297   .     S
O831   C846    1.300   .     S
S835   C853    1.777   .     S
C837   O904    1.291   .     A
C837   C840    1.451   .     S
C837   O739    1.297   1_655 S
C838   H887    1.084   .     S
C838   C1323   1.394   1_545 S
C839   C848    1.451   .     S
C839   C867    1.408   .     A
C840   C866    1.408   .     A
C840   C686    1.398   1_655 S
C841   H888    1.081   .     S
C841   N890    1.356   .     A
C841   C843    1.411   .     A
C842   C844    1.411   .     A
C842   N889    1.356   .     A
C842   H872    1.081   .     S
C843   O901    1.374   .     S
C843   N889    1.388   .     A
C844   N890    1.388   .     A
C844   O903    1.374   .     S
C845   O908    1.303   .     A
C845   C847    1.481   .     S
C845   O754    1.300   1_655 S
C846   O909    1.304   .     A
C846   C849    1.483   .     S
C847   C854    1.402   .     A
C847   C852    1.418   .     A
C848   O905    1.291   .     A
C849   C855    1.403   .     A
C849   C853    1.418   .     A
C850   H882    1.082   .     S
C850   C852    1.398   .     A
C850   C858    1.406   .     A
C851   H883    1.082   .     S
C851   C860    1.406   .     A
C851   C853    1.398   .     A
C852   S760    1.777   1_655 S
C854   H881    1.075   .     S
C854   C856    1.410   .     A
C855   C857    1.411   .     A
C855   H871    1.074   .     S
C856   C861    1.432   .     A
C856   C858    1.416   .     A
C857   C862    1.433   .     A
C857   C860    1.417   .     A
C858   C180    1.400   1_556 S
C859   C862    1.416   .     A
C859   C864    1.399   .     A
C859   H884    1.074   .     S
C861   C863    1.415   .     A
C861   C178    1.425   1_556 S
C863   C865    1.399   .     A
C863   H885    1.074   .     S
C864   O910    1.384   .     S
C865   O892    1.384   .     S
C865   C176    1.401   1_556 S
C866   O899    1.382   .     S
C866   C1324   1.394   1_545 S
C867   O900    1.382   .     S
C867   C1066   1.394   .     S
C868   H886    1.084   .     S
C868   C687    1.398   1_655 S
C868   C1094   1.394   .     S
Cu869  O891    1.965   .     S
Cu869  O905    1.964   .     S
Cu869  N889    2.020   .     S
Cu869  O906    1.942   .     S
Cu869  O909    1.919   .     S
Cu870  O902    1.965   .     S
Cu870  N890    2.020   .     S
Cu870  O904    1.964   .     S
Cu870  O908    1.919   .     S
Cu870  O907    1.942   .     S
Cu870  Cu717   2.688   1_655 S
H873   O910    0.991   .     S
H874   O892    0.991   .     S
H875   O895    0.991   .     S
H876   O898    0.991   .     S
H877   O899    0.992   .     S
H878   O900    0.992   .     S
H879   O901    0.981   .     S
H880   O903    0.981   .     S
O893   S911    1.502   .     D
O894   S911    1.504   .     D
O895   S911    1.681   .     S
O896   S912    1.503   .     D
O897   S912    1.504   .     D
O898   S912    1.679   .     S
O902   C696    1.297   1_655 S
O907   C694    1.300   1_655 S
S911   C701    1.777   1_655 S
C913   O980    1.291   .     A
C913   C916    1.451   .     S
C913   O1043   1.297   .     S
C914   H963    1.084   .     S
C914   C1068   1.398   1_455 S
C915   C924    1.451   .     S
C915   C943    1.408   .     A
C915   C1096   1.398   1_455 S
C916   C942    1.408   .     A
C916   C990    1.398   .     S
C917   H964    1.081   .     S
C917   N966    1.356   .     A
C917   C919    1.411   .     A
C918   C920    1.411   .     A
C918   N965    1.356   .     A
C918   H948    1.081   .     S
C919   O977    1.374   .     S
C919   N965    1.388   .     A
C920   N966    1.388   .     A
C920   O979    1.374   .     S
C921   O984    1.303   .     A
C921   C923    1.481   .     S
C921   O1058   1.300   .     S
C922   O985    1.304   .     A
C922   C925    1.483   .     S
C922   O1135   1.300   1_455 S
C923   C930    1.402   .     A
C923   C928    1.418   .     A
C924   O981    1.291   .     A
C924   O1130   1.297   1_455 S
C925   C931    1.403   .     A
C925   C929    1.418   .     A
C926   H958    1.082   .     S
C926   C928    1.398   .     A
C926   C934    1.406   .     A
C927   H959    1.082   .     S
C927   C936    1.406   .     A
C927   C929    1.398   .     A
C928   S1064   1.777   .     S
C929   S1139   1.777   1_455 S
C930   H957    1.075   .     S
C930   C932    1.410   .     A
C931   C933    1.411   .     A
C931   H947    1.074   .     S
C932   C937    1.432   .     A
C932   C934    1.416   .     A
C933   C938    1.433   .     A
C933   C936    1.417   .     A
C934   C256    1.400   1_556 S
C935   C938    1.416   .     A
C935   C940    1.399   .     A
C935   H960    1.074   .     S
C937   C939    1.415   .     A
C937   C254    1.425   1_556 S
C939   C941    1.399   .     A
C939   H961    1.074   .     S
C940   O986    1.384   .     S
C941   O968    1.384   .     S
C941   C252    1.401   1_556 S
C942   O975    1.382   .     S
C943   O976    1.382   .     S
C943   C1142   1.394   .     S
C944   H962    1.084   .     S
C944   C991    1.398   .     S
C944   C1170   1.394   .     S
Cu945  O967    1.965   .     S
Cu945  O981    1.964   .     S
Cu945  N965    2.020   .     S
Cu945  O982    1.942   .     S
Cu945  O985    1.919   .     S
Cu945  Cu1098  2.688   1_455 S
Cu946  O978    1.965   .     S
Cu946  N966    2.020   .     S
Cu946  O980    1.964   .     S
Cu946  O984    1.919   .     S
Cu946  O983    1.942   .     S
Cu946  Cu1021  2.688   .     S
H949   O986    0.991   .     S
H950   O968    0.991   .     S
H951   O971    0.991   .     S
H952   O974    0.991   .     S
H953   O975    0.992   .     S
H954   O976    0.992   .     S
H955   O977    0.981   .     S
H956   O979    0.981   .     S
O967   C1065   1.297   1_455 S
O969   S987    1.502   .     D
O970   S987    1.504   .     D
O971   S987    1.681   .     S
O972   S988    1.503   .     D
O973   S988    1.504   .     D
O974   S988    1.679   .     S
O978   C1000   1.297   .     S
O982   C1073   1.300   1_455 S
O983   C998    1.300   .     S
S987   C1005   1.777   .     S
S988   C1080   1.777   1_455 S
C989   O1056   1.291   .     A
C989   C992    1.451   .     S
C989   O1119   1.297   .     S
C990   H1039   1.084   .     S
C991   C1000   1.451   .     S
C991   C1019   1.408   .     A
C992   C1018   1.408   .     A
C992   C1066   1.398   .     S
C993   H1040   1.081   .     S
C993   N1042   1.356   .     A
C993   C995    1.411   .     A
C994   C996    1.411   .     A
C994   N1041   1.356   .     A
C994   H1024   1.081   .     S
C995   O1053   1.374   .     S
C995   N1041   1.388   .     A
C996   N1042   1.388   .     A
C996   O1055   1.374   .     S
C997   O1060   1.303   .     A
C997   C999    1.481   .     S
C997   O1134   1.300   .     S
C998   O1061   1.304   .     A
C998   C1001   1.483   .     S
C999   C1006   1.402   .     A
C999   C1004   1.418   .     A
C1000  O1057   1.291   .     A
C1001  C1007   1.403   .     A
C1001  C1005   1.418   .     A
C1002  H1034   1.082   .     S
C1002  C1004   1.398   .     A
C1002  C1010   1.406   .     A
C1003  H1035   1.082   .     S
C1003  C1012   1.406   .     A
C1003  C1005   1.398   .     A
C1004  S1140   1.777   .     S
C1006  H1033   1.075   .     S
C1006  C1008   1.410   .     A
C1007  C1009   1.411   .     A
C1007  H1023   1.074   .     S
C1008  C1013   1.432   .     A
C1008  C1010   1.416   .     A
C1009  C1014   1.433   .     A
C1009  C1012   1.417   .     A
C1010  C332    1.400   1_556 S
C1011  C1014   1.416   .     A
C1011  C1016   1.399   .     A
C1011  H1036   1.074   .     S
C1013  C1015   1.415   .     A
C1013  C330    1.425   1_556 S
C1015  C1017   1.399   .     A
C1015  H1037   1.074   .     S
C1016  O1062   1.384   .     S
C1017  O1044   1.384   .     S
C1017  C328    1.401   1_556 S
C1018  O1051   1.382   .     S
C1019  O1052   1.382   .     S
C1019  C1218   1.394   .     S
C1020  H1038   1.084   .     S
C1020  C1067   1.398   .     S
C1020  C1246   1.394   .     S
Cu1021 O1043   1.965   .     S
Cu1021 O1057   1.964   .     S
Cu1021 N1041   2.020   .     S
Cu1021 O1058   1.942   .     S
Cu1021 O1061   1.919   .     S
Cu1022 O1054   1.965   .     S
Cu1022 N1042   2.020   .     S
Cu1022 O1056   1.964   .     S
Cu1022 O1060   1.919   .     S
Cu1022 O1059   1.942   .     S
Cu1022 Cu1097  2.688   .     S
H1025  O1062   0.991   .     S
H1026  O1044   0.991   .     S
H1027  O1047   0.991   .     S
H1028  O1050   0.991   .     S
H1029  O1051   0.992   .     S
H1030  O1052   0.992   .     S
H1031  O1053   0.981   .     S
H1032  O1055   0.981   .     S
O1045  S1063   1.502   .     D
O1046  S1063   1.504   .     D
O1047  S1063   1.681   .     S
O1048  S1064   1.503   .     D
O1049  S1064   1.504   .     D
O1050  S1064   1.679   .     S
O1054  C1076   1.297   .     S
O1059  C1074   1.300   .     S
S1063  C1081   1.777   .     S
C1065  O1132   1.291   .     A
C1065  C1068   1.451   .     S
C1065  O967    1.297   1_655 S
C1066  H1115   1.084   .     S
C1067  C1076   1.451   .     S
C1067  C1095   1.408   .     A
C1068  C1094   1.408   .     A
C1068  C914    1.398   1_655 S
C1069  H1116   1.081   .     S
C1069  N1118   1.356   .     A
C1069  C1071   1.411   .     A
C1070  C1072   1.411   .     A
C1070  N1117   1.356   .     A
C1070  H1100   1.081   .     S
C1071  O1129   1.374   .     S
C1071  N1117   1.388   .     A
C1072  N1118   1.388   .     A
C1072  O1131   1.374   .     S
C1073  O1136   1.303   .     A
C1073  C1075   1.481   .     S
C1073  O982    1.300   1_655 S
C1074  O1137   1.304   .     A
C1074  C1077   1.483   .     S
C1075  C1082   1.402   .     A
C1075  C1080   1.418   .     A
C1076  O1133   1.291   .     A
C1077  C1083   1.403   .     A
C1077  C1081   1.418   .     A
C1078  H1110   1.082   .     S
C1078  C1080   1.398   .     A
C1078  C1086   1.406   .     A
C1079  H1111   1.082   .     S
C1079  C1088   1.406   .     A
C1079  C1081   1.398   .     A
C1080  S988    1.777   1_655 S
C1082  H1109   1.075   .     S
C1082  C1084   1.410   .     A
C1083  C1085   1.411   .     A
C1083  H1099   1.074   .     S
C1084  C1089   1.432   .     A
C1084  C1086   1.416   .     A
C1085  C1090   1.433   .     A
C1085  C1088   1.417   .     A
C1086  C408    1.400   1_556 S
C1087  C1090   1.416   .     A
C1087  C1092   1.399   .     A
C1087  H1112   1.074   .     S
C1089  C1091   1.415   .     A
C1089  C406    1.425   1_556 S
C1091  C1093   1.399   .     A
C1091  H1113   1.074   .     S
C1092  O1138   1.384   .     S
C1093  O1120   1.384   .     S
C1093  C404    1.401   1_556 S
C1094  O1127   1.382   .     S
C1095  O1128   1.382   .     S
C1095  C1294   1.394   .     S
C1096  H1114   1.084   .     S
C1096  C915    1.398   1_655 S
C1096  C1322   1.394   .     S
Cu1097 O1119   1.965   .     S
Cu1097 O1133   1.964   .     S
Cu1097 N1117   2.020   .     S
Cu1097 O1134   1.942   .     S
Cu1097 O1137   1.919   .     S
Cu1098 O1130   1.965   .     S
Cu1098 N1118   2.020   .     S
Cu1098 O1132   1.964   .     S
Cu1098 O1136   1.919   .     S
Cu1098 O1135   1.942   .     S
Cu1098 Cu945   2.688   1_655 S
H1101  O1138   0.991   .     S
H1102  O1120   0.991   .     S
H1103  O1123   0.991   .     S
H1104  O1126   0.991   .     S
H1105  O1127   0.992   .     S
H1106  O1128   0.992   .     S
H1107  O1129   0.981   .     S
H1108  O1131   0.981   .     S
O1121  S1139   1.502   .     D
O1122  S1139   1.504   .     D
O1123  S1139   1.681   .     S
O1124  S1140   1.503   .     D
O1125  S1140   1.504   .     D
O1126  S1140   1.679   .     S
O1130  C924    1.297   1_655 S
O1135  C922    1.300   1_655 S
S1139  C929    1.777   1_655 S
C1141  O1208   1.291   .     A
C1141  C1144   1.451   .     S
C1141  O1271   1.297   .     S
C1142  H1191   1.084   .     S
C1142  C1296   1.398   1_455 S
C1143  C1152   1.451   .     S
C1143  C1171   1.408   .     A
C1143  C1324   1.398   1_455 S
C1144  C1170   1.408   .     A
C1144  C1218   1.398   .     S
C1145  H1192   1.081   .     S
C1145  N1194   1.356   .     A
C1145  C1147   1.411   .     A
C1146  C1148   1.411   .     A
C1146  N1193   1.356   .     A
C1146  H1176   1.081   .     S
C1147  O1205   1.374   .     S
C1147  N1193   1.388   .     A
C1148  N1194   1.388   .     A
C1148  O1207   1.374   .     S
C1149  O1212   1.303   .     A
C1149  C1151   1.481   .     S
C1149  O1286   1.300   .     S
C1150  O1213   1.304   .     A
C1150  C1153   1.483   .     S
C1150  O1363   1.300   1_455 S
C1151  C1158   1.402   .     A
C1151  C1156   1.418   .     A
C1152  O1209   1.291   .     A
C1152  O1358   1.297   1_455 S
C1153  C1159   1.403   .     A
C1153  C1157   1.418   .     A
C1154  H1186   1.082   .     S
C1154  C1156   1.398   .     A
C1154  C1162   1.406   .     A
C1155  H1187   1.082   .     S
C1155  C1164   1.406   .     A
C1155  C1157   1.398   .     A
C1156  S1292   1.777   .     S
C1157  S1367   1.777   1_455 S
C1158  H1185   1.075   .     S
C1158  C1160   1.410   .     A
C1159  C1161   1.411   .     A
C1159  H1175   1.074   .     S
C1160  C1165   1.432   .     A
C1160  C1162   1.416   .     A
C1161  C1166   1.433   .     A
C1161  C1164   1.417   .     A
C1162  C484    1.400   1_556 S
C1163  C1166   1.416   .     A
C1163  C1168   1.399   .     A
C1163  H1188   1.074   .     S
C1165  C1167   1.415   .     A
C1165  C482    1.425   1_556 S
C1167  C1169   1.399   .     A
C1167  H1189   1.074   .     S
C1168  O1214   1.384   .     S
C1169  O1196   1.384   .     S
C1169  C480    1.401   1_556 S
C1170  O1203   1.382   .     S
C1171  O1204   1.382   .     S
C1171  C686    1.394   1_565 S
C1172  H1190   1.084   .     S
C1172  C1219   1.398   .     S
C1172  C714    1.394   1_565 S
Cu1173 O1195   1.965   .     S
Cu1173 O1209   1.964   .     S
Cu1173 N1193   2.020   .     S
Cu1173 O1210   1.942   .     S
Cu1173 O1213   1.919   .     S
Cu1173 Cu1326  2.688   1_455 S
Cu1174 O1206   1.965   .     S
Cu1174 N1194   2.020   .     S
Cu1174 O1208   1.964   .     S
Cu1174 O1212   1.919   .     S
Cu1174 O1211   1.942   .     S
Cu1174 Cu1249  2.688   .     S
H1177  O1214   0.991   .     S
H1178  O1196   0.991   .     S
H1179  O1199   0.991   .     S
H1180  O1202   0.991   .     S
H1181  O1203   0.992   .     S
H1182  O1204   0.992   .     S
H1183  O1205   0.981   .     S
H1184  O1207   0.981   .     S
O1195  C1293   1.297   1_455 S
O1197  S1215   1.502   .     D
O1198  S1215   1.504   .     D
O1199  S1215   1.681   .     S
O1200  S1216   1.503   .     D
O1201  S1216   1.504   .     D
O1202  S1216   1.679   .     S
O1206  C1228   1.297   .     S
O1210  C1301   1.300   1_455 S
O1211  C1226   1.300   .     S
S1215  C1233   1.777   .     S
S1216  C1308   1.777   1_455 S
C1217  O1284   1.291   .     A
C1217  C1220   1.451   .     S
C1217  O1347   1.297   .     S
C1218  H1267   1.084   .     S
C1219  C1228   1.451   .     S
C1219  C1247   1.408   .     A
C1220  C1246   1.408   .     A
C1220  C1294   1.398   .     S
C1221  H1268   1.081   .     S
C1221  N1270   1.356   .     A
C1221  C1223   1.411   .     A
C1222  C1224   1.411   .     A
C1222  N1269   1.356   .     A
C1222  H1252   1.081   .     S
C1223  O1281   1.374   .     S
C1223  N1269   1.388   .     A
C1224  N1270   1.388   .     A
C1224  O1283   1.374   .     S
C1225  O1288   1.303   .     A
C1225  C1227   1.481   .     S
C1225  O1362   1.300   .     S
C1226  O1289   1.304   .     A
C1226  C1229   1.483   .     S
C1227  C1234   1.402   .     A
C1227  C1232   1.418   .     A
C1228  O1285   1.291   .     A
C1229  C1235   1.403   .     A
C1229  C1233   1.418   .     A
C1230  H1262   1.082   .     S
C1230  C1232   1.398   .     A
C1230  C1238   1.406   .     A
C1231  H1263   1.082   .     S
C1231  C1240   1.406   .     A
C1231  C1233   1.398   .     A
C1232  S1368   1.777   .     S
C1234  H1261   1.075   .     S
C1234  C1236   1.410   .     A
C1235  C1237   1.411   .     A
C1235  H1251   1.074   .     S
C1236  C1241   1.432   .     A
C1236  C1238   1.416   .     A
C1237  C1242   1.433   .     A
C1237  C1240   1.417   .     A
C1238  C560    1.400   1_556 S
C1239  C1242   1.416   .     A
C1239  C1244   1.399   .     A
C1239  H1264   1.074   .     S
C1241  C1243   1.415   .     A
C1241  C558    1.425   1_556 S
C1243  C1245   1.399   .     A
C1243  H1265   1.074   .     S
C1244  O1290   1.384   .     S
C1245  O1272   1.384   .     S
C1245  C556    1.401   1_556 S
C1246  O1279   1.382   .     S
C1247  O1280   1.382   .     S
C1247  C762    1.394   1_565 S
C1248  H1266   1.084   .     S
C1248  C1295   1.398   .     S
C1248  C790    1.394   1_565 S
Cu1249 O1271   1.965   .     S
Cu1249 O1285   1.964   .     S
Cu1249 N1269   2.020   .     S
Cu1249 O1286   1.942   .     S
Cu1249 O1289   1.919   .     S
Cu1250 O1282   1.965   .     S
Cu1250 N1270   2.020   .     S
Cu1250 O1284   1.964   .     S
Cu1250 O1288   1.919   .     S
Cu1250 O1287   1.942   .     S
Cu1250 Cu1325  2.688   .     S
H1253  O1290   0.991   .     S
H1254  O1272   0.991   .     S
H1255  O1275   0.991   .     S
H1256  O1278   0.991   .     S
H1257  O1279   0.992   .     S
H1258  O1280   0.992   .     S
H1259  O1281   0.981   .     S
H1260  O1283   0.981   .     S
O1273  S1291   1.502   .     D
O1274  S1291   1.504   .     D
O1275  S1291   1.681   .     S
O1276  S1292   1.503   .     D
O1277  S1292   1.504   .     D
O1278  S1292   1.679   .     S
O1282  C1304   1.297   .     S
O1287  C1302   1.300   .     S
S1291  C1309   1.777   .     S
C1293  O1360   1.291   .     A
C1293  C1296   1.451   .     S
C1293  O1195   1.297   1_655 S
C1294  H1343   1.084   .     S
C1295  C1304   1.451   .     S
C1295  C1323   1.408   .     A
C1296  C1322   1.408   .     A
C1296  C1142   1.398   1_655 S
C1297  H1344   1.081   .     S
C1297  N1346   1.356   .     A
C1297  C1299   1.411   .     A
C1298  C1300   1.411   .     A
C1298  N1345   1.356   .     A
C1298  H1328   1.081   .     S
C1299  O1357   1.374   .     S
C1299  N1345   1.388   .     A
C1300  N1346   1.388   .     A
C1300  O1359   1.374   .     S
C1301  O1364   1.303   .     A
C1301  C1303   1.481   .     S
C1301  O1210   1.300   1_655 S
C1302  O1365   1.304   .     A
C1302  C1305   1.483   .     S
C1303  C1310   1.402   .     A
C1303  C1308   1.418   .     A
C1304  O1361   1.291   .     A
C1305  C1311   1.403   .     A
C1305  C1309   1.418   .     A
C1306  H1338   1.082   .     S
C1306  C1308   1.398   .     A
C1306  C1314   1.406   .     A
C1307  H1339   1.082   .     S
C1307  C1316   1.406   .     A
C1307  C1309   1.398   .     A
C1308  S1216   1.777   1_655 S
C1310  H1337   1.075   .     S
C1310  C1312   1.410   .     A
C1311  C1313   1.411   .     A
C1311  H1327   1.074   .     S
C1312  C1317   1.432   .     A
C1312  C1314   1.416   .     A
C1313  C1318   1.433   .     A
C1313  C1316   1.417   .     A
C1314  C636    1.400   1_556 S
C1315  C1318   1.416   .     A
C1315  C1320   1.399   .     A
C1315  H1340   1.074   .     S
C1317  C1319   1.415   .     A
C1317  C634    1.425   1_556 S
C1319  C1321   1.399   .     A
C1319  H1341   1.074   .     S
C1320  O1366   1.384   .     S
C1321  O1348   1.384   .     S
C1321  C632    1.401   1_556 S
C1322  O1355   1.382   .     S
C1323  O1356   1.382   .     S
C1323  C838    1.394   1_565 S
C1324  H1342   1.084   .     S
C1324  C1143   1.398   1_655 S
C1324  C866    1.394   1_565 S
Cu1325 O1347   1.965   .     S
Cu1325 O1361   1.964   .     S
Cu1325 N1345   2.020   .     S
Cu1325 O1362   1.942   .     S
Cu1325 O1365   1.919   .     S
Cu1326 O1358   1.965   .     S
Cu1326 N1346   2.020   .     S
Cu1326 O1360   1.964   .     S
Cu1326 O1364   1.919   .     S
Cu1326 O1363   1.942   .     S
Cu1326 Cu1173  2.688   1_655 S
H1329  O1366   0.991   .     S
H1330  O1348   0.991   .     S
H1331  O1351   0.991   .     S
H1332  O1354   0.991   .     S
H1333  O1355   0.992   .     S
H1334  O1356   0.992   .     S
H1335  O1357   0.981   .     S
H1336  O1359   0.981   .     S
O1349  S1367   1.502   .     D
O1350  S1367   1.504   .     D
O1351  S1367   1.681   .     S
O1352  S1368   1.503   .     D
O1353  S1368   1.504   .     D
O1354  S1368   1.679   .     S
O1358  C1152   1.297   1_655 S
O1363  C1150   1.300   1_655 S
S1367  C1157   1.777   1_655 S
