data_str_m2_o1_o16_pcu_sym.194
_audit_creation_date              2020-01-03
_audit_creation_method            'Materials Studio'
_symmetry_space_group_name_H-M    'P1'
_symmetry_Int_Tables_number       1
_symmetry_cell_setting            triclinic
loop_
_symmetry_equiv_pos_as_xyz
  x,y,z
_cell_length_a                    28.5658
_cell_length_b                    32.4956
_cell_length_c                    26.7141
_cell_angle_alpha                 90.3302
_cell_angle_beta                  72.5776
_cell_angle_gamma                 90.1364
loop_
_atom_site_label
_atom_site_type_symbol
_atom_site_fract_x
_atom_site_fract_y
_atom_site_fract_z
_atom_site_U_iso_or_equiv
_atom_site_adp_type
_atom_site_occupancy
C1     C     0.16670   0.24597   0.25002   0.00000  Uiso   1.00
C2     C     0.14114   0.15659   0.49194   0.00000  Uiso   1.00
C3     C     0.15318   0.14836   0.43733   0.00000  Uiso   1.00
C4     C     0.17752   0.14816   0.01733   0.00000  Uiso   1.00
C5     C     0.21885   0.12333   0.49200   0.00000  Uiso   1.00
C6     C     0.22481   0.10944   0.44080   0.00000  Uiso   1.00
C7     C     0.19313   0.12231   0.41367   0.00000  Uiso   1.00
C8     C     0.17563   0.16606   0.06567   0.00000  Uiso   1.00
C9     C     0.24653   0.12691   0.06990   0.00000  Uiso   1.00
C10    C     0.12416   0.16540   0.40804   0.00000  Uiso   1.00
C11    C     0.20971   0.31215   0.24820   0.00000  Uiso   1.00
C12    C     0.14041   0.16558   0.35026   0.00000  Uiso   1.00
C13    C     0.20969   0.02139   0.24815   0.00000  Uiso   1.00
C14    C     0.16667   0.04275   0.24984   0.00000  Uiso   1.00
C15    C     0.12371   0.02120   0.25152   0.00000  Uiso   1.00
C16    C     0.12373   0.31196   0.25161   0.00000  Uiso   1.00
C17    C     0.16673   0.29060   0.24997   0.00000  Uiso   1.00
C18    C     0.29970   0.19284   0.28222   0.00000  Uiso   1.00
C19    C     0.01611   0.19266   0.28210   0.00000  Uiso   1.00
C20    C     0.03362   0.14045   0.21814   0.00000  Uiso   1.00
C21    C     0.31734   0.14035   0.21832   0.00000  Uiso   1.00
C22    C     0.16665   0.08736   0.24992   0.00000  Uiso   1.00
C23    C     0.19290   0.16424   0.14988   0.00000  Uiso   1.00
C24    C     0.25337   0.11298   0.01850   0.00000  Uiso   1.00
C25    C     0.20739   0.15398   0.09360   0.00000  Uiso   1.00
C26    C     0.08027   0.18539   0.43408   0.00000  Uiso   1.00
C27    C     0.06393   0.18765   0.48846   0.00000  Uiso   1.00
C28    C     0.09309   0.17224   0.01823   0.00000  Uiso   1.00
Cu29   Cu    0.11978   0.16666   0.25000   0.00000  Uiso   1.00
Cu30   Cu    0.21355   0.16667   0.25000   0.00000  Uiso   1.00
H31    H     0.09009   0.03714   0.25285   0.00000  Uiso   1.00
H32    H     0.02798   0.21339   0.30776   0.00000  Uiso   1.00
H33    H     0.30567   0.11897   0.19334   0.00000  Uiso   1.00
H34    H     0.14919   0.18968   0.08268   0.00000  Uiso   1.00
H35    H     0.19970   0.11043   0.37431   0.00000  Uiso   1.00
N36    N     0.04931   0.16666   0.24998   0.00000  Uiso   1.00
N37    N     0.28402   0.16669   0.25000   0.00000  Uiso   1.00
O38    O     0.12708   0.22678   0.25000   0.00000  Uiso   1.00
O39    O     0.20627   0.22679   0.25001   0.00000  Uiso   1.00
O40    O     0.10775   0.16665   0.32549   0.00000  Uiso   1.00
O41    O     0.18694   0.16666   0.32549   0.00000  Uiso   1.00
O42    O     0.12706   0.10654   0.25000   0.00000  Uiso   1.00
O43    O     0.20625   0.10655   0.25000   0.00000  Uiso   1.00
O44    O     0.14640   0.16667   0.17451   0.00000  Uiso   1.00
O45    O     0.22559   0.16668   0.17451   0.00000  Uiso   1.00
N46    N     0.27893   0.11186   0.09753   0.00000  Uiso   1.00
H47    H     0.25818   0.09680   0.13143   0.00000  Uiso   1.00
H48    H     0.29742   0.13674   0.10781   0.00000  Uiso   1.00
H49    H     0.24332   0.03749   0.24672   0.00000  Uiso   1.00
H50    H     0.09010   0.29587   0.25302   0.00000  Uiso   1.00
N51    N     0.26573   0.22035   0.31649   0.00000  Uiso   1.00
H52    H     0.26510   0.21386   0.35498   0.00000  Uiso   1.00
H53    H     0.27896   0.25033   0.30799   0.00000  Uiso   1.00
H54    H     0.05936   0.11939   0.19264   0.00000  Uiso   1.00
H55    H     0.25486   0.08954   0.42043   0.00000  Uiso   1.00
N56    N     0.29519   0.08755   0.49456   0.00000  Uiso   1.00
H57    H     0.28300   0.05912   0.48480   0.00000  Uiso   1.00
H58    H     0.31661   0.10192   0.46042   0.00000  Uiso   1.00
H59    H     0.05785   0.19878   0.41205   0.00000  Uiso   1.00
N60    N     0.06947   0.16653   0.07340   0.00000  Uiso   1.00
H61    H     0.08469   0.14198   0.08824   0.00000  Uiso   1.00
H62    H     0.07086   0.19388   0.09367   0.00000  Uiso   1.00
N63    N     0.01703   0.20590   0.01313   0.00000  Uiso   1.00
H64    H     0.02186   0.23009   0.03708   0.00000  Uiso   1.00
H65    H     0.32785   0.18386   0.03691   0.00000  Uiso   1.00
H66    H     0.24336   0.29623   0.24675   0.00000  Uiso   1.00
C67    C     0.50004   0.24597   0.25002   0.00000  Uiso   1.00
C68    C     0.47448   0.15659   0.49194   0.00000  Uiso   1.00
C69    C     0.48651   0.14836   0.43733   0.00000  Uiso   1.00
C70    C     0.51086   0.14816   0.01733   0.00000  Uiso   1.00
C71    C     0.55218   0.12333   0.49200   0.00000  Uiso   1.00
C72    C     0.55814   0.10944   0.44080   0.00000  Uiso   1.00
C73    C     0.52647   0.12231   0.41367   0.00000  Uiso   1.00
C74    C     0.50896   0.16606   0.06567   0.00000  Uiso   1.00
C75    C     0.57986   0.12691   0.06990   0.00000  Uiso   1.00
C76    C     0.45750   0.16540   0.40804   0.00000  Uiso   1.00
C77    C     0.54305   0.31215   0.24820   0.00000  Uiso   1.00
C78    C     0.47374   0.16558   0.35026   0.00000  Uiso   1.00
C79    C     0.54302   0.02139   0.24815   0.00000  Uiso   1.00
C80    C     0.50001   0.04275   0.24984   0.00000  Uiso   1.00
C81    C     0.45704   0.02120   0.25152   0.00000  Uiso   1.00
C82    C     0.45706   0.31196   0.25161   0.00000  Uiso   1.00
C83    C     0.50006   0.29060   0.24997   0.00000  Uiso   1.00
C84    C     0.63304   0.19284   0.28222   0.00000  Uiso   1.00
C85    C     0.34944   0.19266   0.28210   0.00000  Uiso   1.00
C86    C     0.36695   0.14045   0.21814   0.00000  Uiso   1.00
C87    C     0.65067   0.14035   0.21832   0.00000  Uiso   1.00
C88    C     0.49998   0.08736   0.24992   0.00000  Uiso   1.00
C89    C     0.52623   0.16424   0.14988   0.00000  Uiso   1.00
C90    C     0.58670   0.11298   0.01850   0.00000  Uiso   1.00
C91    C     0.54072   0.15398   0.09360   0.00000  Uiso   1.00
C92    C     0.41360   0.18539   0.43408   0.00000  Uiso   1.00
C93    C     0.39727   0.18765   0.48846   0.00000  Uiso   1.00
C94    C     0.42642   0.17224   0.01823   0.00000  Uiso   1.00
Cu95   Cu    0.45311   0.16666   0.25000   0.00000  Uiso   1.00
Cu96   Cu    0.54689   0.16667   0.25000   0.00000  Uiso   1.00
H97    H     0.42342   0.03714   0.25285   0.00000  Uiso   1.00
H98    H     0.36131   0.21339   0.30776   0.00000  Uiso   1.00
H99    H     0.63900   0.11897   0.19334   0.00000  Uiso   1.00
H100   H     0.48252   0.18968   0.08268   0.00000  Uiso   1.00
H101   H     0.53303   0.11043   0.37431   0.00000  Uiso   1.00
N102   N     0.38265   0.16666   0.24998   0.00000  Uiso   1.00
N103   N     0.61735   0.16669   0.25000   0.00000  Uiso   1.00
O104   O     0.46042   0.22678   0.25000   0.00000  Uiso   1.00
O105   O     0.53961   0.22679   0.25001   0.00000  Uiso   1.00
O106   O     0.44108   0.16665   0.32549   0.00000  Uiso   1.00
O107   O     0.52027   0.16666   0.32549   0.00000  Uiso   1.00
O108   O     0.46039   0.10654   0.25000   0.00000  Uiso   1.00
O109   O     0.53958   0.10655   0.25000   0.00000  Uiso   1.00
O110   O     0.47973   0.16667   0.17451   0.00000  Uiso   1.00
O111   O     0.55892   0.16668   0.17451   0.00000  Uiso   1.00
N112   N     0.61227   0.11186   0.09753   0.00000  Uiso   1.00
H113   H     0.59152   0.09680   0.13143   0.00000  Uiso   1.00
H114   H     0.63075   0.13674   0.10781   0.00000  Uiso   1.00
H115   H     0.57665   0.03749   0.24672   0.00000  Uiso   1.00
H116   H     0.42343   0.29587   0.25302   0.00000  Uiso   1.00
N117   N     0.59906   0.22035   0.31649   0.00000  Uiso   1.00
H118   H     0.59843   0.21386   0.35498   0.00000  Uiso   1.00
H119   H     0.61229   0.25033   0.30799   0.00000  Uiso   1.00
H120   H     0.39269   0.11939   0.19264   0.00000  Uiso   1.00
H121   H     0.58819   0.08954   0.42043   0.00000  Uiso   1.00
N122   N     0.62853   0.08755   0.49456   0.00000  Uiso   1.00
H123   H     0.61633   0.05912   0.48480   0.00000  Uiso   1.00
H124   H     0.64995   0.10192   0.46042   0.00000  Uiso   1.00
H125   H     0.39118   0.19878   0.41205   0.00000  Uiso   1.00
N126   N     0.40280   0.16653   0.07340   0.00000  Uiso   1.00
H127   H     0.41802   0.14198   0.08824   0.00000  Uiso   1.00
H128   H     0.40419   0.19388   0.09367   0.00000  Uiso   1.00
N129   N     0.35037   0.20590   0.01313   0.00000  Uiso   1.00
H130   H     0.35520   0.23009   0.03708   0.00000  Uiso   1.00
H131   H     0.66118   0.18386   0.03691   0.00000  Uiso   1.00
H132   H     0.57669   0.29623   0.24675   0.00000  Uiso   1.00
C133   C     0.83337   0.24597   0.25002   0.00000  Uiso   1.00
C134   C     0.80781   0.15659   0.49194   0.00000  Uiso   1.00
C135   C     0.81985   0.14836   0.43733   0.00000  Uiso   1.00
C136   C     0.84419   0.14816   0.01733   0.00000  Uiso   1.00
C137   C     0.88551   0.12333   0.49200   0.00000  Uiso   1.00
C138   C     0.89147   0.10944   0.44080   0.00000  Uiso   1.00
C139   C     0.85980   0.12231   0.41367   0.00000  Uiso   1.00
C140   C     0.84230   0.16606   0.06567   0.00000  Uiso   1.00
C141   C     0.91320   0.12691   0.06990   0.00000  Uiso   1.00
C142   C     0.79083   0.16540   0.40804   0.00000  Uiso   1.00
C143   C     0.87638   0.31215   0.24820   0.00000  Uiso   1.00
C144   C     0.80707   0.16558   0.35026   0.00000  Uiso   1.00
C145   C     0.87635   0.02139   0.24815   0.00000  Uiso   1.00
C146   C     0.83334   0.04275   0.24984   0.00000  Uiso   1.00
C147   C     0.79038   0.02120   0.25152   0.00000  Uiso   1.00
C148   C     0.79039   0.31196   0.25161   0.00000  Uiso   1.00
C149   C     0.83339   0.29060   0.24997   0.00000  Uiso   1.00
C150   C     0.96637   0.19284   0.28222   0.00000  Uiso   1.00
C151   C     0.68277   0.19266   0.28210   0.00000  Uiso   1.00
C152   C     0.70029   0.14045   0.21814   0.00000  Uiso   1.00
C153   C     0.98400   0.14035   0.21832   0.00000  Uiso   1.00
C154   C     0.83332   0.08736   0.24992   0.00000  Uiso   1.00
C155   C     0.85957   0.16424   0.14988   0.00000  Uiso   1.00
C156   C     0.92003   0.11298   0.01850   0.00000  Uiso   1.00
C157   C     0.87405   0.15398   0.09360   0.00000  Uiso   1.00
C158   C     0.74693   0.18539   0.43408   0.00000  Uiso   1.00
C159   C     0.73060   0.18765   0.48846   0.00000  Uiso   1.00
C160   C     0.75975   0.17224   0.01823   0.00000  Uiso   1.00
Cu161  Cu    0.78645   0.16666   0.25000   0.00000  Uiso   1.00
Cu162  Cu    0.88022   0.16667   0.25000   0.00000  Uiso   1.00
H163   H     0.75676   0.03714   0.25285   0.00000  Uiso   1.00
H164   H     0.69465   0.21339   0.30776   0.00000  Uiso   1.00
H165   H     0.97234   0.11897   0.19334   0.00000  Uiso   1.00
H166   H     0.81586   0.18968   0.08268   0.00000  Uiso   1.00
H167   H     0.86637   0.11043   0.37431   0.00000  Uiso   1.00
N168   N     0.71598   0.16666   0.24998   0.00000  Uiso   1.00
N169   N     0.95069   0.16669   0.25000   0.00000  Uiso   1.00
O170   O     0.79375   0.22678   0.25000   0.00000  Uiso   1.00
O171   O     0.87294   0.22679   0.25001   0.00000  Uiso   1.00
O172   O     0.77441   0.16665   0.32549   0.00000  Uiso   1.00
O173   O     0.85360   0.16666   0.32549   0.00000  Uiso   1.00
O174   O     0.79373   0.10654   0.25000   0.00000  Uiso   1.00
O175   O     0.87292   0.10655   0.25000   0.00000  Uiso   1.00
O176   O     0.81306   0.16667   0.17451   0.00000  Uiso   1.00
O177   O     0.89225   0.16668   0.17451   0.00000  Uiso   1.00
N178   N     0.94560   0.11186   0.09753   0.00000  Uiso   1.00
H179   H     0.92485   0.09680   0.13143   0.00000  Uiso   1.00
H180   H     0.96409   0.13674   0.10781   0.00000  Uiso   1.00
H181   H     0.90998   0.03749   0.24672   0.00000  Uiso   1.00
H182   H     0.75677   0.29587   0.25302   0.00000  Uiso   1.00
N183   N     0.93239   0.22035   0.31649   0.00000  Uiso   1.00
H184   H     0.93176   0.21386   0.35498   0.00000  Uiso   1.00
H185   H     0.94562   0.25033   0.30799   0.00000  Uiso   1.00
H186   H     0.72602   0.11939   0.19264   0.00000  Uiso   1.00
H187   H     0.92152   0.08954   0.42043   0.00000  Uiso   1.00
N188   N     0.96186   0.08755   0.49456   0.00000  Uiso   1.00
H189   H     0.94967   0.05912   0.48480   0.00000  Uiso   1.00
H190   H     0.98328   0.10192   0.46042   0.00000  Uiso   1.00
H191   H     0.72452   0.19878   0.41205   0.00000  Uiso   1.00
N192   N     0.73613   0.16653   0.07340   0.00000  Uiso   1.00
H193   H     0.75136   0.14198   0.08824   0.00000  Uiso   1.00
H194   H     0.73752   0.19388   0.09367   0.00000  Uiso   1.00
N195   N     0.68370   0.20590   0.01313   0.00000  Uiso   1.00
H196   H     0.68853   0.23009   0.03708   0.00000  Uiso   1.00
H197   H     0.99452   0.18386   0.03691   0.00000  Uiso   1.00
H198   H     0.91002   0.29623   0.24675   0.00000  Uiso   1.00
C199   C     0.16670   0.57931   0.25002   0.00000  Uiso   1.00
C200   C     0.14114   0.48993   0.49194   0.00000  Uiso   1.00
C201   C     0.15318   0.48169   0.43733   0.00000  Uiso   1.00
C202   C     0.17752   0.48149   0.01733   0.00000  Uiso   1.00
C203   C     0.21885   0.45667   0.49200   0.00000  Uiso   1.00
C204   C     0.22481   0.44278   0.44080   0.00000  Uiso   1.00
C205   C     0.19313   0.45565   0.41367   0.00000  Uiso   1.00
C206   C     0.17563   0.49939   0.06567   0.00000  Uiso   1.00
C207   C     0.24653   0.46025   0.06990   0.00000  Uiso   1.00
C208   C     0.12416   0.49873   0.40804   0.00000  Uiso   1.00
C209   C     0.20971   0.64549   0.24820   0.00000  Uiso   1.00
C210   C     0.14041   0.49891   0.35026   0.00000  Uiso   1.00
C211   C     0.20969   0.35473   0.24815   0.00000  Uiso   1.00
C212   C     0.16667   0.37608   0.24984   0.00000  Uiso   1.00
C213   C     0.12371   0.35453   0.25152   0.00000  Uiso   1.00
C214   C     0.12373   0.64529   0.25161   0.00000  Uiso   1.00
C215   C     0.16673   0.62393   0.24997   0.00000  Uiso   1.00
C216   C     0.29970   0.52618   0.28222   0.00000  Uiso   1.00
C217   C     0.01611   0.52600   0.28210   0.00000  Uiso   1.00
C218   C     0.03362   0.47379   0.21814   0.00000  Uiso   1.00
C219   C     0.31734   0.47368   0.21832   0.00000  Uiso   1.00
C220   C     0.16665   0.42070   0.24992   0.00000  Uiso   1.00
C221   C     0.19290   0.49757   0.14988   0.00000  Uiso   1.00
C222   C     0.25337   0.44632   0.01850   0.00000  Uiso   1.00
C223   C     0.20739   0.48731   0.09360   0.00000  Uiso   1.00
C224   C     0.08027   0.51872   0.43408   0.00000  Uiso   1.00
C225   C     0.06393   0.52099   0.48846   0.00000  Uiso   1.00
C226   C     0.09309   0.50558   0.01823   0.00000  Uiso   1.00
Cu227  Cu    0.11978   0.49999   0.25000   0.00000  Uiso   1.00
Cu228  Cu    0.21355   0.50001   0.25000   0.00000  Uiso   1.00
H229   H     0.09009   0.37047   0.25285   0.00000  Uiso   1.00
H230   H     0.02798   0.54673   0.30776   0.00000  Uiso   1.00
H231   H     0.30567   0.45230   0.19334   0.00000  Uiso   1.00
H232   H     0.14919   0.52302   0.08268   0.00000  Uiso   1.00
H233   H     0.19970   0.44376   0.37431   0.00000  Uiso   1.00
N234   N     0.04931   0.49999   0.24998   0.00000  Uiso   1.00
N235   N     0.28402   0.50002   0.25000   0.00000  Uiso   1.00
O236   O     0.12708   0.56011   0.25000   0.00000  Uiso   1.00
O237   O     0.20627   0.56012   0.25001   0.00000  Uiso   1.00
O238   O     0.10775   0.49998   0.32549   0.00000  Uiso   1.00
O239   O     0.18694   0.49999   0.32549   0.00000  Uiso   1.00
O240   O     0.12706   0.43988   0.25000   0.00000  Uiso   1.00
O241   O     0.20625   0.43989   0.25000   0.00000  Uiso   1.00
O242   O     0.14640   0.50001   0.17451   0.00000  Uiso   1.00
O243   O     0.22559   0.50002   0.17451   0.00000  Uiso   1.00
N244   N     0.27893   0.44519   0.09753   0.00000  Uiso   1.00
H245   H     0.25818   0.43014   0.13143   0.00000  Uiso   1.00
H246   H     0.29742   0.47008   0.10781   0.00000  Uiso   1.00
H247   H     0.24332   0.37082   0.24672   0.00000  Uiso   1.00
H248   H     0.09010   0.62921   0.25302   0.00000  Uiso   1.00
N249   N     0.26573   0.55368   0.31649   0.00000  Uiso   1.00
H250   H     0.26510   0.54719   0.35498   0.00000  Uiso   1.00
H251   H     0.27896   0.58366   0.30799   0.00000  Uiso   1.00
H252   H     0.05936   0.45272   0.19264   0.00000  Uiso   1.00
H253   H     0.25486   0.42287   0.42043   0.00000  Uiso   1.00
N254   N     0.29519   0.42088   0.49456   0.00000  Uiso   1.00
H255   H     0.28300   0.39245   0.48480   0.00000  Uiso   1.00
H256   H     0.31661   0.43525   0.46042   0.00000  Uiso   1.00
H257   H     0.05785   0.53212   0.41205   0.00000  Uiso   1.00
N258   N     0.06947   0.49987   0.07340   0.00000  Uiso   1.00
H259   H     0.08469   0.47531   0.08824   0.00000  Uiso   1.00
H260   H     0.07086   0.52721   0.09367   0.00000  Uiso   1.00
N261   N     0.01703   0.53923   0.01313   0.00000  Uiso   1.00
H262   H     0.02186   0.56343   0.03708   0.00000  Uiso   1.00
H263   H     0.32785   0.51720   0.03691   0.00000  Uiso   1.00
H264   H     0.24336   0.62956   0.24675   0.00000  Uiso   1.00
C265   C     0.50004   0.57931   0.25002   0.00000  Uiso   1.00
C266   C     0.47448   0.48993   0.49194   0.00000  Uiso   1.00
C267   C     0.48651   0.48169   0.43733   0.00000  Uiso   1.00
C268   C     0.51086   0.48149   0.01733   0.00000  Uiso   1.00
C269   C     0.55218   0.45667   0.49200   0.00000  Uiso   1.00
C270   C     0.55814   0.44278   0.44080   0.00000  Uiso   1.00
C271   C     0.52647   0.45565   0.41367   0.00000  Uiso   1.00
C272   C     0.50896   0.49939   0.06567   0.00000  Uiso   1.00
C273   C     0.57986   0.46025   0.06990   0.00000  Uiso   1.00
C274   C     0.45750   0.49873   0.40804   0.00000  Uiso   1.00
C275   C     0.54305   0.64549   0.24820   0.00000  Uiso   1.00
C276   C     0.47374   0.49891   0.35026   0.00000  Uiso   1.00
C277   C     0.54302   0.35473   0.24815   0.00000  Uiso   1.00
C278   C     0.50001   0.37608   0.24984   0.00000  Uiso   1.00
C279   C     0.45704   0.35453   0.25152   0.00000  Uiso   1.00
C280   C     0.45706   0.64529   0.25161   0.00000  Uiso   1.00
C281   C     0.50006   0.62393   0.24997   0.00000  Uiso   1.00
C282   C     0.63304   0.52618   0.28222   0.00000  Uiso   1.00
C283   C     0.34944   0.52600   0.28210   0.00000  Uiso   1.00
C284   C     0.36695   0.47379   0.21814   0.00000  Uiso   1.00
C285   C     0.65067   0.47368   0.21832   0.00000  Uiso   1.00
C286   C     0.49998   0.42070   0.24992   0.00000  Uiso   1.00
C287   C     0.52623   0.49757   0.14988   0.00000  Uiso   1.00
C288   C     0.58670   0.44632   0.01850   0.00000  Uiso   1.00
C289   C     0.54072   0.48731   0.09360   0.00000  Uiso   1.00
C290   C     0.41360   0.51872   0.43408   0.00000  Uiso   1.00
C291   C     0.39727   0.52099   0.48846   0.00000  Uiso   1.00
C292   C     0.42642   0.50558   0.01823   0.00000  Uiso   1.00
Cu293  Cu    0.45311   0.49999   0.25000   0.00000  Uiso   1.00
Cu294  Cu    0.54689   0.50001   0.25000   0.00000  Uiso   1.00
H295   H     0.42342   0.37047   0.25285   0.00000  Uiso   1.00
H296   H     0.36131   0.54673   0.30776   0.00000  Uiso   1.00
H297   H     0.63900   0.45230   0.19334   0.00000  Uiso   1.00
H298   H     0.48252   0.52302   0.08268   0.00000  Uiso   1.00
H299   H     0.53303   0.44376   0.37431   0.00000  Uiso   1.00
N300   N     0.38265   0.49999   0.24998   0.00000  Uiso   1.00
N301   N     0.61735   0.50002   0.25000   0.00000  Uiso   1.00
O302   O     0.46042   0.56011   0.25000   0.00000  Uiso   1.00
O303   O     0.53961   0.56012   0.25001   0.00000  Uiso   1.00
O304   O     0.44108   0.49998   0.32549   0.00000  Uiso   1.00
O305   O     0.52027   0.49999   0.32549   0.00000  Uiso   1.00
O306   O     0.46039   0.43988   0.25000   0.00000  Uiso   1.00
O307   O     0.53958   0.43989   0.25000   0.00000  Uiso   1.00
O308   O     0.47973   0.50001   0.17451   0.00000  Uiso   1.00
O309   O     0.55892   0.50002   0.17451   0.00000  Uiso   1.00
N310   N     0.61227   0.44519   0.09753   0.00000  Uiso   1.00
H311   H     0.59152   0.43014   0.13143   0.00000  Uiso   1.00
H312   H     0.63075   0.47008   0.10781   0.00000  Uiso   1.00
H313   H     0.57665   0.37082   0.24672   0.00000  Uiso   1.00
H314   H     0.42343   0.62921   0.25302   0.00000  Uiso   1.00
N315   N     0.59906   0.55368   0.31649   0.00000  Uiso   1.00
H316   H     0.59843   0.54719   0.35498   0.00000  Uiso   1.00
H317   H     0.61229   0.58366   0.30799   0.00000  Uiso   1.00
H318   H     0.39269   0.45272   0.19264   0.00000  Uiso   1.00
H319   H     0.58819   0.42287   0.42043   0.00000  Uiso   1.00
N320   N     0.62853   0.42088   0.49456   0.00000  Uiso   1.00
H321   H     0.61633   0.39245   0.48480   0.00000  Uiso   1.00
H322   H     0.64995   0.43525   0.46042   0.00000  Uiso   1.00
H323   H     0.39118   0.53212   0.41205   0.00000  Uiso   1.00
N324   N     0.40280   0.49987   0.07340   0.00000  Uiso   1.00
H325   H     0.41802   0.47531   0.08824   0.00000  Uiso   1.00
H326   H     0.40419   0.52721   0.09367   0.00000  Uiso   1.00
N327   N     0.35037   0.53923   0.01313   0.00000  Uiso   1.00
H328   H     0.35520   0.56343   0.03708   0.00000  Uiso   1.00
H329   H     0.66118   0.51720   0.03691   0.00000  Uiso   1.00
H330   H     0.57669   0.62956   0.24675   0.00000  Uiso   1.00
C331   C     0.83337   0.57931   0.25002   0.00000  Uiso   1.00
C332   C     0.80781   0.48993   0.49194   0.00000  Uiso   1.00
C333   C     0.81985   0.48169   0.43733   0.00000  Uiso   1.00
C334   C     0.84419   0.48149   0.01733   0.00000  Uiso   1.00
C335   C     0.88551   0.45667   0.49200   0.00000  Uiso   1.00
C336   C     0.89147   0.44278   0.44080   0.00000  Uiso   1.00
C337   C     0.85980   0.45565   0.41367   0.00000  Uiso   1.00
C338   C     0.84230   0.49939   0.06567   0.00000  Uiso   1.00
C339   C     0.91320   0.46025   0.06990   0.00000  Uiso   1.00
C340   C     0.79083   0.49873   0.40804   0.00000  Uiso   1.00
C341   C     0.87638   0.64549   0.24820   0.00000  Uiso   1.00
C342   C     0.80707   0.49891   0.35026   0.00000  Uiso   1.00
C343   C     0.87635   0.35473   0.24815   0.00000  Uiso   1.00
C344   C     0.83334   0.37608   0.24984   0.00000  Uiso   1.00
C345   C     0.79038   0.35453   0.25152   0.00000  Uiso   1.00
C346   C     0.79039   0.64529   0.25161   0.00000  Uiso   1.00
C347   C     0.83339   0.62393   0.24997   0.00000  Uiso   1.00
C348   C     0.96637   0.52618   0.28222   0.00000  Uiso   1.00
C349   C     0.68277   0.52600   0.28210   0.00000  Uiso   1.00
C350   C     0.70029   0.47379   0.21814   0.00000  Uiso   1.00
C351   C     0.98400   0.47368   0.21832   0.00000  Uiso   1.00
C352   C     0.83332   0.42070   0.24992   0.00000  Uiso   1.00
C353   C     0.85957   0.49757   0.14988   0.00000  Uiso   1.00
C354   C     0.92003   0.44632   0.01850   0.00000  Uiso   1.00
C355   C     0.87405   0.48731   0.09360   0.00000  Uiso   1.00
C356   C     0.74693   0.51872   0.43408   0.00000  Uiso   1.00
C357   C     0.73060   0.52099   0.48846   0.00000  Uiso   1.00
C358   C     0.75975   0.50558   0.01823   0.00000  Uiso   1.00
Cu359  Cu    0.78645   0.49999   0.25000   0.00000  Uiso   1.00
Cu360  Cu    0.88022   0.50001   0.25000   0.00000  Uiso   1.00
H361   H     0.75676   0.37047   0.25285   0.00000  Uiso   1.00
H362   H     0.69465   0.54673   0.30776   0.00000  Uiso   1.00
H363   H     0.97234   0.45230   0.19334   0.00000  Uiso   1.00
H364   H     0.81586   0.52302   0.08268   0.00000  Uiso   1.00
H365   H     0.86637   0.44376   0.37431   0.00000  Uiso   1.00
N366   N     0.71598   0.49999   0.24998   0.00000  Uiso   1.00
N367   N     0.95069   0.50002   0.25000   0.00000  Uiso   1.00
O368   O     0.79375   0.56011   0.25000   0.00000  Uiso   1.00
O369   O     0.87294   0.56012   0.25001   0.00000  Uiso   1.00
O370   O     0.77441   0.49998   0.32549   0.00000  Uiso   1.00
O371   O     0.85360   0.49999   0.32549   0.00000  Uiso   1.00
O372   O     0.79373   0.43988   0.25000   0.00000  Uiso   1.00
O373   O     0.87292   0.43989   0.25000   0.00000  Uiso   1.00
O374   O     0.81306   0.50001   0.17451   0.00000  Uiso   1.00
O375   O     0.89225   0.50002   0.17451   0.00000  Uiso   1.00
N376   N     0.94560   0.44519   0.09753   0.00000  Uiso   1.00
H377   H     0.92485   0.43014   0.13143   0.00000  Uiso   1.00
H378   H     0.96409   0.47008   0.10781   0.00000  Uiso   1.00
H379   H     0.90998   0.37082   0.24672   0.00000  Uiso   1.00
H380   H     0.75677   0.62921   0.25302   0.00000  Uiso   1.00
N381   N     0.93239   0.55368   0.31649   0.00000  Uiso   1.00
H382   H     0.93176   0.54719   0.35498   0.00000  Uiso   1.00
H383   H     0.94562   0.58366   0.30799   0.00000  Uiso   1.00
H384   H     0.72602   0.45272   0.19264   0.00000  Uiso   1.00
H385   H     0.92152   0.42287   0.42043   0.00000  Uiso   1.00
N386   N     0.96186   0.42088   0.49456   0.00000  Uiso   1.00
H387   H     0.94967   0.39245   0.48480   0.00000  Uiso   1.00
H388   H     0.98328   0.43525   0.46042   0.00000  Uiso   1.00
H389   H     0.72452   0.53212   0.41205   0.00000  Uiso   1.00
N390   N     0.73613   0.49987   0.07340   0.00000  Uiso   1.00
H391   H     0.75136   0.47531   0.08824   0.00000  Uiso   1.00
H392   H     0.73752   0.52721   0.09367   0.00000  Uiso   1.00
N393   N     0.68370   0.53923   0.01313   0.00000  Uiso   1.00
H394   H     0.68853   0.56343   0.03708   0.00000  Uiso   1.00
H395   H     0.99452   0.51720   0.03691   0.00000  Uiso   1.00
H396   H     0.91002   0.62956   0.24675   0.00000  Uiso   1.00
C397   C     0.16670   0.91264   0.25002   0.00000  Uiso   1.00
C398   C     0.14114   0.82326   0.49194   0.00000  Uiso   1.00
C399   C     0.15318   0.81502   0.43733   0.00000  Uiso   1.00
C400   C     0.17752   0.81482   0.01733   0.00000  Uiso   1.00
C401   C     0.21885   0.79000   0.49200   0.00000  Uiso   1.00
C402   C     0.22481   0.77611   0.44080   0.00000  Uiso   1.00
C403   C     0.19313   0.78898   0.41367   0.00000  Uiso   1.00
C404   C     0.17563   0.83272   0.06567   0.00000  Uiso   1.00
C405   C     0.24653   0.79358   0.06990   0.00000  Uiso   1.00
C406   C     0.12416   0.83207   0.40804   0.00000  Uiso   1.00
C407   C     0.20971   0.97882   0.24820   0.00000  Uiso   1.00
C408   C     0.14041   0.83225   0.35026   0.00000  Uiso   1.00
C409   C     0.20969   0.68806   0.24815   0.00000  Uiso   1.00
C410   C     0.16667   0.70942   0.24984   0.00000  Uiso   1.00
C411   C     0.12371   0.68787   0.25152   0.00000  Uiso   1.00
C412   C     0.12373   0.97863   0.25161   0.00000  Uiso   1.00
C413   C     0.16673   0.95726   0.24997   0.00000  Uiso   1.00
C414   C     0.29970   0.85951   0.28222   0.00000  Uiso   1.00
C415   C     0.01611   0.85933   0.28210   0.00000  Uiso   1.00
C416   C     0.03362   0.80712   0.21814   0.00000  Uiso   1.00
C417   C     0.31734   0.80702   0.21832   0.00000  Uiso   1.00
C418   C     0.16665   0.75403   0.24992   0.00000  Uiso   1.00
C419   C     0.19290   0.83091   0.14988   0.00000  Uiso   1.00
C420   C     0.25337   0.77965   0.01850   0.00000  Uiso   1.00
C421   C     0.20739   0.82064   0.09360   0.00000  Uiso   1.00
C422   C     0.08027   0.85206   0.43408   0.00000  Uiso   1.00
C423   C     0.06393   0.85432   0.48846   0.00000  Uiso   1.00
C424   C     0.09309   0.83891   0.01823   0.00000  Uiso   1.00
Cu425  Cu    0.11978   0.83333   0.25000   0.00000  Uiso   1.00
Cu426  Cu    0.21355   0.83334   0.25000   0.00000  Uiso   1.00
H427   H     0.09009   0.70380   0.25285   0.00000  Uiso   1.00
H428   H     0.02798   0.88006   0.30776   0.00000  Uiso   1.00
H429   H     0.30567   0.78564   0.19334   0.00000  Uiso   1.00
H430   H     0.14919   0.85635   0.08268   0.00000  Uiso   1.00
H431   H     0.19970   0.77710   0.37431   0.00000  Uiso   1.00
N432   N     0.04931   0.83332   0.24998   0.00000  Uiso   1.00
N433   N     0.28402   0.83335   0.25000   0.00000  Uiso   1.00
O434   O     0.12708   0.89345   0.25000   0.00000  Uiso   1.00
O435   O     0.20627   0.89346   0.25001   0.00000  Uiso   1.00
O436   O     0.10775   0.83332   0.32549   0.00000  Uiso   1.00
O437   O     0.18694   0.83333   0.32549   0.00000  Uiso   1.00
O438   O     0.12706   0.77321   0.25000   0.00000  Uiso   1.00
O439   O     0.20625   0.77322   0.25000   0.00000  Uiso   1.00
O440   O     0.14640   0.83334   0.17451   0.00000  Uiso   1.00
O441   O     0.22559   0.83335   0.17451   0.00000  Uiso   1.00
N442   N     0.27893   0.77853   0.09753   0.00000  Uiso   1.00
H443   H     0.25818   0.76347   0.13143   0.00000  Uiso   1.00
H444   H     0.29742   0.80341   0.10781   0.00000  Uiso   1.00
H445   H     0.24332   0.70415   0.24672   0.00000  Uiso   1.00
H446   H     0.09010   0.96254   0.25302   0.00000  Uiso   1.00
N447   N     0.26573   0.88702   0.31649   0.00000  Uiso   1.00
H448   H     0.26510   0.88052   0.35498   0.00000  Uiso   1.00
H449   H     0.27896   0.91700   0.30799   0.00000  Uiso   1.00
H450   H     0.05936   0.78606   0.19264   0.00000  Uiso   1.00
H451   H     0.25486   0.75620   0.42043   0.00000  Uiso   1.00
N452   N     0.29519   0.75421   0.49456   0.00000  Uiso   1.00
H453   H     0.28300   0.72578   0.48480   0.00000  Uiso   1.00
H454   H     0.31661   0.76858   0.46042   0.00000  Uiso   1.00
H455   H     0.05785   0.86545   0.41205   0.00000  Uiso   1.00
N456   N     0.06947   0.83320   0.07340   0.00000  Uiso   1.00
H457   H     0.08469   0.80865   0.08824   0.00000  Uiso   1.00
H458   H     0.07086   0.86054   0.09367   0.00000  Uiso   1.00
N459   N     0.01703   0.87257   0.01313   0.00000  Uiso   1.00
H460   H     0.02186   0.89676   0.03708   0.00000  Uiso   1.00
H461   H     0.32785   0.85053   0.03691   0.00000  Uiso   1.00
H462   H     0.24336   0.96289   0.24675   0.00000  Uiso   1.00
C463   C     0.50004   0.91264   0.25002   0.00000  Uiso   1.00
C464   C     0.47448   0.82326   0.49194   0.00000  Uiso   1.00
C465   C     0.48651   0.81502   0.43733   0.00000  Uiso   1.00
C466   C     0.51086   0.81482   0.01733   0.00000  Uiso   1.00
C467   C     0.55218   0.79000   0.49200   0.00000  Uiso   1.00
C468   C     0.55814   0.77611   0.44080   0.00000  Uiso   1.00
C469   C     0.52647   0.78898   0.41367   0.00000  Uiso   1.00
C470   C     0.50896   0.83272   0.06567   0.00000  Uiso   1.00
C471   C     0.57986   0.79358   0.06990   0.00000  Uiso   1.00
C472   C     0.45750   0.83207   0.40804   0.00000  Uiso   1.00
C473   C     0.54305   0.97882   0.24820   0.00000  Uiso   1.00
C474   C     0.47374   0.83225   0.35026   0.00000  Uiso   1.00
C475   C     0.54302   0.68806   0.24815   0.00000  Uiso   1.00
C476   C     0.50001   0.70942   0.24984   0.00000  Uiso   1.00
C477   C     0.45704   0.68787   0.25152   0.00000  Uiso   1.00
C478   C     0.45706   0.97863   0.25161   0.00000  Uiso   1.00
C479   C     0.50006   0.95726   0.24997   0.00000  Uiso   1.00
C480   C     0.63304   0.85951   0.28222   0.00000  Uiso   1.00
C481   C     0.34944   0.85933   0.28210   0.00000  Uiso   1.00
C482   C     0.36695   0.80712   0.21814   0.00000  Uiso   1.00
C483   C     0.65067   0.80702   0.21832   0.00000  Uiso   1.00
C484   C     0.49998   0.75403   0.24992   0.00000  Uiso   1.00
C485   C     0.52623   0.83091   0.14988   0.00000  Uiso   1.00
C486   C     0.58670   0.77965   0.01850   0.00000  Uiso   1.00
C487   C     0.54072   0.82064   0.09360   0.00000  Uiso   1.00
C488   C     0.41360   0.85206   0.43408   0.00000  Uiso   1.00
C489   C     0.39727   0.85432   0.48846   0.00000  Uiso   1.00
C490   C     0.42642   0.83891   0.01823   0.00000  Uiso   1.00
Cu491  Cu    0.45311   0.83333   0.25000   0.00000  Uiso   1.00
Cu492  Cu    0.54689   0.83334   0.25000   0.00000  Uiso   1.00
H493   H     0.42342   0.70380   0.25285   0.00000  Uiso   1.00
H494   H     0.36131   0.88006   0.30776   0.00000  Uiso   1.00
H495   H     0.63900   0.78564   0.19334   0.00000  Uiso   1.00
H496   H     0.48252   0.85635   0.08268   0.00000  Uiso   1.00
H497   H     0.53303   0.77710   0.37431   0.00000  Uiso   1.00
N498   N     0.38265   0.83332   0.24998   0.00000  Uiso   1.00
N499   N     0.61735   0.83335   0.25000   0.00000  Uiso   1.00
O500   O     0.46042   0.89345   0.25000   0.00000  Uiso   1.00
O501   O     0.53961   0.89346   0.25001   0.00000  Uiso   1.00
O502   O     0.44108   0.83332   0.32549   0.00000  Uiso   1.00
O503   O     0.52027   0.83333   0.32549   0.00000  Uiso   1.00
O504   O     0.46039   0.77321   0.25000   0.00000  Uiso   1.00
O505   O     0.53958   0.77322   0.25000   0.00000  Uiso   1.00
O506   O     0.47973   0.83334   0.17451   0.00000  Uiso   1.00
O507   O     0.55892   0.83335   0.17451   0.00000  Uiso   1.00
N508   N     0.61227   0.77853   0.09753   0.00000  Uiso   1.00
H509   H     0.59152   0.76347   0.13143   0.00000  Uiso   1.00
H510   H     0.63075   0.80341   0.10781   0.00000  Uiso   1.00
H511   H     0.57665   0.70415   0.24672   0.00000  Uiso   1.00
H512   H     0.42343   0.96254   0.25302   0.00000  Uiso   1.00
N513   N     0.59906   0.88702   0.31649   0.00000  Uiso   1.00
H514   H     0.59843   0.88052   0.35498   0.00000  Uiso   1.00
H515   H     0.61229   0.91700   0.30799   0.00000  Uiso   1.00
H516   H     0.39269   0.78606   0.19264   0.00000  Uiso   1.00
H517   H     0.58819   0.75620   0.42043   0.00000  Uiso   1.00
N518   N     0.62853   0.75421   0.49456   0.00000  Uiso   1.00
H519   H     0.61633   0.72578   0.48480   0.00000  Uiso   1.00
H520   H     0.64995   0.76858   0.46042   0.00000  Uiso   1.00
H521   H     0.39118   0.86545   0.41205   0.00000  Uiso   1.00
N522   N     0.40280   0.83320   0.07340   0.00000  Uiso   1.00
H523   H     0.41802   0.80865   0.08824   0.00000  Uiso   1.00
H524   H     0.40419   0.86054   0.09367   0.00000  Uiso   1.00
N525   N     0.35037   0.87257   0.01313   0.00000  Uiso   1.00
H526   H     0.35520   0.89676   0.03708   0.00000  Uiso   1.00
H527   H     0.66118   0.85053   0.03691   0.00000  Uiso   1.00
H528   H     0.57669   0.96289   0.24675   0.00000  Uiso   1.00
C529   C     0.83337   0.91264   0.25002   0.00000  Uiso   1.00
C530   C     0.80781   0.82326   0.49194   0.00000  Uiso   1.00
C531   C     0.81985   0.81502   0.43733   0.00000  Uiso   1.00
C532   C     0.84419   0.81482   0.01733   0.00000  Uiso   1.00
C533   C     0.88551   0.79000   0.49200   0.00000  Uiso   1.00
C534   C     0.89147   0.77611   0.44080   0.00000  Uiso   1.00
C535   C     0.85980   0.78898   0.41367   0.00000  Uiso   1.00
C536   C     0.84230   0.83272   0.06567   0.00000  Uiso   1.00
C537   C     0.91320   0.79358   0.06990   0.00000  Uiso   1.00
C538   C     0.79083   0.83207   0.40804   0.00000  Uiso   1.00
C539   C     0.87638   0.97882   0.24820   0.00000  Uiso   1.00
C540   C     0.80707   0.83225   0.35026   0.00000  Uiso   1.00
C541   C     0.87635   0.68806   0.24815   0.00000  Uiso   1.00
C542   C     0.83334   0.70942   0.24984   0.00000  Uiso   1.00
C543   C     0.79038   0.68787   0.25152   0.00000  Uiso   1.00
C544   C     0.79039   0.97863   0.25161   0.00000  Uiso   1.00
C545   C     0.83339   0.95726   0.24997   0.00000  Uiso   1.00
C546   C     0.96637   0.85951   0.28222   0.00000  Uiso   1.00
C547   C     0.68277   0.85933   0.28210   0.00000  Uiso   1.00
C548   C     0.70029   0.80712   0.21814   0.00000  Uiso   1.00
C549   C     0.98400   0.80702   0.21832   0.00000  Uiso   1.00
C550   C     0.83332   0.75403   0.24992   0.00000  Uiso   1.00
C551   C     0.85957   0.83091   0.14988   0.00000  Uiso   1.00
C552   C     0.92003   0.77965   0.01850   0.00000  Uiso   1.00
C553   C     0.87405   0.82064   0.09360   0.00000  Uiso   1.00
C554   C     0.74693   0.85206   0.43408   0.00000  Uiso   1.00
C555   C     0.73060   0.85432   0.48846   0.00000  Uiso   1.00
C556   C     0.75975   0.83891   0.01823   0.00000  Uiso   1.00
Cu557  Cu    0.78645   0.83333   0.25000   0.00000  Uiso   1.00
Cu558  Cu    0.88022   0.83334   0.25000   0.00000  Uiso   1.00
H559   H     0.75676   0.70380   0.25285   0.00000  Uiso   1.00
H560   H     0.69465   0.88006   0.30776   0.00000  Uiso   1.00
H561   H     0.97234   0.78564   0.19334   0.00000  Uiso   1.00
H562   H     0.81586   0.85635   0.08268   0.00000  Uiso   1.00
H563   H     0.86637   0.77710   0.37431   0.00000  Uiso   1.00
N564   N     0.71598   0.83332   0.24998   0.00000  Uiso   1.00
N565   N     0.95069   0.83335   0.25000   0.00000  Uiso   1.00
O566   O     0.79375   0.89345   0.25000   0.00000  Uiso   1.00
O567   O     0.87294   0.89346   0.25001   0.00000  Uiso   1.00
O568   O     0.77441   0.83332   0.32549   0.00000  Uiso   1.00
O569   O     0.85360   0.83333   0.32549   0.00000  Uiso   1.00
O570   O     0.79373   0.77321   0.25000   0.00000  Uiso   1.00
O571   O     0.87292   0.77322   0.25000   0.00000  Uiso   1.00
O572   O     0.81306   0.83334   0.17451   0.00000  Uiso   1.00
O573   O     0.89225   0.83335   0.17451   0.00000  Uiso   1.00
N574   N     0.94560   0.77853   0.09753   0.00000  Uiso   1.00
H575   H     0.92485   0.76347   0.13143   0.00000  Uiso   1.00
H576   H     0.96409   0.80341   0.10781   0.00000  Uiso   1.00
H577   H     0.90998   0.70415   0.24672   0.00000  Uiso   1.00
H578   H     0.75677   0.96254   0.25302   0.00000  Uiso   1.00
N579   N     0.93239   0.88702   0.31649   0.00000  Uiso   1.00
H580   H     0.93176   0.88052   0.35498   0.00000  Uiso   1.00
H581   H     0.94562   0.91700   0.30799   0.00000  Uiso   1.00
H582   H     0.72602   0.78606   0.19264   0.00000  Uiso   1.00
H583   H     0.92152   0.75620   0.42043   0.00000  Uiso   1.00
N584   N     0.96186   0.75421   0.49456   0.00000  Uiso   1.00
H585   H     0.94967   0.72578   0.48480   0.00000  Uiso   1.00
H586   H     0.98328   0.76858   0.46042   0.00000  Uiso   1.00
H587   H     0.72452   0.86545   0.41205   0.00000  Uiso   1.00
N588   N     0.73613   0.83320   0.07340   0.00000  Uiso   1.00
H589   H     0.75136   0.80865   0.08824   0.00000  Uiso   1.00
H590   H     0.73752   0.86054   0.09367   0.00000  Uiso   1.00
N591   N     0.68370   0.87257   0.01313   0.00000  Uiso   1.00
H592   H     0.68853   0.89676   0.03708   0.00000  Uiso   1.00
H593   H     0.99452   0.85053   0.03691   0.00000  Uiso   1.00
H594   H     0.91002   0.96289   0.24675   0.00000  Uiso   1.00
C595   C     0.16670   0.24597   0.75002   0.00000  Uiso   1.00
C596   C     0.14114   0.15659   0.99194   0.00000  Uiso   1.00
C597   C     0.15318   0.14836   0.93733   0.00000  Uiso   1.00
C598   C     0.17752   0.14816   0.51733   0.00000  Uiso   1.00
C599   C     0.21885   0.12333   0.99200   0.00000  Uiso   1.00
C600   C     0.22481   0.10944   0.94080   0.00000  Uiso   1.00
C601   C     0.19313   0.12231   0.91367   0.00000  Uiso   1.00
C602   C     0.17563   0.16606   0.56567   0.00000  Uiso   1.00
C603   C     0.24653   0.12691   0.56990   0.00000  Uiso   1.00
C604   C     0.12416   0.16540   0.90804   0.00000  Uiso   1.00
C605   C     0.20971   0.31215   0.74820   0.00000  Uiso   1.00
C606   C     0.14041   0.16558   0.85026   0.00000  Uiso   1.00
C607   C     0.20969   0.02139   0.74815   0.00000  Uiso   1.00
C608   C     0.16667   0.04275   0.74984   0.00000  Uiso   1.00
C609   C     0.12371   0.02120   0.75152   0.00000  Uiso   1.00
C610   C     0.12373   0.31196   0.75161   0.00000  Uiso   1.00
C611   C     0.16673   0.29060   0.74997   0.00000  Uiso   1.00
C612   C     0.29970   0.19284   0.78222   0.00000  Uiso   1.00
C613   C     0.01611   0.19266   0.78210   0.00000  Uiso   1.00
C614   C     0.03362   0.14045   0.71814   0.00000  Uiso   1.00
C615   C     0.31734   0.14035   0.71832   0.00000  Uiso   1.00
C616   C     0.16665   0.08736   0.74992   0.00000  Uiso   1.00
C617   C     0.19290   0.16424   0.64988   0.00000  Uiso   1.00
C618   C     0.25337   0.11298   0.51850   0.00000  Uiso   1.00
C619   C     0.20739   0.15398   0.59360   0.00000  Uiso   1.00
C620   C     0.08027   0.18539   0.93408   0.00000  Uiso   1.00
C621   C     0.06393   0.18765   0.98846   0.00000  Uiso   1.00
C622   C     0.09309   0.17224   0.51823   0.00000  Uiso   1.00
Cu623  Cu    0.11978   0.16666   0.75000   0.00000  Uiso   1.00
Cu624  Cu    0.21355   0.16667   0.75000   0.00000  Uiso   1.00
H625   H     0.09009   0.03714   0.75285   0.00000  Uiso   1.00
H626   H     0.02798   0.21339   0.80776   0.00000  Uiso   1.00
H627   H     0.30567   0.11897   0.69334   0.00000  Uiso   1.00
H628   H     0.14919   0.18968   0.58268   0.00000  Uiso   1.00
H629   H     0.19970   0.11043   0.87431   0.00000  Uiso   1.00
N630   N     0.04931   0.16666   0.74998   0.00000  Uiso   1.00
N631   N     0.28402   0.16669   0.75000   0.00000  Uiso   1.00
O632   O     0.12708   0.22678   0.75000   0.00000  Uiso   1.00
O633   O     0.20627   0.22679   0.75001   0.00000  Uiso   1.00
O634   O     0.10775   0.16665   0.82549   0.00000  Uiso   1.00
O635   O     0.18694   0.16666   0.82549   0.00000  Uiso   1.00
O636   O     0.12706   0.10654   0.75000   0.00000  Uiso   1.00
O637   O     0.20625   0.10655   0.75000   0.00000  Uiso   1.00
O638   O     0.14640   0.16667   0.67451   0.00000  Uiso   1.00
O639   O     0.22559   0.16668   0.67451   0.00000  Uiso   1.00
N640   N     0.27893   0.11186   0.59753   0.00000  Uiso   1.00
H641   H     0.25818   0.09680   0.63143   0.00000  Uiso   1.00
H642   H     0.29742   0.13674   0.60781   0.00000  Uiso   1.00
H643   H     0.24332   0.03749   0.74672   0.00000  Uiso   1.00
H644   H     0.09010   0.29587   0.75302   0.00000  Uiso   1.00
N645   N     0.26573   0.22035   0.81649   0.00000  Uiso   1.00
H646   H     0.26510   0.21386   0.85498   0.00000  Uiso   1.00
H647   H     0.27896   0.25033   0.80799   0.00000  Uiso   1.00
H648   H     0.05936   0.11939   0.69264   0.00000  Uiso   1.00
H649   H     0.25486   0.08954   0.92043   0.00000  Uiso   1.00
N650   N     0.29519   0.08755   0.99456   0.00000  Uiso   1.00
H651   H     0.28300   0.05912   0.98480   0.00000  Uiso   1.00
H652   H     0.31661   0.10192   0.96042   0.00000  Uiso   1.00
H653   H     0.05785   0.19878   0.91205   0.00000  Uiso   1.00
N654   N     0.06947   0.16653   0.57340   0.00000  Uiso   1.00
H655   H     0.08469   0.14198   0.58824   0.00000  Uiso   1.00
H656   H     0.07086   0.19388   0.59367   0.00000  Uiso   1.00
N657   N     0.01703   0.20590   0.51313   0.00000  Uiso   1.00
H658   H     0.02186   0.23009   0.53708   0.00000  Uiso   1.00
H659   H     0.32785   0.18386   0.53691   0.00000  Uiso   1.00
H660   H     0.24336   0.29623   0.74675   0.00000  Uiso   1.00
C661   C     0.50004   0.24597   0.75002   0.00000  Uiso   1.00
C662   C     0.47448   0.15659   0.99194   0.00000  Uiso   1.00
C663   C     0.48651   0.14836   0.93733   0.00000  Uiso   1.00
C664   C     0.51086   0.14816   0.51733   0.00000  Uiso   1.00
C665   C     0.55218   0.12333   0.99200   0.00000  Uiso   1.00
C666   C     0.55814   0.10944   0.94080   0.00000  Uiso   1.00
C667   C     0.52647   0.12231   0.91367   0.00000  Uiso   1.00
C668   C     0.50896   0.16606   0.56567   0.00000  Uiso   1.00
C669   C     0.57986   0.12691   0.56990   0.00000  Uiso   1.00
C670   C     0.45750   0.16540   0.90804   0.00000  Uiso   1.00
C671   C     0.54305   0.31215   0.74820   0.00000  Uiso   1.00
C672   C     0.47374   0.16558   0.85026   0.00000  Uiso   1.00
C673   C     0.54302   0.02139   0.74815   0.00000  Uiso   1.00
C674   C     0.50001   0.04275   0.74984   0.00000  Uiso   1.00
C675   C     0.45704   0.02120   0.75152   0.00000  Uiso   1.00
C676   C     0.45706   0.31196   0.75161   0.00000  Uiso   1.00
C677   C     0.50006   0.29060   0.74997   0.00000  Uiso   1.00
C678   C     0.63304   0.19284   0.78222   0.00000  Uiso   1.00
C679   C     0.34944   0.19266   0.78210   0.00000  Uiso   1.00
C680   C     0.36695   0.14045   0.71814   0.00000  Uiso   1.00
C681   C     0.65067   0.14035   0.71832   0.00000  Uiso   1.00
C682   C     0.49998   0.08736   0.74992   0.00000  Uiso   1.00
C683   C     0.52623   0.16424   0.64988   0.00000  Uiso   1.00
C684   C     0.58670   0.11298   0.51850   0.00000  Uiso   1.00
C685   C     0.54072   0.15398   0.59360   0.00000  Uiso   1.00
C686   C     0.41360   0.18539   0.93408   0.00000  Uiso   1.00
C687   C     0.39727   0.18765   0.98846   0.00000  Uiso   1.00
C688   C     0.42642   0.17224   0.51823   0.00000  Uiso   1.00
Cu689  Cu    0.45311   0.16666   0.75000   0.00000  Uiso   1.00
Cu690  Cu    0.54689   0.16667   0.75000   0.00000  Uiso   1.00
H691   H     0.42342   0.03714   0.75285   0.00000  Uiso   1.00
H692   H     0.36131   0.21339   0.80776   0.00000  Uiso   1.00
H693   H     0.63900   0.11897   0.69334   0.00000  Uiso   1.00
H694   H     0.48252   0.18968   0.58268   0.00000  Uiso   1.00
H695   H     0.53303   0.11043   0.87431   0.00000  Uiso   1.00
N696   N     0.38265   0.16666   0.74998   0.00000  Uiso   1.00
N697   N     0.61735   0.16669   0.75000   0.00000  Uiso   1.00
O698   O     0.46042   0.22678   0.75000   0.00000  Uiso   1.00
O699   O     0.53961   0.22679   0.75001   0.00000  Uiso   1.00
O700   O     0.44108   0.16665   0.82549   0.00000  Uiso   1.00
O701   O     0.52027   0.16666   0.82549   0.00000  Uiso   1.00
O702   O     0.46039   0.10654   0.75000   0.00000  Uiso   1.00
O703   O     0.53958   0.10655   0.75000   0.00000  Uiso   1.00
O704   O     0.47973   0.16667   0.67451   0.00000  Uiso   1.00
O705   O     0.55892   0.16668   0.67451   0.00000  Uiso   1.00
N706   N     0.61227   0.11186   0.59753   0.00000  Uiso   1.00
H707   H     0.59152   0.09680   0.63143   0.00000  Uiso   1.00
H708   H     0.63075   0.13674   0.60781   0.00000  Uiso   1.00
H709   H     0.57665   0.03749   0.74672   0.00000  Uiso   1.00
H710   H     0.42343   0.29587   0.75302   0.00000  Uiso   1.00
N711   N     0.59906   0.22035   0.81649   0.00000  Uiso   1.00
H712   H     0.59843   0.21386   0.85498   0.00000  Uiso   1.00
H713   H     0.61229   0.25033   0.80799   0.00000  Uiso   1.00
H714   H     0.39269   0.11939   0.69264   0.00000  Uiso   1.00
H715   H     0.58819   0.08954   0.92043   0.00000  Uiso   1.00
N716   N     0.62853   0.08755   0.99456   0.00000  Uiso   1.00
H717   H     0.61633   0.05912   0.98480   0.00000  Uiso   1.00
H718   H     0.64995   0.10192   0.96042   0.00000  Uiso   1.00
H719   H     0.39118   0.19878   0.91205   0.00000  Uiso   1.00
N720   N     0.40280   0.16653   0.57340   0.00000  Uiso   1.00
H721   H     0.41802   0.14198   0.58824   0.00000  Uiso   1.00
H722   H     0.40419   0.19388   0.59367   0.00000  Uiso   1.00
N723   N     0.35037   0.20590   0.51313   0.00000  Uiso   1.00
H724   H     0.35520   0.23009   0.53708   0.00000  Uiso   1.00
H725   H     0.66118   0.18386   0.53691   0.00000  Uiso   1.00
H726   H     0.57669   0.29623   0.74675   0.00000  Uiso   1.00
C727   C     0.83337   0.24597   0.75002   0.00000  Uiso   1.00
C728   C     0.80781   0.15659   0.99194   0.00000  Uiso   1.00
C729   C     0.81985   0.14836   0.93733   0.00000  Uiso   1.00
C730   C     0.84419   0.14816   0.51733   0.00000  Uiso   1.00
C731   C     0.88551   0.12333   0.99200   0.00000  Uiso   1.00
C732   C     0.89147   0.10944   0.94080   0.00000  Uiso   1.00
C733   C     0.85980   0.12231   0.91367   0.00000  Uiso   1.00
C734   C     0.84230   0.16606   0.56567   0.00000  Uiso   1.00
C735   C     0.91320   0.12691   0.56990   0.00000  Uiso   1.00
C736   C     0.79083   0.16540   0.90804   0.00000  Uiso   1.00
C737   C     0.87638   0.31215   0.74820   0.00000  Uiso   1.00
C738   C     0.80707   0.16558   0.85026   0.00000  Uiso   1.00
C739   C     0.87635   0.02139   0.74815   0.00000  Uiso   1.00
C740   C     0.83334   0.04275   0.74984   0.00000  Uiso   1.00
C741   C     0.79038   0.02120   0.75152   0.00000  Uiso   1.00
C742   C     0.79039   0.31196   0.75161   0.00000  Uiso   1.00
C743   C     0.83339   0.29060   0.74997   0.00000  Uiso   1.00
C744   C     0.96637   0.19284   0.78222   0.00000  Uiso   1.00
C745   C     0.68277   0.19266   0.78210   0.00000  Uiso   1.00
C746   C     0.70029   0.14045   0.71814   0.00000  Uiso   1.00
C747   C     0.98400   0.14035   0.71832   0.00000  Uiso   1.00
C748   C     0.83332   0.08736   0.74992   0.00000  Uiso   1.00
C749   C     0.85957   0.16424   0.64988   0.00000  Uiso   1.00
C750   C     0.92003   0.11298   0.51850   0.00000  Uiso   1.00
C751   C     0.87405   0.15398   0.59360   0.00000  Uiso   1.00
C752   C     0.74693   0.18539   0.93408   0.00000  Uiso   1.00
C753   C     0.73060   0.18765   0.98846   0.00000  Uiso   1.00
C754   C     0.75975   0.17224   0.51823   0.00000  Uiso   1.00
Cu755  Cu    0.78645   0.16666   0.75000   0.00000  Uiso   1.00
Cu756  Cu    0.88022   0.16667   0.75000   0.00000  Uiso   1.00
H757   H     0.75676   0.03714   0.75285   0.00000  Uiso   1.00
H758   H     0.69465   0.21339   0.80776   0.00000  Uiso   1.00
H759   H     0.97234   0.11897   0.69334   0.00000  Uiso   1.00
H760   H     0.81586   0.18968   0.58268   0.00000  Uiso   1.00
H761   H     0.86637   0.11043   0.87431   0.00000  Uiso   1.00
N762   N     0.71598   0.16666   0.74998   0.00000  Uiso   1.00
N763   N     0.95069   0.16669   0.75000   0.00000  Uiso   1.00
O764   O     0.79375   0.22678   0.75000   0.00000  Uiso   1.00
O765   O     0.87294   0.22679   0.75001   0.00000  Uiso   1.00
O766   O     0.77441   0.16665   0.82549   0.00000  Uiso   1.00
O767   O     0.85360   0.16666   0.82549   0.00000  Uiso   1.00
O768   O     0.79373   0.10654   0.75000   0.00000  Uiso   1.00
O769   O     0.87292   0.10655   0.75000   0.00000  Uiso   1.00
O770   O     0.81306   0.16667   0.67451   0.00000  Uiso   1.00
O771   O     0.89225   0.16668   0.67451   0.00000  Uiso   1.00
N772   N     0.94560   0.11186   0.59753   0.00000  Uiso   1.00
H773   H     0.92485   0.09680   0.63143   0.00000  Uiso   1.00
H774   H     0.96409   0.13674   0.60781   0.00000  Uiso   1.00
H775   H     0.90998   0.03749   0.74672   0.00000  Uiso   1.00
H776   H     0.75677   0.29587   0.75302   0.00000  Uiso   1.00
N777   N     0.93239   0.22035   0.81649   0.00000  Uiso   1.00
H778   H     0.93176   0.21386   0.85498   0.00000  Uiso   1.00
H779   H     0.94562   0.25033   0.80799   0.00000  Uiso   1.00
H780   H     0.72602   0.11939   0.69264   0.00000  Uiso   1.00
H781   H     0.92152   0.08954   0.92043   0.00000  Uiso   1.00
N782   N     0.96186   0.08755   0.99456   0.00000  Uiso   1.00
H783   H     0.94967   0.05912   0.98480   0.00000  Uiso   1.00
H784   H     0.98328   0.10192   0.96042   0.00000  Uiso   1.00
H785   H     0.72452   0.19878   0.91205   0.00000  Uiso   1.00
N786   N     0.73613   0.16653   0.57340   0.00000  Uiso   1.00
H787   H     0.75136   0.14198   0.58824   0.00000  Uiso   1.00
H788   H     0.73752   0.19388   0.59367   0.00000  Uiso   1.00
N789   N     0.68370   0.20590   0.51313   0.00000  Uiso   1.00
H790   H     0.68853   0.23009   0.53708   0.00000  Uiso   1.00
H791   H     0.99452   0.18386   0.53691   0.00000  Uiso   1.00
H792   H     0.91002   0.29623   0.74675   0.00000  Uiso   1.00
C793   C     0.16670   0.57931   0.75002   0.00000  Uiso   1.00
C794   C     0.14114   0.48993   0.99194   0.00000  Uiso   1.00
C795   C     0.15318   0.48169   0.93733   0.00000  Uiso   1.00
C796   C     0.17752   0.48149   0.51733   0.00000  Uiso   1.00
C797   C     0.21885   0.45667   0.99200   0.00000  Uiso   1.00
C798   C     0.22481   0.44278   0.94080   0.00000  Uiso   1.00
C799   C     0.19313   0.45565   0.91367   0.00000  Uiso   1.00
C800   C     0.17563   0.49939   0.56567   0.00000  Uiso   1.00
C801   C     0.24653   0.46025   0.56990   0.00000  Uiso   1.00
C802   C     0.12416   0.49873   0.90804   0.00000  Uiso   1.00
C803   C     0.20971   0.64549   0.74820   0.00000  Uiso   1.00
C804   C     0.14041   0.49891   0.85026   0.00000  Uiso   1.00
C805   C     0.20969   0.35473   0.74815   0.00000  Uiso   1.00
C806   C     0.16667   0.37608   0.74984   0.00000  Uiso   1.00
C807   C     0.12371   0.35453   0.75152   0.00000  Uiso   1.00
C808   C     0.12373   0.64529   0.75161   0.00000  Uiso   1.00
C809   C     0.16673   0.62393   0.74997   0.00000  Uiso   1.00
C810   C     0.29970   0.52618   0.78222   0.00000  Uiso   1.00
C811   C     0.01611   0.52600   0.78210   0.00000  Uiso   1.00
C812   C     0.03362   0.47379   0.71814   0.00000  Uiso   1.00
C813   C     0.31734   0.47368   0.71832   0.00000  Uiso   1.00
C814   C     0.16665   0.42070   0.74992   0.00000  Uiso   1.00
C815   C     0.19290   0.49757   0.64988   0.00000  Uiso   1.00
C816   C     0.25337   0.44632   0.51850   0.00000  Uiso   1.00
C817   C     0.20739   0.48731   0.59360   0.00000  Uiso   1.00
C818   C     0.08027   0.51872   0.93408   0.00000  Uiso   1.00
C819   C     0.06393   0.52099   0.98846   0.00000  Uiso   1.00
C820   C     0.09309   0.50558   0.51823   0.00000  Uiso   1.00
Cu821  Cu    0.11978   0.49999   0.75000   0.00000  Uiso   1.00
Cu822  Cu    0.21355   0.50001   0.75000   0.00000  Uiso   1.00
H823   H     0.09009   0.37047   0.75285   0.00000  Uiso   1.00
H824   H     0.02798   0.54673   0.80776   0.00000  Uiso   1.00
H825   H     0.30567   0.45230   0.69334   0.00000  Uiso   1.00
H826   H     0.14919   0.52302   0.58268   0.00000  Uiso   1.00
H827   H     0.19970   0.44376   0.87431   0.00000  Uiso   1.00
N828   N     0.04931   0.49999   0.74998   0.00000  Uiso   1.00
N829   N     0.28402   0.50002   0.75000   0.00000  Uiso   1.00
O830   O     0.12708   0.56011   0.75000   0.00000  Uiso   1.00
O831   O     0.20627   0.56012   0.75001   0.00000  Uiso   1.00
O832   O     0.10775   0.49998   0.82549   0.00000  Uiso   1.00
O833   O     0.18694   0.49999   0.82549   0.00000  Uiso   1.00
O834   O     0.12706   0.43988   0.75000   0.00000  Uiso   1.00
O835   O     0.20625   0.43989   0.75000   0.00000  Uiso   1.00
O836   O     0.14640   0.50001   0.67451   0.00000  Uiso   1.00
O837   O     0.22559   0.50002   0.67451   0.00000  Uiso   1.00
N838   N     0.27893   0.44519   0.59753   0.00000  Uiso   1.00
H839   H     0.25818   0.43014   0.63143   0.00000  Uiso   1.00
H840   H     0.29742   0.47008   0.60781   0.00000  Uiso   1.00
H841   H     0.24332   0.37082   0.74672   0.00000  Uiso   1.00
H842   H     0.09010   0.62921   0.75302   0.00000  Uiso   1.00
N843   N     0.26573   0.55368   0.81649   0.00000  Uiso   1.00
H844   H     0.26510   0.54719   0.85498   0.00000  Uiso   1.00
H845   H     0.27896   0.58366   0.80799   0.00000  Uiso   1.00
H846   H     0.05936   0.45272   0.69264   0.00000  Uiso   1.00
H847   H     0.25486   0.42287   0.92043   0.00000  Uiso   1.00
N848   N     0.29519   0.42088   0.99456   0.00000  Uiso   1.00
H849   H     0.28300   0.39245   0.98480   0.00000  Uiso   1.00
H850   H     0.31661   0.43525   0.96042   0.00000  Uiso   1.00
H851   H     0.05785   0.53212   0.91205   0.00000  Uiso   1.00
N852   N     0.06947   0.49987   0.57340   0.00000  Uiso   1.00
H853   H     0.08469   0.47531   0.58824   0.00000  Uiso   1.00
H854   H     0.07086   0.52721   0.59367   0.00000  Uiso   1.00
N855   N     0.01703   0.53923   0.51313   0.00000  Uiso   1.00
H856   H     0.02186   0.56343   0.53708   0.00000  Uiso   1.00
H857   H     0.32785   0.51720   0.53691   0.00000  Uiso   1.00
H858   H     0.24336   0.62956   0.74675   0.00000  Uiso   1.00
C859   C     0.50004   0.57931   0.75002   0.00000  Uiso   1.00
C860   C     0.47448   0.48993   0.99194   0.00000  Uiso   1.00
C861   C     0.48651   0.48169   0.93733   0.00000  Uiso   1.00
C862   C     0.51086   0.48149   0.51733   0.00000  Uiso   1.00
C863   C     0.55218   0.45667   0.99200   0.00000  Uiso   1.00
C864   C     0.55814   0.44278   0.94080   0.00000  Uiso   1.00
C865   C     0.52647   0.45565   0.91367   0.00000  Uiso   1.00
C866   C     0.50896   0.49939   0.56567   0.00000  Uiso   1.00
C867   C     0.57986   0.46025   0.56990   0.00000  Uiso   1.00
C868   C     0.45750   0.49873   0.90804   0.00000  Uiso   1.00
C869   C     0.54305   0.64549   0.74820   0.00000  Uiso   1.00
C870   C     0.47374   0.49891   0.85026   0.00000  Uiso   1.00
C871   C     0.54302   0.35473   0.74815   0.00000  Uiso   1.00
C872   C     0.50001   0.37608   0.74984   0.00000  Uiso   1.00
C873   C     0.45704   0.35453   0.75152   0.00000  Uiso   1.00
C874   C     0.45706   0.64529   0.75161   0.00000  Uiso   1.00
C875   C     0.50006   0.62393   0.74997   0.00000  Uiso   1.00
C876   C     0.63304   0.52618   0.78222   0.00000  Uiso   1.00
C877   C     0.34944   0.52600   0.78210   0.00000  Uiso   1.00
C878   C     0.36695   0.47379   0.71814   0.00000  Uiso   1.00
C879   C     0.65067   0.47368   0.71832   0.00000  Uiso   1.00
C880   C     0.49998   0.42070   0.74992   0.00000  Uiso   1.00
C881   C     0.52623   0.49757   0.64988   0.00000  Uiso   1.00
C882   C     0.58670   0.44632   0.51850   0.00000  Uiso   1.00
C883   C     0.54072   0.48731   0.59360   0.00000  Uiso   1.00
C884   C     0.41360   0.51872   0.93408   0.00000  Uiso   1.00
C885   C     0.39727   0.52099   0.98846   0.00000  Uiso   1.00
C886   C     0.42642   0.50558   0.51823   0.00000  Uiso   1.00
Cu887  Cu    0.45311   0.49999   0.75000   0.00000  Uiso   1.00
Cu888  Cu    0.54689   0.50001   0.75000   0.00000  Uiso   1.00
H889   H     0.42342   0.37047   0.75285   0.00000  Uiso   1.00
H890   H     0.36131   0.54673   0.80776   0.00000  Uiso   1.00
H891   H     0.63900   0.45230   0.69334   0.00000  Uiso   1.00
H892   H     0.48252   0.52302   0.58268   0.00000  Uiso   1.00
H893   H     0.53303   0.44376   0.87431   0.00000  Uiso   1.00
N894   N     0.38265   0.49999   0.74998   0.00000  Uiso   1.00
N895   N     0.61735   0.50002   0.75000   0.00000  Uiso   1.00
O896   O     0.46042   0.56011   0.75000   0.00000  Uiso   1.00
O897   O     0.53961   0.56012   0.75001   0.00000  Uiso   1.00
O898   O     0.44108   0.49998   0.82549   0.00000  Uiso   1.00
O899   O     0.52027   0.49999   0.82549   0.00000  Uiso   1.00
O900   O     0.46039   0.43988   0.75000   0.00000  Uiso   1.00
O901   O     0.53958   0.43989   0.75000   0.00000  Uiso   1.00
O902   O     0.47973   0.50001   0.67451   0.00000  Uiso   1.00
O903   O     0.55892   0.50002   0.67451   0.00000  Uiso   1.00
N904   N     0.61227   0.44519   0.59753   0.00000  Uiso   1.00
H905   H     0.59152   0.43014   0.63143   0.00000  Uiso   1.00
H906   H     0.63075   0.47008   0.60781   0.00000  Uiso   1.00
H907   H     0.57665   0.37082   0.74672   0.00000  Uiso   1.00
H908   H     0.42343   0.62921   0.75302   0.00000  Uiso   1.00
N909   N     0.59906   0.55368   0.81649   0.00000  Uiso   1.00
H910   H     0.59843   0.54719   0.85498   0.00000  Uiso   1.00
H911   H     0.61229   0.58366   0.80799   0.00000  Uiso   1.00
H912   H     0.39269   0.45272   0.69264   0.00000  Uiso   1.00
H913   H     0.58819   0.42287   0.92043   0.00000  Uiso   1.00
N914   N     0.62853   0.42088   0.99456   0.00000  Uiso   1.00
H915   H     0.61633   0.39245   0.98480   0.00000  Uiso   1.00
H916   H     0.64995   0.43525   0.96042   0.00000  Uiso   1.00
H917   H     0.39118   0.53212   0.91205   0.00000  Uiso   1.00
N918   N     0.40280   0.49987   0.57340   0.00000  Uiso   1.00
H919   H     0.41802   0.47531   0.58824   0.00000  Uiso   1.00
H920   H     0.40419   0.52721   0.59367   0.00000  Uiso   1.00
N921   N     0.35037   0.53923   0.51313   0.00000  Uiso   1.00
H922   H     0.35520   0.56343   0.53708   0.00000  Uiso   1.00
H923   H     0.66118   0.51720   0.53691   0.00000  Uiso   1.00
H924   H     0.57669   0.62956   0.74675   0.00000  Uiso   1.00
C925   C     0.83337   0.57931   0.75002   0.00000  Uiso   1.00
C926   C     0.80781   0.48993   0.99194   0.00000  Uiso   1.00
C927   C     0.81985   0.48169   0.93733   0.00000  Uiso   1.00
C928   C     0.84419   0.48149   0.51733   0.00000  Uiso   1.00
C929   C     0.88551   0.45667   0.99200   0.00000  Uiso   1.00
C930   C     0.89147   0.44278   0.94080   0.00000  Uiso   1.00
C931   C     0.85980   0.45565   0.91367   0.00000  Uiso   1.00
C932   C     0.84230   0.49939   0.56567   0.00000  Uiso   1.00
C933   C     0.91320   0.46025   0.56990   0.00000  Uiso   1.00
C934   C     0.79083   0.49873   0.90804   0.00000  Uiso   1.00
C935   C     0.87638   0.64549   0.74820   0.00000  Uiso   1.00
C936   C     0.80707   0.49891   0.85026   0.00000  Uiso   1.00
C937   C     0.87635   0.35473   0.74815   0.00000  Uiso   1.00
C938   C     0.83334   0.37608   0.74984   0.00000  Uiso   1.00
C939   C     0.79038   0.35453   0.75152   0.00000  Uiso   1.00
C940   C     0.79039   0.64529   0.75161   0.00000  Uiso   1.00
C941   C     0.83339   0.62393   0.74997   0.00000  Uiso   1.00
C942   C     0.96637   0.52618   0.78222   0.00000  Uiso   1.00
C943   C     0.68277   0.52600   0.78210   0.00000  Uiso   1.00
C944   C     0.70029   0.47379   0.71814   0.00000  Uiso   1.00
C945   C     0.98400   0.47368   0.71832   0.00000  Uiso   1.00
C946   C     0.83332   0.42070   0.74992   0.00000  Uiso   1.00
C947   C     0.85957   0.49757   0.64988   0.00000  Uiso   1.00
C948   C     0.92003   0.44632   0.51850   0.00000  Uiso   1.00
C949   C     0.87405   0.48731   0.59360   0.00000  Uiso   1.00
C950   C     0.74693   0.51872   0.93408   0.00000  Uiso   1.00
C951   C     0.73060   0.52099   0.98846   0.00000  Uiso   1.00
C952   C     0.75975   0.50558   0.51823   0.00000  Uiso   1.00
Cu953  Cu    0.78645   0.49999   0.75000   0.00000  Uiso   1.00
Cu954  Cu    0.88022   0.50001   0.75000   0.00000  Uiso   1.00
H955   H     0.75676   0.37047   0.75285   0.00000  Uiso   1.00
H956   H     0.69465   0.54673   0.80776   0.00000  Uiso   1.00
H957   H     0.97234   0.45230   0.69334   0.00000  Uiso   1.00
H958   H     0.81586   0.52302   0.58268   0.00000  Uiso   1.00
H959   H     0.86637   0.44376   0.87431   0.00000  Uiso   1.00
N960   N     0.71598   0.49999   0.74998   0.00000  Uiso   1.00
N961   N     0.95069   0.50002   0.75000   0.00000  Uiso   1.00
O962   O     0.79375   0.56011   0.75000   0.00000  Uiso   1.00
O963   O     0.87294   0.56012   0.75001   0.00000  Uiso   1.00
O964   O     0.77441   0.49998   0.82549   0.00000  Uiso   1.00
O965   O     0.85360   0.49999   0.82549   0.00000  Uiso   1.00
O966   O     0.79373   0.43988   0.75000   0.00000  Uiso   1.00
O967   O     0.87292   0.43989   0.75000   0.00000  Uiso   1.00
O968   O     0.81306   0.50001   0.67451   0.00000  Uiso   1.00
O969   O     0.89225   0.50002   0.67451   0.00000  Uiso   1.00
N970   N     0.94560   0.44519   0.59753   0.00000  Uiso   1.00
H971   H     0.92485   0.43014   0.63143   0.00000  Uiso   1.00
H972   H     0.96409   0.47008   0.60781   0.00000  Uiso   1.00
H973   H     0.90998   0.37082   0.74672   0.00000  Uiso   1.00
H974   H     0.75677   0.62921   0.75302   0.00000  Uiso   1.00
N975   N     0.93239   0.55368   0.81649   0.00000  Uiso   1.00
H976   H     0.93176   0.54719   0.85498   0.00000  Uiso   1.00
H977   H     0.94562   0.58366   0.80799   0.00000  Uiso   1.00
H978   H     0.72602   0.45272   0.69264   0.00000  Uiso   1.00
H979   H     0.92152   0.42287   0.92043   0.00000  Uiso   1.00
N980   N     0.96186   0.42088   0.99456   0.00000  Uiso   1.00
H981   H     0.94967   0.39245   0.98480   0.00000  Uiso   1.00
H982   H     0.98328   0.43525   0.96042   0.00000  Uiso   1.00
H983   H     0.72452   0.53212   0.91205   0.00000  Uiso   1.00
N984   N     0.73613   0.49987   0.57340   0.00000  Uiso   1.00
H985   H     0.75136   0.47531   0.58824   0.00000  Uiso   1.00
H986   H     0.73752   0.52721   0.59367   0.00000  Uiso   1.00
N987   N     0.68370   0.53923   0.51313   0.00000  Uiso   1.00
H988   H     0.68853   0.56343   0.53708   0.00000  Uiso   1.00
H989   H     0.99452   0.51720   0.53691   0.00000  Uiso   1.00
H990   H     0.91002   0.62956   0.74675   0.00000  Uiso   1.00
C991   C     0.16670   0.91264   0.75002   0.00000  Uiso   1.00
C992   C     0.14114   0.82326   0.99194   0.00000  Uiso   1.00
C993   C     0.15318   0.81502   0.93733   0.00000  Uiso   1.00
C994   C     0.17752   0.81482   0.51733   0.00000  Uiso   1.00
C995   C     0.21885   0.79000   0.99200   0.00000  Uiso   1.00
C996   C     0.22481   0.77611   0.94080   0.00000  Uiso   1.00
C997   C     0.19313   0.78898   0.91367   0.00000  Uiso   1.00
C998   C     0.17563   0.83272   0.56567   0.00000  Uiso   1.00
C999   C     0.24653   0.79358   0.56990   0.00000  Uiso   1.00
C1000  C     0.12416   0.83207   0.90804   0.00000  Uiso   1.00
C1001  C     0.20971   0.97882   0.74820   0.00000  Uiso   1.00
C1002  C     0.14041   0.83225   0.85026   0.00000  Uiso   1.00
C1003  C     0.20969   0.68806   0.74815   0.00000  Uiso   1.00
C1004  C     0.16667   0.70942   0.74984   0.00000  Uiso   1.00
C1005  C     0.12371   0.68787   0.75152   0.00000  Uiso   1.00
C1006  C     0.12373   0.97863   0.75161   0.00000  Uiso   1.00
C1007  C     0.16673   0.95726   0.74997   0.00000  Uiso   1.00
C1008  C     0.29970   0.85951   0.78222   0.00000  Uiso   1.00
C1009  C     0.01611   0.85933   0.78210   0.00000  Uiso   1.00
C1010  C     0.03362   0.80712   0.71814   0.00000  Uiso   1.00
C1011  C     0.31734   0.80702   0.71832   0.00000  Uiso   1.00
C1012  C     0.16665   0.75403   0.74992   0.00000  Uiso   1.00
C1013  C     0.19290   0.83091   0.64988   0.00000  Uiso   1.00
C1014  C     0.25337   0.77965   0.51850   0.00000  Uiso   1.00
C1015  C     0.20739   0.82064   0.59360   0.00000  Uiso   1.00
C1016  C     0.08027   0.85206   0.93408   0.00000  Uiso   1.00
C1017  C     0.06393   0.85432   0.98846   0.00000  Uiso   1.00
C1018  C     0.09309   0.83891   0.51823   0.00000  Uiso   1.00
Cu1019 Cu    0.11978   0.83333   0.75000   0.00000  Uiso   1.00
Cu1020 Cu    0.21355   0.83334   0.75000   0.00000  Uiso   1.00
H1021  H     0.09009   0.70380   0.75285   0.00000  Uiso   1.00
H1022  H     0.02798   0.88006   0.80776   0.00000  Uiso   1.00
H1023  H     0.30567   0.78564   0.69334   0.00000  Uiso   1.00
H1024  H     0.14919   0.85635   0.58268   0.00000  Uiso   1.00
H1025  H     0.19970   0.77710   0.87431   0.00000  Uiso   1.00
N1026  N     0.04931   0.83332   0.74998   0.00000  Uiso   1.00
N1027  N     0.28402   0.83335   0.75000   0.00000  Uiso   1.00
O1028  O     0.12708   0.89345   0.75000   0.00000  Uiso   1.00
O1029  O     0.20627   0.89346   0.75001   0.00000  Uiso   1.00
O1030  O     0.10775   0.83332   0.82549   0.00000  Uiso   1.00
O1031  O     0.18694   0.83333   0.82549   0.00000  Uiso   1.00
O1032  O     0.12706   0.77321   0.75000   0.00000  Uiso   1.00
O1033  O     0.20625   0.77322   0.75000   0.00000  Uiso   1.00
O1034  O     0.14640   0.83334   0.67451   0.00000  Uiso   1.00
O1035  O     0.22559   0.83335   0.67451   0.00000  Uiso   1.00
N1036  N     0.27893   0.77853   0.59753   0.00000  Uiso   1.00
H1037  H     0.25818   0.76347   0.63143   0.00000  Uiso   1.00
H1038  H     0.29742   0.80341   0.60781   0.00000  Uiso   1.00
H1039  H     0.24332   0.70415   0.74672   0.00000  Uiso   1.00
H1040  H     0.09010   0.96254   0.75302   0.00000  Uiso   1.00
N1041  N     0.26573   0.88702   0.81649   0.00000  Uiso   1.00
H1042  H     0.26510   0.88052   0.85498   0.00000  Uiso   1.00
H1043  H     0.27896   0.91700   0.80799   0.00000  Uiso   1.00
H1044  H     0.05936   0.78606   0.69264   0.00000  Uiso   1.00
H1045  H     0.25486   0.75620   0.92043   0.00000  Uiso   1.00
N1046  N     0.29519   0.75421   0.99456   0.00000  Uiso   1.00
H1047  H     0.28300   0.72578   0.98480   0.00000  Uiso   1.00
H1048  H     0.31661   0.76858   0.96042   0.00000  Uiso   1.00
H1049  H     0.05785   0.86545   0.91205   0.00000  Uiso   1.00
N1050  N     0.06947   0.83320   0.57340   0.00000  Uiso   1.00
H1051  H     0.08469   0.80865   0.58824   0.00000  Uiso   1.00
H1052  H     0.07086   0.86054   0.59367   0.00000  Uiso   1.00
N1053  N     0.01703   0.87257   0.51313   0.00000  Uiso   1.00
H1054  H     0.02186   0.89676   0.53708   0.00000  Uiso   1.00
H1055  H     0.32785   0.85053   0.53691   0.00000  Uiso   1.00
H1056  H     0.24336   0.96289   0.74675   0.00000  Uiso   1.00
C1057  C     0.50004   0.91264   0.75002   0.00000  Uiso   1.00
C1058  C     0.47448   0.82326   0.99194   0.00000  Uiso   1.00
C1059  C     0.48651   0.81502   0.93733   0.00000  Uiso   1.00
C1060  C     0.51086   0.81482   0.51733   0.00000  Uiso   1.00
C1061  C     0.55218   0.79000   0.99200   0.00000  Uiso   1.00
C1062  C     0.55814   0.77611   0.94080   0.00000  Uiso   1.00
C1063  C     0.52647   0.78898   0.91367   0.00000  Uiso   1.00
C1064  C     0.50896   0.83272   0.56567   0.00000  Uiso   1.00
C1065  C     0.57986   0.79358   0.56990   0.00000  Uiso   1.00
C1066  C     0.45750   0.83207   0.90804   0.00000  Uiso   1.00
C1067  C     0.54305   0.97882   0.74820   0.00000  Uiso   1.00
C1068  C     0.47374   0.83225   0.85026   0.00000  Uiso   1.00
C1069  C     0.54302   0.68806   0.74815   0.00000  Uiso   1.00
C1070  C     0.50001   0.70942   0.74984   0.00000  Uiso   1.00
C1071  C     0.45704   0.68787   0.75152   0.00000  Uiso   1.00
C1072  C     0.45706   0.97863   0.75161   0.00000  Uiso   1.00
C1073  C     0.50006   0.95726   0.74997   0.00000  Uiso   1.00
C1074  C     0.63304   0.85951   0.78222   0.00000  Uiso   1.00
C1075  C     0.34944   0.85933   0.78210   0.00000  Uiso   1.00
C1076  C     0.36695   0.80712   0.71814   0.00000  Uiso   1.00
C1077  C     0.65067   0.80702   0.71832   0.00000  Uiso   1.00
C1078  C     0.49998   0.75403   0.74992   0.00000  Uiso   1.00
C1079  C     0.52623   0.83091   0.64988   0.00000  Uiso   1.00
C1080  C     0.58670   0.77965   0.51850   0.00000  Uiso   1.00
C1081  C     0.54072   0.82064   0.59360   0.00000  Uiso   1.00
C1082  C     0.41360   0.85206   0.93408   0.00000  Uiso   1.00
C1083  C     0.39727   0.85432   0.98846   0.00000  Uiso   1.00
C1084  C     0.42642   0.83891   0.51823   0.00000  Uiso   1.00
Cu1085 Cu    0.45311   0.83333   0.75000   0.00000  Uiso   1.00
Cu1086 Cu    0.54689   0.83334   0.75000   0.00000  Uiso   1.00
H1087  H     0.42342   0.70380   0.75285   0.00000  Uiso   1.00
H1088  H     0.36131   0.88006   0.80776   0.00000  Uiso   1.00
H1089  H     0.63900   0.78564   0.69334   0.00000  Uiso   1.00
H1090  H     0.48252   0.85635   0.58268   0.00000  Uiso   1.00
H1091  H     0.53303   0.77710   0.87431   0.00000  Uiso   1.00
N1092  N     0.38265   0.83332   0.74998   0.00000  Uiso   1.00
N1093  N     0.61735   0.83335   0.75000   0.00000  Uiso   1.00
O1094  O     0.46042   0.89345   0.75000   0.00000  Uiso   1.00
O1095  O     0.53961   0.89346   0.75001   0.00000  Uiso   1.00
O1096  O     0.44108   0.83332   0.82549   0.00000  Uiso   1.00
O1097  O     0.52027   0.83333   0.82549   0.00000  Uiso   1.00
O1098  O     0.46039   0.77321   0.75000   0.00000  Uiso   1.00
O1099  O     0.53958   0.77322   0.75000   0.00000  Uiso   1.00
O1100  O     0.47973   0.83334   0.67451   0.00000  Uiso   1.00
O1101  O     0.55892   0.83335   0.67451   0.00000  Uiso   1.00
N1102  N     0.61227   0.77853   0.59753   0.00000  Uiso   1.00
H1103  H     0.59152   0.76347   0.63143   0.00000  Uiso   1.00
H1104  H     0.63075   0.80341   0.60781   0.00000  Uiso   1.00
H1105  H     0.57665   0.70415   0.74672   0.00000  Uiso   1.00
H1106  H     0.42343   0.96254   0.75302   0.00000  Uiso   1.00
N1107  N     0.59906   0.88702   0.81649   0.00000  Uiso   1.00
H1108  H     0.59843   0.88052   0.85498   0.00000  Uiso   1.00
H1109  H     0.61229   0.91700   0.80799   0.00000  Uiso   1.00
H1110  H     0.39269   0.78606   0.69264   0.00000  Uiso   1.00
H1111  H     0.58819   0.75620   0.92043   0.00000  Uiso   1.00
N1112  N     0.62853   0.75421   0.99456   0.00000  Uiso   1.00
H1113  H     0.61633   0.72578   0.98480   0.00000  Uiso   1.00
H1114  H     0.64995   0.76858   0.96042   0.00000  Uiso   1.00
H1115  H     0.39118   0.86545   0.91205   0.00000  Uiso   1.00
N1116  N     0.40280   0.83320   0.57340   0.00000  Uiso   1.00
H1117  H     0.41802   0.80865   0.58824   0.00000  Uiso   1.00
H1118  H     0.40419   0.86054   0.59367   0.00000  Uiso   1.00
N1119  N     0.35037   0.87257   0.51313   0.00000  Uiso   1.00
H1120  H     0.35520   0.89676   0.53708   0.00000  Uiso   1.00
H1121  H     0.66118   0.85053   0.53691   0.00000  Uiso   1.00
H1122  H     0.57669   0.96289   0.74675   0.00000  Uiso   1.00
C1123  C     0.83337   0.91264   0.75002   0.00000  Uiso   1.00
C1124  C     0.80781   0.82326   0.99194   0.00000  Uiso   1.00
C1125  C     0.81985   0.81502   0.93733   0.00000  Uiso   1.00
C1126  C     0.84419   0.81482   0.51733   0.00000  Uiso   1.00
C1127  C     0.88551   0.79000   0.99200   0.00000  Uiso   1.00
C1128  C     0.89147   0.77611   0.94080   0.00000  Uiso   1.00
C1129  C     0.85980   0.78898   0.91367   0.00000  Uiso   1.00
C1130  C     0.84230   0.83272   0.56567   0.00000  Uiso   1.00
C1131  C     0.91320   0.79358   0.56990   0.00000  Uiso   1.00
C1132  C     0.79083   0.83207   0.90804   0.00000  Uiso   1.00
C1133  C     0.87638   0.97882   0.74820   0.00000  Uiso   1.00
C1134  C     0.80707   0.83225   0.85026   0.00000  Uiso   1.00
C1135  C     0.87635   0.68806   0.74815   0.00000  Uiso   1.00
C1136  C     0.83334   0.70942   0.74984   0.00000  Uiso   1.00
C1137  C     0.79038   0.68787   0.75152   0.00000  Uiso   1.00
C1138  C     0.79039   0.97863   0.75161   0.00000  Uiso   1.00
C1139  C     0.83339   0.95726   0.74997   0.00000  Uiso   1.00
C1140  C     0.96637   0.85951   0.78222   0.00000  Uiso   1.00
C1141  C     0.68277   0.85933   0.78210   0.00000  Uiso   1.00
C1142  C     0.70029   0.80712   0.71814   0.00000  Uiso   1.00
C1143  C     0.98400   0.80702   0.71832   0.00000  Uiso   1.00
C1144  C     0.83332   0.75403   0.74992   0.00000  Uiso   1.00
C1145  C     0.85957   0.83091   0.64988   0.00000  Uiso   1.00
C1146  C     0.92003   0.77965   0.51850   0.00000  Uiso   1.00
C1147  C     0.87405   0.82064   0.59360   0.00000  Uiso   1.00
C1148  C     0.74693   0.85206   0.93408   0.00000  Uiso   1.00
C1149  C     0.73060   0.85432   0.98846   0.00000  Uiso   1.00
C1150  C     0.75975   0.83891   0.51823   0.00000  Uiso   1.00
Cu1151 Cu    0.78645   0.83333   0.75000   0.00000  Uiso   1.00
Cu1152 Cu    0.88022   0.83334   0.75000   0.00000  Uiso   1.00
H1153  H     0.75676   0.70380   0.75285   0.00000  Uiso   1.00
H1154  H     0.69465   0.88006   0.80776   0.00000  Uiso   1.00
H1155  H     0.97234   0.78564   0.69334   0.00000  Uiso   1.00
H1156  H     0.81586   0.85635   0.58268   0.00000  Uiso   1.00
H1157  H     0.86637   0.77710   0.87431   0.00000  Uiso   1.00
N1158  N     0.71598   0.83332   0.74998   0.00000  Uiso   1.00
N1159  N     0.95069   0.83335   0.75000   0.00000  Uiso   1.00
O1160  O     0.79375   0.89345   0.75000   0.00000  Uiso   1.00
O1161  O     0.87294   0.89346   0.75001   0.00000  Uiso   1.00
O1162  O     0.77441   0.83332   0.82549   0.00000  Uiso   1.00
O1163  O     0.85360   0.83333   0.82549   0.00000  Uiso   1.00
O1164  O     0.79373   0.77321   0.75000   0.00000  Uiso   1.00
O1165  O     0.87292   0.77322   0.75000   0.00000  Uiso   1.00
O1166  O     0.81306   0.83334   0.67451   0.00000  Uiso   1.00
O1167  O     0.89225   0.83335   0.67451   0.00000  Uiso   1.00
N1168  N     0.94560   0.77853   0.59753   0.00000  Uiso   1.00
H1169  H     0.92485   0.76347   0.63143   0.00000  Uiso   1.00
H1170  H     0.96409   0.80341   0.60781   0.00000  Uiso   1.00
H1171  H     0.90998   0.70415   0.74672   0.00000  Uiso   1.00
H1172  H     0.75677   0.96254   0.75302   0.00000  Uiso   1.00
N1173  N     0.93239   0.88702   0.81649   0.00000  Uiso   1.00
H1174  H     0.93176   0.88052   0.85498   0.00000  Uiso   1.00
H1175  H     0.94562   0.91700   0.80799   0.00000  Uiso   1.00
H1176  H     0.72602   0.78606   0.69264   0.00000  Uiso   1.00
H1177  H     0.92152   0.75620   0.92043   0.00000  Uiso   1.00
N1178  N     0.96186   0.75421   0.99456   0.00000  Uiso   1.00
H1179  H     0.94967   0.72578   0.98480   0.00000  Uiso   1.00
H1180  H     0.98328   0.76858   0.96042   0.00000  Uiso   1.00
H1181  H     0.72452   0.86545   0.91205   0.00000  Uiso   1.00
N1182  N     0.73613   0.83320   0.57340   0.00000  Uiso   1.00
H1183  H     0.75136   0.80865   0.58824   0.00000  Uiso   1.00
H1184  H     0.73752   0.86054   0.59367   0.00000  Uiso   1.00
N1185  N     0.68370   0.87257   0.51313   0.00000  Uiso   1.00
H1186  H     0.68853   0.89676   0.53708   0.00000  Uiso   1.00
H1187  H     0.99452   0.85053   0.53691   0.00000  Uiso   1.00
H1188  H     0.91002   0.96289   0.74675   0.00000  Uiso   1.00
loop_
_geom_bond_atom_site_label_1
_geom_bond_atom_site_label_2
_geom_bond_distance
_geom_bond_site_symmetry_2
_ccdc_geom_bond_type
C1     C17     1.450   .     S
C1     O38     1.291   .     A
C1     O39     1.292   .     A
C2     C3      1.419   .     A
C2     C598    1.428   .     S
C2     C622    1.435   .     S
C3     C10     1.415   .     A
C3     C7      1.409   .     A
C4     C8      1.400   .     A
C4     C596    1.428   1_554 S
C4     C599    1.422   1_554 S
C5     C6      1.399   .     A
C5     C598    1.422   .     S
C5     C618    1.418   .     S
C6     H55     1.082   .     S
C6     C7      1.384   .     A
C7     H35     1.081   .     S
C8     H34     1.077   .     S
C8     C25     1.394   .     A
C9     C25     1.414   .     A
C9     N46     1.434   .     S
C9     C24     1.400   .     A
C10    C26     1.398   .     A
C10    C12     1.473   .     S
C11    H66     1.083   .     S
C11    C17     1.401   .     A
C11    C211    1.383   .     S
C12    O40     1.296   .     A
C12    O41     1.296   .     A
C13    C14     1.401   .     A
C13    H49     1.083   .     S
C13    C407    1.383   1_545 S
C14    C22     1.450   .     S
C14    C15     1.401   .     A
C15    H31     1.083   .     S
C15    C412    1.383   1_545 S
C16    C17     1.401   .     A
C16    H50     1.083   .     S
C16    C213    1.383   .     S
C18    N37     1.373   .     A
C18    N51     1.429   .     S
C18    C85     1.420   .     S
C19    H32     1.082   .     S
C19    N36     1.363   .     A
C19    C150    1.420   1_455 S
C20    H54     1.082   .     S
C20    N36     1.367   .     A
C20    C153    1.416   1_455 S
C21    H33     1.080   .     S
C21    N37     1.367   .     A
C21    C86     1.416   .     S
C22    O43     1.291   .     A
C22    O42     1.292   .     A
C23    O45     1.295   .     A
C23    C25     1.472   .     S
C23    O44     1.296   .     A
C24    C599    1.418   1_554 S
C24    N650    1.436   1_554 S
C26    H59     1.084   .     S
C26    C27     1.388   .     A
C27    C622    1.407   .     S
C27    N657    1.432   .     S
C28    N60     1.438   .     S
C28    C621    1.407   1_554 S
C28    C596    1.435   1_554 S
Cu29   O38     1.964   .     S
Cu29   O42     1.965   .     S
Cu29   N36     2.013   .     S
Cu29   Cu30    2.679   .     S
Cu29   O40     1.942   .     S
Cu29   O44     1.930   .     S
Cu30   O41     1.930   .     S
Cu30   O45     1.942   .     S
Cu30   O39     1.965   .     S
Cu30   O43     1.964   .     S
Cu30   N37     2.013   .     S
N46    H48     1.044   .     S
N46    H47     1.045   .     S
N51    H52     1.046   .     S
N51    H53     1.045   .     S
N56    H58     1.046   .     S
N56    H57     1.045   .     S
N56    C618    1.436   .     S
N60    H62     1.045   .     S
N60    H61     1.045   .     S
N63    H64     1.046   .     S
N63    C621    1.432   1_554 S
N63    H197    1.043   1_455 S
H65    N129    1.043   .     S
C67    C83     1.450   .     S
C67    O104    1.291   .     A
C67    O105    1.292   .     A
C68    C69     1.419   .     A
C68    C664    1.428   .     S
C68    C688    1.435   .     S
C69    C76     1.415   .     A
C69    C73     1.409   .     A
C70    C74     1.400   .     A
C70    C662    1.428   1_554 S
C70    C665    1.422   1_554 S
C71    C72     1.399   .     A
C71    C664    1.422   .     S
C71    C684    1.418   .     S
C72    H121    1.082   .     S
C72    C73     1.384   .     A
C73    H101    1.081   .     S
C74    H100    1.077   .     S
C74    C91     1.394   .     A
C75    C91     1.414   .     A
C75    N112    1.434   .     S
C75    C90     1.400   .     A
C76    C92     1.398   .     A
C76    C78     1.473   .     S
C77    H132    1.083   .     S
C77    C83     1.401   .     A
C77    C277    1.383   .     S
C78    O106    1.296   .     A
C78    O107    1.296   .     A
C79    C80     1.401   .     A
C79    H115    1.083   .     S
C79    C473    1.383   1_545 S
C80    C88     1.450   .     S
C80    C81     1.401   .     A
C81    H97     1.083   .     S
C81    C478    1.383   1_545 S
C82    C83     1.401   .     A
C82    H116    1.083   .     S
C82    C279    1.383   .     S
C84    N103    1.373   .     A
C84    N117    1.429   .     S
C84    C151    1.420   .     S
C85    H98     1.082   .     S
C85    N102    1.363   .     A
C86    H120    1.082   .     S
C86    N102    1.367   .     A
C87    H99     1.080   .     S
C87    N103    1.367   .     A
C87    C152    1.416   .     S
C88    O109    1.291   .     A
C88    O108    1.292   .     A
C89    O111    1.295   .     A
C89    C91     1.472   .     S
C89    O110    1.296   .     A
C90    C665    1.418   1_554 S
C90    N716    1.436   1_554 S
C92    H125    1.084   .     S
C92    C93     1.388   .     A
C93    C688    1.407   .     S
C93    N723    1.432   .     S
C94    N126    1.438   .     S
C94    C687    1.407   1_554 S
C94    C662    1.435   1_554 S
Cu95   O104    1.964   .     S
Cu95   O108    1.965   .     S
Cu95   N102    2.013   .     S
Cu95   Cu96    2.679   .     S
Cu95   O106    1.942   .     S
Cu95   O110    1.930   .     S
Cu96   O107    1.930   .     S
Cu96   O111    1.942   .     S
Cu96   O105    1.965   .     S
Cu96   O109    1.964   .     S
Cu96   N103    2.013   .     S
N112   H114    1.044   .     S
N112   H113    1.045   .     S
N117   H118    1.046   .     S
N117   H119    1.045   .     S
N122   H124    1.046   .     S
N122   H123    1.045   .     S
N122   C684    1.436   .     S
N126   H128    1.045   .     S
N126   H127    1.045   .     S
N129   H130    1.046   .     S
N129   C687    1.432   1_554 S
H131   N195    1.043   .     S
C133   C149    1.450   .     S
C133   O170    1.291   .     A
C133   O171    1.292   .     A
C134   C135    1.419   .     A
C134   C730    1.428   .     S
C134   C754    1.435   .     S
C135   C142    1.415   .     A
C135   C139    1.409   .     A
C136   C140    1.400   .     A
C136   C728    1.428   1_554 S
C136   C731    1.422   1_554 S
C137   C138    1.399   .     A
C137   C730    1.422   .     S
C137   C750    1.418   .     S
C138   H187    1.082   .     S
C138   C139    1.384   .     A
C139   H167    1.081   .     S
C140   H166    1.077   .     S
C140   C157    1.394   .     A
C141   C157    1.414   .     A
C141   N178    1.434   .     S
C141   C156    1.400   .     A
C142   C158    1.398   .     A
C142   C144    1.473   .     S
C143   H198    1.083   .     S
C143   C149    1.401   .     A
C143   C343    1.383   .     S
C144   O172    1.296   .     A
C144   O173    1.296   .     A
C145   C146    1.401   .     A
C145   H181    1.083   .     S
C145   C539    1.383   1_545 S
C146   C154    1.450   .     S
C146   C147    1.401   .     A
C147   H163    1.083   .     S
C147   C544    1.383   1_545 S
C148   C149    1.401   .     A
C148   H182    1.083   .     S
C148   C345    1.383   .     S
C150   N169    1.373   .     A
C150   N183    1.429   .     S
C150   C19     1.420   1_655 S
C151   H164    1.082   .     S
C151   N168    1.363   .     A
C152   H186    1.082   .     S
C152   N168    1.367   .     A
C153   H165    1.080   .     S
C153   N169    1.367   .     A
C153   C20     1.416   1_655 S
C154   O175    1.291   .     A
C154   O174    1.292   .     A
C155   O177    1.295   .     A
C155   C157    1.472   .     S
C155   O176    1.296   .     A
C156   C731    1.418   1_554 S
C156   N782    1.436   1_554 S
C158   H191    1.084   .     S
C158   C159    1.388   .     A
C159   C754    1.407   .     S
C159   N789    1.432   .     S
C160   N192    1.438   .     S
C160   C753    1.407   1_554 S
C160   C728    1.435   1_554 S
Cu161  O170    1.964   .     S
Cu161  O174    1.965   .     S
Cu161  N168    2.013   .     S
Cu161  Cu162   2.679   .     S
Cu161  O172    1.942   .     S
Cu161  O176    1.930   .     S
Cu162  O173    1.930   .     S
Cu162  O177    1.942   .     S
Cu162  O171    1.965   .     S
Cu162  O175    1.964   .     S
Cu162  N169    2.013   .     S
N178   H180    1.044   .     S
N178   H179    1.045   .     S
N183   H184    1.046   .     S
N183   H185    1.045   .     S
N188   H190    1.046   .     S
N188   H189    1.045   .     S
N188   C750    1.436   .     S
N192   H194    1.045   .     S
N192   H193    1.045   .     S
N195   H196    1.046   .     S
N195   C753    1.432   1_554 S
H197   N63     1.043   1_655 S
C199   C215    1.450   .     S
C199   O236    1.291   .     A
C199   O237    1.292   .     A
C200   C201    1.419   .     A
C200   C796    1.428   .     S
C200   C820    1.435   .     S
C201   C208    1.415   .     A
C201   C205    1.409   .     A
C202   C206    1.400   .     A
C202   C794    1.428   1_554 S
C202   C797    1.422   1_554 S
C203   C204    1.399   .     A
C203   C796    1.422   .     S
C203   C816    1.418   .     S
C204   H253    1.082   .     S
C204   C205    1.384   .     A
C205   H233    1.081   .     S
C206   H232    1.077   .     S
C206   C223    1.394   .     A
C207   C223    1.414   .     A
C207   N244    1.434   .     S
C207   C222    1.400   .     A
C208   C224    1.398   .     A
C208   C210    1.473   .     S
C209   H264    1.083   .     S
C209   C215    1.401   .     A
C209   C409    1.383   .     S
C210   O238    1.296   .     A
C210   O239    1.296   .     A
C211   C212    1.401   .     A
C211   H247    1.083   .     S
C212   C220    1.450   .     S
C212   C213    1.401   .     A
C213   H229    1.083   .     S
C214   C215    1.401   .     A
C214   H248    1.083   .     S
C214   C411    1.383   .     S
C216   N235    1.373   .     A
C216   N249    1.429   .     S
C216   C283    1.420   .     S
C217   H230    1.082   .     S
C217   N234    1.363   .     A
C217   C348    1.420   1_455 S
C218   H252    1.082   .     S
C218   N234    1.367   .     A
C218   C351    1.416   1_455 S
C219   H231    1.080   .     S
C219   N235    1.367   .     A
C219   C284    1.416   .     S
C220   O241    1.291   .     A
C220   O240    1.292   .     A
C221   O243    1.295   .     A
C221   C223    1.472   .     S
C221   O242    1.296   .     A
C222   C797    1.418   1_554 S
C222   N848    1.436   1_554 S
C224   H257    1.084   .     S
C224   C225    1.388   .     A
C225   C820    1.407   .     S
C225   N855    1.432   .     S
C226   N258    1.438   .     S
C226   C819    1.407   1_554 S
C226   C794    1.435   1_554 S
Cu227  O236    1.964   .     S
Cu227  O240    1.965   .     S
Cu227  N234    2.013   .     S
Cu227  Cu228   2.679   .     S
Cu227  O238    1.942   .     S
Cu227  O242    1.930   .     S
Cu228  O239    1.930   .     S
Cu228  O243    1.942   .     S
Cu228  O237    1.965   .     S
Cu228  O241    1.964   .     S
Cu228  N235    2.013   .     S
N244   H246    1.044   .     S
N244   H245    1.045   .     S
N249   H250    1.046   .     S
N249   H251    1.045   .     S
N254   H256    1.046   .     S
N254   H255    1.045   .     S
N254   C816    1.436   .     S
N258   H260    1.045   .     S
N258   H259    1.045   .     S
N261   H262    1.046   .     S
N261   C819    1.432   1_554 S
N261   H395    1.043   1_455 S
H263   N327    1.043   .     S
C265   C281    1.450   .     S
C265   O302    1.291   .     A
C265   O303    1.292   .     A
C266   C267    1.419   .     A
C266   C862    1.428   .     S
C266   C886    1.435   .     S
C267   C274    1.415   .     A
C267   C271    1.409   .     A
C268   C272    1.400   .     A
C268   C860    1.428   1_554 S
C268   C863    1.422   1_554 S
C269   C270    1.399   .     A
C269   C862    1.422   .     S
C269   C882    1.418   .     S
C270   H319    1.082   .     S
C270   C271    1.384   .     A
C271   H299    1.081   .     S
C272   H298    1.077   .     S
C272   C289    1.394   .     A
C273   C289    1.414   .     A
C273   N310    1.434   .     S
C273   C288    1.400   .     A
C274   C290    1.398   .     A
C274   C276    1.473   .     S
C275   H330    1.083   .     S
C275   C281    1.401   .     A
C275   C475    1.383   .     S
C276   O304    1.296   .     A
C276   O305    1.296   .     A
C277   C278    1.401   .     A
C277   H313    1.083   .     S
C278   C286    1.450   .     S
C278   C279    1.401   .     A
C279   H295    1.083   .     S
C280   C281    1.401   .     A
C280   H314    1.083   .     S
C280   C477    1.383   .     S
C282   N301    1.373   .     A
C282   N315    1.429   .     S
C282   C349    1.420   .     S
C283   H296    1.082   .     S
C283   N300    1.363   .     A
C284   H318    1.082   .     S
C284   N300    1.367   .     A
C285   H297    1.080   .     S
C285   N301    1.367   .     A
C285   C350    1.416   .     S
C286   O307    1.291   .     A
C286   O306    1.292   .     A
C287   O309    1.295   .     A
C287   C289    1.472   .     S
C287   O308    1.296   .     A
C288   C863    1.418   1_554 S
C288   N914    1.436   1_554 S
C290   H323    1.084   .     S
C290   C291    1.388   .     A
C291   C886    1.407   .     S
C291   N921    1.432   .     S
C292   N324    1.438   .     S
C292   C885    1.407   1_554 S
C292   C860    1.435   1_554 S
Cu293  O302    1.964   .     S
Cu293  O306    1.965   .     S
Cu293  N300    2.013   .     S
Cu293  Cu294   2.679   .     S
Cu293  O304    1.942   .     S
Cu293  O308    1.930   .     S
Cu294  O305    1.930   .     S
Cu294  O309    1.942   .     S
Cu294  O303    1.965   .     S
Cu294  O307    1.964   .     S
Cu294  N301    2.013   .     S
N310   H312    1.044   .     S
N310   H311    1.045   .     S
N315   H316    1.046   .     S
N315   H317    1.045   .     S
N320   H322    1.046   .     S
N320   H321    1.045   .     S
N320   C882    1.436   .     S
N324   H326    1.045   .     S
N324   H325    1.045   .     S
N327   H328    1.046   .     S
N327   C885    1.432   1_554 S
H329   N393    1.043   .     S
C331   C347    1.450   .     S
C331   O368    1.291   .     A
C331   O369    1.292   .     A
C332   C333    1.419   .     A
C332   C928    1.428   .     S
C332   C952    1.435   .     S
C333   C340    1.415   .     A
C333   C337    1.409   .     A
C334   C338    1.400   .     A
C334   C926    1.428   1_554 S
C334   C929    1.422   1_554 S
C335   C336    1.399   .     A
C335   C928    1.422   .     S
C335   C948    1.418   .     S
C336   H385    1.082   .     S
C336   C337    1.384   .     A
C337   H365    1.081   .     S
C338   H364    1.077   .     S
C338   C355    1.394   .     A
C339   C355    1.414   .     A
C339   N376    1.434   .     S
C339   C354    1.400   .     A
C340   C356    1.398   .     A
C340   C342    1.473   .     S
C341   H396    1.083   .     S
C341   C347    1.401   .     A
C341   C541    1.383   .     S
C342   O370    1.296   .     A
C342   O371    1.296   .     A
C343   C344    1.401   .     A
C343   H379    1.083   .     S
C344   C352    1.450   .     S
C344   C345    1.401   .     A
C345   H361    1.083   .     S
C346   C347    1.401   .     A
C346   H380    1.083   .     S
C346   C543    1.383   .     S
C348   N367    1.373   .     A
C348   N381    1.429   .     S
C348   C217    1.420   1_655 S
C349   H362    1.082   .     S
C349   N366    1.363   .     A
C350   H384    1.082   .     S
C350   N366    1.367   .     A
C351   H363    1.080   .     S
C351   N367    1.367   .     A
C351   C218    1.416   1_655 S
C352   O373    1.291   .     A
C352   O372    1.292   .     A
C353   O375    1.295   .     A
C353   C355    1.472   .     S
C353   O374    1.296   .     A
C354   C929    1.418   1_554 S
C354   N980    1.436   1_554 S
C356   H389    1.084   .     S
C356   C357    1.388   .     A
C357   C952    1.407   .     S
C357   N987    1.432   .     S
C358   N390    1.438   .     S
C358   C951    1.407   1_554 S
C358   C926    1.435   1_554 S
Cu359  O368    1.964   .     S
Cu359  O372    1.965   .     S
Cu359  N366    2.013   .     S
Cu359  Cu360   2.679   .     S
Cu359  O370    1.942   .     S
Cu359  O374    1.930   .     S
Cu360  O371    1.930   .     S
Cu360  O375    1.942   .     S
Cu360  O369    1.965   .     S
Cu360  O373    1.964   .     S
Cu360  N367    2.013   .     S
N376   H378    1.044   .     S
N376   H377    1.045   .     S
N381   H382    1.046   .     S
N381   H383    1.045   .     S
N386   H388    1.046   .     S
N386   H387    1.045   .     S
N386   C948    1.436   .     S
N390   H392    1.045   .     S
N390   H391    1.045   .     S
N393   H394    1.046   .     S
N393   C951    1.432   1_554 S
H395   N261    1.043   1_655 S
C397   C413    1.450   .     S
C397   O434    1.291   .     A
C397   O435    1.292   .     A
C398   C399    1.419   .     A
C398   C994    1.428   .     S
C398   C1018   1.435   .     S
C399   C406    1.415   .     A
C399   C403    1.409   .     A
C400   C404    1.400   .     A
C400   C992    1.428   1_554 S
C400   C995    1.422   1_554 S
C401   C402    1.399   .     A
C401   C994    1.422   .     S
C401   C1014   1.418   .     S
C402   H451    1.082   .     S
C402   C403    1.384   .     A
C403   H431    1.081   .     S
C404   H430    1.077   .     S
C404   C421    1.394   .     A
C405   C421    1.414   .     A
C405   N442    1.434   .     S
C405   C420    1.400   .     A
C406   C422    1.398   .     A
C406   C408    1.473   .     S
C407   H462    1.083   .     S
C407   C413    1.401   .     A
C407   C13     1.383   1_565 S
C408   O436    1.296   .     A
C408   O437    1.296   .     A
C409   C410    1.401   .     A
C409   H445    1.083   .     S
C410   C418    1.450   .     S
C410   C411    1.401   .     A
C411   H427    1.083   .     S
C412   C413    1.401   .     A
C412   H446    1.083   .     S
C412   C15     1.383   1_565 S
C414   N433    1.373   .     A
C414   N447    1.429   .     S
C414   C481    1.420   .     S
C415   H428    1.082   .     S
C415   N432    1.363   .     A
C415   C546    1.420   1_455 S
C416   H450    1.082   .     S
C416   N432    1.367   .     A
C416   C549    1.416   1_455 S
C417   H429    1.080   .     S
C417   N433    1.367   .     A
C417   C482    1.416   .     S
C418   O439    1.291   .     A
C418   O438    1.292   .     A
C419   O441    1.295   .     A
C419   C421    1.472   .     S
C419   O440    1.296   .     A
C420   C995    1.418   1_554 S
C420   N1046   1.436   1_554 S
C422   H455    1.084   .     S
C422   C423    1.388   .     A
C423   C1018   1.407   .     S
C423   N1053   1.432   .     S
C424   N456    1.438   .     S
C424   C1017   1.407   1_554 S
C424   C992    1.435   1_554 S
Cu425  O434    1.964   .     S
Cu425  O438    1.965   .     S
Cu425  N432    2.013   .     S
Cu425  Cu426   2.679   .     S
Cu425  O436    1.942   .     S
Cu425  O440    1.930   .     S
Cu426  O437    1.930   .     S
Cu426  O441    1.942   .     S
Cu426  O435    1.965   .     S
Cu426  O439    1.964   .     S
Cu426  N433    2.013   .     S
N442   H444    1.044   .     S
N442   H443    1.045   .     S
N447   H448    1.046   .     S
N447   H449    1.045   .     S
N452   H454    1.046   .     S
N452   H453    1.045   .     S
N452   C1014   1.436   .     S
N456   H458    1.045   .     S
N456   H457    1.045   .     S
N459   H460    1.046   .     S
N459   C1017   1.432   1_554 S
N459   H593    1.043   1_455 S
H461   N525    1.043   .     S
C463   C479    1.450   .     S
C463   O500    1.291   .     A
C463   O501    1.292   .     A
C464   C465    1.419   .     A
C464   C1060   1.428   .     S
C464   C1084   1.435   .     S
C465   C472    1.415   .     A
C465   C469    1.409   .     A
C466   C470    1.400   .     A
C466   C1058   1.428   1_554 S
C466   C1061   1.422   1_554 S
C467   C468    1.399   .     A
C467   C1060   1.422   .     S
C467   C1080   1.418   .     S
C468   H517    1.082   .     S
C468   C469    1.384   .     A
C469   H497    1.081   .     S
C470   H496    1.077   .     S
C470   C487    1.394   .     A
C471   C487    1.414   .     A
C471   N508    1.434   .     S
C471   C486    1.400   .     A
C472   C488    1.398   .     A
C472   C474    1.473   .     S
C473   H528    1.083   .     S
C473   C479    1.401   .     A
C473   C79     1.383   1_565 S
C474   O502    1.296   .     A
C474   O503    1.296   .     A
C475   C476    1.401   .     A
C475   H511    1.083   .     S
C476   C484    1.450   .     S
C476   C477    1.401   .     A
C477   H493    1.083   .     S
C478   C479    1.401   .     A
C478   H512    1.083   .     S
C478   C81     1.383   1_565 S
C480   N499    1.373   .     A
C480   N513    1.429   .     S
C480   C547    1.420   .     S
C481   H494    1.082   .     S
C481   N498    1.363   .     A
C482   H516    1.082   .     S
C482   N498    1.367   .     A
C483   H495    1.080   .     S
C483   N499    1.367   .     A
C483   C548    1.416   .     S
C484   O505    1.291   .     A
C484   O504    1.292   .     A
C485   O507    1.295   .     A
C485   C487    1.472   .     S
C485   O506    1.296   .     A
C486   C1061   1.418   1_554 S
C486   N1112   1.436   1_554 S
C488   H521    1.084   .     S
C488   C489    1.388   .     A
C489   C1084   1.407   .     S
C489   N1119   1.432   .     S
C490   N522    1.438   .     S
C490   C1083   1.407   1_554 S
C490   C1058   1.435   1_554 S
Cu491  O500    1.964   .     S
Cu491  O504    1.965   .     S
Cu491  N498    2.013   .     S
Cu491  Cu492   2.679   .     S
Cu491  O502    1.942   .     S
Cu491  O506    1.930   .     S
Cu492  O503    1.930   .     S
Cu492  O507    1.942   .     S
Cu492  O501    1.965   .     S
Cu492  O505    1.964   .     S
Cu492  N499    2.013   .     S
N508   H510    1.044   .     S
N508   H509    1.045   .     S
N513   H514    1.046   .     S
N513   H515    1.045   .     S
N518   H520    1.046   .     S
N518   H519    1.045   .     S
N518   C1080   1.436   .     S
N522   H524    1.045   .     S
N522   H523    1.045   .     S
N525   H526    1.046   .     S
N525   C1083   1.432   1_554 S
H527   N591    1.043   .     S
C529   C545    1.450   .     S
C529   O566    1.291   .     A
C529   O567    1.292   .     A
C530   C531    1.419   .     A
C530   C1126   1.428   .     S
C530   C1150   1.435   .     S
C531   C538    1.415   .     A
C531   C535    1.409   .     A
C532   C536    1.400   .     A
C532   C1124   1.428   1_554 S
C532   C1127   1.422   1_554 S
C533   C534    1.399   .     A
C533   C1126   1.422   .     S
C533   C1146   1.418   .     S
C534   H583    1.082   .     S
C534   C535    1.384   .     A
C535   H563    1.081   .     S
C536   H562    1.077   .     S
C536   C553    1.394   .     A
C537   C553    1.414   .     A
C537   N574    1.434   .     S
C537   C552    1.400   .     A
C538   C554    1.398   .     A
C538   C540    1.473   .     S
C539   H594    1.083   .     S
C539   C545    1.401   .     A
C539   C145    1.383   1_565 S
C540   O568    1.296   .     A
C540   O569    1.296   .     A
C541   C542    1.401   .     A
C541   H577    1.083   .     S
C542   C550    1.450   .     S
C542   C543    1.401   .     A
C543   H559    1.083   .     S
C544   C545    1.401   .     A
C544   H578    1.083   .     S
C544   C147    1.383   1_565 S
C546   N565    1.373   .     A
C546   N579    1.429   .     S
C546   C415    1.420   1_655 S
C547   H560    1.082   .     S
C547   N564    1.363   .     A
C548   H582    1.082   .     S
C548   N564    1.367   .     A
C549   H561    1.080   .     S
C549   N565    1.367   .     A
C549   C416    1.416   1_655 S
C550   O571    1.291   .     A
C550   O570    1.292   .     A
C551   O573    1.295   .     A
C551   C553    1.472   .     S
C551   O572    1.296   .     A
C552   C1127   1.418   1_554 S
C552   N1178   1.436   1_554 S
C554   H587    1.084   .     S
C554   C555    1.388   .     A
C555   C1150   1.407   .     S
C555   N1185   1.432   .     S
C556   N588    1.438   .     S
C556   C1149   1.407   1_554 S
C556   C1124   1.435   1_554 S
Cu557  O566    1.964   .     S
Cu557  O570    1.965   .     S
Cu557  N564    2.013   .     S
Cu557  Cu558   2.679   .     S
Cu557  O568    1.942   .     S
Cu557  O572    1.930   .     S
Cu558  O569    1.930   .     S
Cu558  O573    1.942   .     S
Cu558  O567    1.965   .     S
Cu558  O571    1.964   .     S
Cu558  N565    2.013   .     S
N574   H576    1.044   .     S
N574   H575    1.045   .     S
N579   H580    1.046   .     S
N579   H581    1.045   .     S
N584   H586    1.046   .     S
N584   H585    1.045   .     S
N584   C1146   1.436   .     S
N588   H590    1.045   .     S
N588   H589    1.045   .     S
N591   H592    1.046   .     S
N591   C1149   1.432   1_554 S
H593   N459    1.043   1_655 S
C595   C611    1.450   .     S
C595   O632    1.291   .     A
C595   O633    1.292   .     A
C596   C597    1.419   .     A
C596   C4      1.428   1_556 S
C596   C28     1.435   1_556 S
C597   C604    1.415   .     A
C597   C601    1.409   .     A
C598   C602    1.400   .     A
C599   C600    1.399   .     A
C599   C4      1.422   1_556 S
C599   C24     1.418   1_556 S
C600   H649    1.082   .     S
C600   C601    1.384   .     A
C601   H629    1.081   .     S
C602   H628    1.077   .     S
C602   C619    1.394   .     A
C603   C619    1.414   .     A
C603   N640    1.434   .     S
C603   C618    1.400   .     A
C604   C620    1.398   .     A
C604   C606    1.473   .     S
C605   H660    1.083   .     S
C605   C611    1.401   .     A
C605   C805    1.383   .     S
C606   O634    1.296   .     A
C606   O635    1.296   .     A
C607   C608    1.401   .     A
C607   H643    1.083   .     S
C607   C1001   1.383   1_545 S
C608   C616    1.450   .     S
C608   C609    1.401   .     A
C609   H625    1.083   .     S
C609   C1006   1.383   1_545 S
C610   C611    1.401   .     A
C610   H644    1.083   .     S
C610   C807    1.383   .     S
C612   N631    1.373   .     A
C612   N645    1.429   .     S
C612   C679    1.420   .     S
C613   H626    1.082   .     S
C613   N630    1.363   .     A
C613   C744    1.420   1_455 S
C614   H648    1.082   .     S
C614   N630    1.367   .     A
C614   C747    1.416   1_455 S
C615   H627    1.080   .     S
C615   N631    1.367   .     A
C615   C680    1.416   .     S
C616   O637    1.291   .     A
C616   O636    1.292   .     A
C617   O639    1.295   .     A
C617   C619    1.472   .     S
C617   O638    1.296   .     A
C620   H653    1.084   .     S
C620   C621    1.388   .     A
C621   C28     1.407   1_556 S
C621   N63     1.432   1_556 S
C622   N654    1.438   .     S
Cu623  O632    1.964   .     S
Cu623  O636    1.965   .     S
Cu623  N630    2.013   .     S
Cu623  Cu624   2.679   .     S
Cu623  O634    1.942   .     S
Cu623  O638    1.930   .     S
Cu624  O635    1.930   .     S
Cu624  O639    1.942   .     S
Cu624  O633    1.965   .     S
Cu624  O637    1.964   .     S
Cu624  N631    2.013   .     S
N640   H642    1.044   .     S
N640   H641    1.045   .     S
N645   H646    1.046   .     S
N645   H647    1.045   .     S
N650   H652    1.046   .     S
N650   H651    1.045   .     S
N650   C24     1.436   1_556 S
N654   H656    1.045   .     S
N654   H655    1.045   .     S
N657   H658    1.046   .     S
N657   H791    1.043   1_455 S
H659   N723    1.043   .     S
C661   C677    1.450   .     S
C661   O698    1.291   .     A
C661   O699    1.292   .     A
C662   C663    1.419   .     A
C662   C70     1.428   1_556 S
C662   C94     1.435   1_556 S
C663   C670    1.415   .     A
C663   C667    1.409   .     A
C664   C668    1.400   .     A
C665   C666    1.399   .     A
C665   C70     1.422   1_556 S
C665   C90     1.418   1_556 S
C666   H715    1.082   .     S
C666   C667    1.384   .     A
C667   H695    1.081   .     S
C668   H694    1.077   .     S
C668   C685    1.394   .     A
C669   C685    1.414   .     A
C669   N706    1.434   .     S
C669   C684    1.400   .     A
C670   C686    1.398   .     A
C670   C672    1.473   .     S
C671   H726    1.083   .     S
C671   C677    1.401   .     A
C671   C871    1.383   .     S
C672   O700    1.296   .     A
C672   O701    1.296   .     A
C673   C674    1.401   .     A
C673   H709    1.083   .     S
C673   C1067   1.383   1_545 S
C674   C682    1.450   .     S
C674   C675    1.401   .     A
C675   H691    1.083   .     S
C675   C1072   1.383   1_545 S
C676   C677    1.401   .     A
C676   H710    1.083   .     S
C676   C873    1.383   .     S
C678   N697    1.373   .     A
C678   N711    1.429   .     S
C678   C745    1.420   .     S
C679   H692    1.082   .     S
C679   N696    1.363   .     A
C680   H714    1.082   .     S
C680   N696    1.367   .     A
C681   H693    1.080   .     S
C681   N697    1.367   .     A
C681   C746    1.416   .     S
C682   O703    1.291   .     A
C682   O702    1.292   .     A
C683   O705    1.295   .     A
C683   C685    1.472   .     S
C683   O704    1.296   .     A
C686   H719    1.084   .     S
C686   C687    1.388   .     A
C687   C94     1.407   1_556 S
C687   N129    1.432   1_556 S
C688   N720    1.438   .     S
Cu689  O698    1.964   .     S
Cu689  O702    1.965   .     S
Cu689  N696    2.013   .     S
Cu689  Cu690   2.679   .     S
Cu689  O700    1.942   .     S
Cu689  O704    1.930   .     S
Cu690  O701    1.930   .     S
Cu690  O705    1.942   .     S
Cu690  O699    1.965   .     S
Cu690  O703    1.964   .     S
Cu690  N697    2.013   .     S
N706   H708    1.044   .     S
N706   H707    1.045   .     S
N711   H712    1.046   .     S
N711   H713    1.045   .     S
N716   H718    1.046   .     S
N716   H717    1.045   .     S
N716   C90     1.436   1_556 S
N720   H722    1.045   .     S
N720   H721    1.045   .     S
N723   H724    1.046   .     S
H725   N789    1.043   .     S
C727   C743    1.450   .     S
C727   O764    1.291   .     A
C727   O765    1.292   .     A
C728   C729    1.419   .     A
C728   C136    1.428   1_556 S
C728   C160    1.435   1_556 S
C729   C736    1.415   .     A
C729   C733    1.409   .     A
C730   C734    1.400   .     A
C731   C732    1.399   .     A
C731   C136    1.422   1_556 S
C731   C156    1.418   1_556 S
C732   H781    1.082   .     S
C732   C733    1.384   .     A
C733   H761    1.081   .     S
C734   H760    1.077   .     S
C734   C751    1.394   .     A
C735   C751    1.414   .     A
C735   N772    1.434   .     S
C735   C750    1.400   .     A
C736   C752    1.398   .     A
C736   C738    1.473   .     S
C737   H792    1.083   .     S
C737   C743    1.401   .     A
C737   C937    1.383   .     S
C738   O766    1.296   .     A
C738   O767    1.296   .     A
C739   C740    1.401   .     A
C739   H775    1.083   .     S
C739   C1133   1.383   1_545 S
C740   C748    1.450   .     S
C740   C741    1.401   .     A
C741   H757    1.083   .     S
C741   C1138   1.383   1_545 S
C742   C743    1.401   .     A
C742   H776    1.083   .     S
C742   C939    1.383   .     S
C744   N763    1.373   .     A
C744   N777    1.429   .     S
C744   C613    1.420   1_655 S
C745   H758    1.082   .     S
C745   N762    1.363   .     A
C746   H780    1.082   .     S
C746   N762    1.367   .     A
C747   H759    1.080   .     S
C747   N763    1.367   .     A
C747   C614    1.416   1_655 S
C748   O769    1.291   .     A
C748   O768    1.292   .     A
C749   O771    1.295   .     A
C749   C751    1.472   .     S
C749   O770    1.296   .     A
C752   H785    1.084   .     S
C752   C753    1.388   .     A
C753   C160    1.407   1_556 S
C753   N195    1.432   1_556 S
C754   N786    1.438   .     S
Cu755  O764    1.964   .     S
Cu755  O768    1.965   .     S
Cu755  N762    2.013   .     S
Cu755  Cu756   2.679   .     S
Cu755  O766    1.942   .     S
Cu755  O770    1.930   .     S
Cu756  O767    1.930   .     S
Cu756  O771    1.942   .     S
Cu756  O765    1.965   .     S
Cu756  O769    1.964   .     S
Cu756  N763    2.013   .     S
N772   H774    1.044   .     S
N772   H773    1.045   .     S
N777   H778    1.046   .     S
N777   H779    1.045   .     S
N782   H784    1.046   .     S
N782   H783    1.045   .     S
N782   C156    1.436   1_556 S
N786   H788    1.045   .     S
N786   H787    1.045   .     S
N789   H790    1.046   .     S
H791   N657    1.043   1_655 S
C793   C809    1.450   .     S
C793   O830    1.291   .     A
C793   O831    1.292   .     A
C794   C795    1.419   .     A
C794   C202    1.428   1_556 S
C794   C226    1.435   1_556 S
C795   C802    1.415   .     A
C795   C799    1.409   .     A
C796   C800    1.400   .     A
C797   C798    1.399   .     A
C797   C202    1.422   1_556 S
C797   C222    1.418   1_556 S
C798   H847    1.082   .     S
C798   C799    1.384   .     A
C799   H827    1.081   .     S
C800   H826    1.077   .     S
C800   C817    1.394   .     A
C801   C817    1.414   .     A
C801   N838    1.434   .     S
C801   C816    1.400   .     A
C802   C818    1.398   .     A
C802   C804    1.473   .     S
C803   H858    1.083   .     S
C803   C809    1.401   .     A
C803   C1003   1.383   .     S
C804   O832    1.296   .     A
C804   O833    1.296   .     A
C805   C806    1.401   .     A
C805   H841    1.083   .     S
C806   C814    1.450   .     S
C806   C807    1.401   .     A
C807   H823    1.083   .     S
C808   C809    1.401   .     A
C808   H842    1.083   .     S
C808   C1005   1.383   .     S
C810   N829    1.373   .     A
C810   N843    1.429   .     S
C810   C877    1.420   .     S
C811   H824    1.082   .     S
C811   N828    1.363   .     A
C811   C942    1.420   1_455 S
C812   H846    1.082   .     S
C812   N828    1.367   .     A
C812   C945    1.416   1_455 S
C813   H825    1.080   .     S
C813   N829    1.367   .     A
C813   C878    1.416   .     S
C814   O835    1.291   .     A
C814   O834    1.292   .     A
C815   O837    1.295   .     A
C815   C817    1.472   .     S
C815   O836    1.296   .     A
C818   H851    1.084   .     S
C818   C819    1.388   .     A
C819   C226    1.407   1_556 S
C819   N261    1.432   1_556 S
C820   N852    1.438   .     S
Cu821  O830    1.964   .     S
Cu821  O834    1.965   .     S
Cu821  N828    2.013   .     S
Cu821  Cu822   2.679   .     S
Cu821  O832    1.942   .     S
Cu821  O836    1.930   .     S
Cu822  O833    1.930   .     S
Cu822  O837    1.942   .     S
Cu822  O831    1.965   .     S
Cu822  O835    1.964   .     S
Cu822  N829    2.013   .     S
N838   H840    1.044   .     S
N838   H839    1.045   .     S
N843   H844    1.046   .     S
N843   H845    1.045   .     S
N848   H850    1.046   .     S
N848   H849    1.045   .     S
N848   C222    1.436   1_556 S
N852   H854    1.045   .     S
N852   H853    1.045   .     S
N855   H856    1.046   .     S
N855   H989    1.043   1_455 S
H857   N921    1.043   .     S
C859   C875    1.450   .     S
C859   O896    1.291   .     A
C859   O897    1.292   .     A
C860   C861    1.419   .     A
C860   C268    1.428   1_556 S
C860   C292    1.435   1_556 S
C861   C868    1.415   .     A
C861   C865    1.409   .     A
C862   C866    1.400   .     A
C863   C864    1.399   .     A
C863   C268    1.422   1_556 S
C863   C288    1.418   1_556 S
C864   H913    1.082   .     S
C864   C865    1.384   .     A
C865   H893    1.081   .     S
C866   H892    1.077   .     S
C866   C883    1.394   .     A
C867   C883    1.414   .     A
C867   N904    1.434   .     S
C867   C882    1.400   .     A
C868   C884    1.398   .     A
C868   C870    1.473   .     S
C869   H924    1.083   .     S
C869   C875    1.401   .     A
C869   C1069   1.383   .     S
C870   O898    1.296   .     A
C870   O899    1.296   .     A
C871   C872    1.401   .     A
C871   H907    1.083   .     S
C872   C880    1.450   .     S
C872   C873    1.401   .     A
C873   H889    1.083   .     S
C874   C875    1.401   .     A
C874   H908    1.083   .     S
C874   C1071   1.383   .     S
C876   N895    1.373   .     A
C876   N909    1.429   .     S
C876   C943    1.420   .     S
C877   H890    1.082   .     S
C877   N894    1.363   .     A
C878   H912    1.082   .     S
C878   N894    1.367   .     A
C879   H891    1.080   .     S
C879   N895    1.367   .     A
C879   C944    1.416   .     S
C880   O901    1.291   .     A
C880   O900    1.292   .     A
C881   O903    1.295   .     A
C881   C883    1.472   .     S
C881   O902    1.296   .     A
C884   H917    1.084   .     S
C884   C885    1.388   .     A
C885   C292    1.407   1_556 S
C885   N327    1.432   1_556 S
C886   N918    1.438   .     S
Cu887  O896    1.964   .     S
Cu887  O900    1.965   .     S
Cu887  N894    2.013   .     S
Cu887  Cu888   2.679   .     S
Cu887  O898    1.942   .     S
Cu887  O902    1.930   .     S
Cu888  O899    1.930   .     S
Cu888  O903    1.942   .     S
Cu888  O897    1.965   .     S
Cu888  O901    1.964   .     S
Cu888  N895    2.013   .     S
N904   H906    1.044   .     S
N904   H905    1.045   .     S
N909   H910    1.046   .     S
N909   H911    1.045   .     S
N914   H916    1.046   .     S
N914   H915    1.045   .     S
N914   C288    1.436   1_556 S
N918   H920    1.045   .     S
N918   H919    1.045   .     S
N921   H922    1.046   .     S
H923   N987    1.043   .     S
C925   C941    1.450   .     S
C925   O962    1.291   .     A
C925   O963    1.292   .     A
C926   C927    1.419   .     A
C926   C334    1.428   1_556 S
C926   C358    1.435   1_556 S
C927   C934    1.415   .     A
C927   C931    1.409   .     A
C928   C932    1.400   .     A
C929   C930    1.399   .     A
C929   C334    1.422   1_556 S
C929   C354    1.418   1_556 S
C930   H979    1.082   .     S
C930   C931    1.384   .     A
C931   H959    1.081   .     S
C932   H958    1.077   .     S
C932   C949    1.394   .     A
C933   C949    1.414   .     A
C933   N970    1.434   .     S
C933   C948    1.400   .     A
C934   C950    1.398   .     A
C934   C936    1.473   .     S
C935   H990    1.083   .     S
C935   C941    1.401   .     A
C935   C1135   1.383   .     S
C936   O964    1.296   .     A
C936   O965    1.296   .     A
C937   C938    1.401   .     A
C937   H973    1.083   .     S
C938   C946    1.450   .     S
C938   C939    1.401   .     A
C939   H955    1.083   .     S
C940   C941    1.401   .     A
C940   H974    1.083   .     S
C940   C1137   1.383   .     S
C942   N961    1.373   .     A
C942   N975    1.429   .     S
C942   C811    1.420   1_655 S
C943   H956    1.082   .     S
C943   N960    1.363   .     A
C944   H978    1.082   .     S
C944   N960    1.367   .     A
C945   H957    1.080   .     S
C945   N961    1.367   .     A
C945   C812    1.416   1_655 S
C946   O967    1.291   .     A
C946   O966    1.292   .     A
C947   O969    1.295   .     A
C947   C949    1.472   .     S
C947   O968    1.296   .     A
C950   H983    1.084   .     S
C950   C951    1.388   .     A
C951   C358    1.407   1_556 S
C951   N393    1.432   1_556 S
C952   N984    1.438   .     S
Cu953  O962    1.964   .     S
Cu953  O966    1.965   .     S
Cu953  N960    2.013   .     S
Cu953  Cu954   2.679   .     S
Cu953  O964    1.942   .     S
Cu953  O968    1.930   .     S
Cu954  O965    1.930   .     S
Cu954  O969    1.942   .     S
Cu954  O963    1.965   .     S
Cu954  O967    1.964   .     S
Cu954  N961    2.013   .     S
N970   H972    1.044   .     S
N970   H971    1.045   .     S
N975   H976    1.046   .     S
N975   H977    1.045   .     S
N980   H982    1.046   .     S
N980   H981    1.045   .     S
N980   C354    1.436   1_556 S
N984   H986    1.045   .     S
N984   H985    1.045   .     S
N987   H988    1.046   .     S
H989   N855    1.043   1_655 S
C991   C1007   1.450   .     S
C991   O1028   1.291   .     A
C991   O1029   1.292   .     A
C992   C993    1.419   .     A
C992   C400    1.428   1_556 S
C992   C424    1.435   1_556 S
C993   C1000   1.415   .     A
C993   C997    1.409   .     A
C994   C998    1.400   .     A
C995   C996    1.399   .     A
C995   C400    1.422   1_556 S
C995   C420    1.418   1_556 S
C996   H1045   1.082   .     S
C996   C997    1.384   .     A
C997   H1025   1.081   .     S
C998   H1024   1.077   .     S
C998   C1015   1.394   .     A
C999   C1015   1.414   .     A
C999   N1036   1.434   .     S
C999   C1014   1.400   .     A
C1000  C1016   1.398   .     A
C1000  C1002   1.473   .     S
C1001  H1056   1.083   .     S
C1001  C1007   1.401   .     A
C1001  C607    1.383   1_565 S
C1002  O1030   1.296   .     A
C1002  O1031   1.296   .     A
C1003  C1004   1.401   .     A
C1003  H1039   1.083   .     S
C1004  C1012   1.450   .     S
C1004  C1005   1.401   .     A
C1005  H1021   1.083   .     S
C1006  C1007   1.401   .     A
C1006  H1040   1.083   .     S
C1006  C609    1.383   1_565 S
C1008  N1027   1.373   .     A
C1008  N1041   1.429   .     S
C1008  C1075   1.420   .     S
C1009  H1022   1.082   .     S
C1009  N1026   1.363   .     A
C1009  C1140   1.420   1_455 S
C1010  H1044   1.082   .     S
C1010  N1026   1.367   .     A
C1010  C1143   1.416   1_455 S
C1011  H1023   1.080   .     S
C1011  N1027   1.367   .     A
C1011  C1076   1.416   .     S
C1012  O1033   1.291   .     A
C1012  O1032   1.292   .     A
C1013  O1035   1.295   .     A
C1013  C1015   1.472   .     S
C1013  O1034   1.296   .     A
C1016  H1049   1.084   .     S
C1016  C1017   1.388   .     A
C1017  C424    1.407   1_556 S
C1017  N459    1.432   1_556 S
C1018  N1050   1.438   .     S
Cu1019 O1028   1.964   .     S
Cu1019 O1032   1.965   .     S
Cu1019 N1026   2.013   .     S
Cu1019 Cu1020  2.679   .     S
Cu1019 O1030   1.942   .     S
Cu1019 O1034   1.930   .     S
Cu1020 O1031   1.930   .     S
Cu1020 O1035   1.942   .     S
Cu1020 O1029   1.965   .     S
Cu1020 O1033   1.964   .     S
Cu1020 N1027   2.013   .     S
N1036  H1038   1.044   .     S
N1036  H1037   1.045   .     S
N1041  H1042   1.046   .     S
N1041  H1043   1.045   .     S
N1046  H1048   1.046   .     S
N1046  H1047   1.045   .     S
N1046  C420    1.436   1_556 S
N1050  H1052   1.045   .     S
N1050  H1051   1.045   .     S
N1053  H1054   1.046   .     S
N1053  H1187   1.043   1_455 S
H1055  N1119   1.043   .     S
C1057  C1073   1.450   .     S
C1057  O1094   1.291   .     A
C1057  O1095   1.292   .     A
C1058  C1059   1.419   .     A
C1058  C466    1.428   1_556 S
C1058  C490    1.435   1_556 S
C1059  C1066   1.415   .     A
C1059  C1063   1.409   .     A
C1060  C1064   1.400   .     A
C1061  C1062   1.399   .     A
C1061  C466    1.422   1_556 S
C1061  C486    1.418   1_556 S
C1062  H1111   1.082   .     S
C1062  C1063   1.384   .     A
C1063  H1091   1.081   .     S
C1064  H1090   1.077   .     S
C1064  C1081   1.394   .     A
C1065  C1081   1.414   .     A
C1065  N1102   1.434   .     S
C1065  C1080   1.400   .     A
C1066  C1082   1.398   .     A
C1066  C1068   1.473   .     S
C1067  H1122   1.083   .     S
C1067  C1073   1.401   .     A
C1067  C673    1.383   1_565 S
C1068  O1096   1.296   .     A
C1068  O1097   1.296   .     A
C1069  C1070   1.401   .     A
C1069  H1105   1.083   .     S
C1070  C1078   1.450   .     S
C1070  C1071   1.401   .     A
C1071  H1087   1.083   .     S
C1072  C1073   1.401   .     A
C1072  H1106   1.083   .     S
C1072  C675    1.383   1_565 S
C1074  N1093   1.373   .     A
C1074  N1107   1.429   .     S
C1074  C1141   1.420   .     S
C1075  H1088   1.082   .     S
C1075  N1092   1.363   .     A
C1076  H1110   1.082   .     S
C1076  N1092   1.367   .     A
C1077  H1089   1.080   .     S
C1077  N1093   1.367   .     A
C1077  C1142   1.416   .     S
C1078  O1099   1.291   .     A
C1078  O1098   1.292   .     A
C1079  O1101   1.295   .     A
C1079  C1081   1.472   .     S
C1079  O1100   1.296   .     A
C1082  H1115   1.084   .     S
C1082  C1083   1.388   .     A
C1083  C490    1.407   1_556 S
C1083  N525    1.432   1_556 S
C1084  N1116   1.438   .     S
Cu1085 O1094   1.964   .     S
Cu1085 O1098   1.965   .     S
Cu1085 N1092   2.013   .     S
Cu1085 Cu1086  2.679   .     S
Cu1085 O1096   1.942   .     S
Cu1085 O1100   1.930   .     S
Cu1086 O1097   1.930   .     S
Cu1086 O1101   1.942   .     S
Cu1086 O1095   1.965   .     S
Cu1086 O1099   1.964   .     S
Cu1086 N1093   2.013   .     S
N1102  H1104   1.044   .     S
N1102  H1103   1.045   .     S
N1107  H1108   1.046   .     S
N1107  H1109   1.045   .     S
N1112  H1114   1.046   .     S
N1112  H1113   1.045   .     S
N1112  C486    1.436   1_556 S
N1116  H1118   1.045   .     S
N1116  H1117   1.045   .     S
N1119  H1120   1.046   .     S
H1121  N1185   1.043   .     S
C1123  C1139   1.450   .     S
C1123  O1160   1.291   .     A
C1123  O1161   1.292   .     A
C1124  C1125   1.419   .     A
C1124  C532    1.428   1_556 S
C1124  C556    1.435   1_556 S
C1125  C1132   1.415   .     A
C1125  C1129   1.409   .     A
C1126  C1130   1.400   .     A
C1127  C1128   1.399   .     A
C1127  C532    1.422   1_556 S
C1127  C552    1.418   1_556 S
C1128  H1177   1.082   .     S
C1128  C1129   1.384   .     A
C1129  H1157   1.081   .     S
C1130  H1156   1.077   .     S
C1130  C1147   1.394   .     A
C1131  C1147   1.414   .     A
C1131  N1168   1.434   .     S
C1131  C1146   1.400   .     A
C1132  C1148   1.398   .     A
C1132  C1134   1.473   .     S
C1133  H1188   1.083   .     S
C1133  C1139   1.401   .     A
C1133  C739    1.383   1_565 S
C1134  O1162   1.296   .     A
C1134  O1163   1.296   .     A
C1135  C1136   1.401   .     A
C1135  H1171   1.083   .     S
C1136  C1144   1.450   .     S
C1136  C1137   1.401   .     A
C1137  H1153   1.083   .     S
C1138  C1139   1.401   .     A
C1138  H1172   1.083   .     S
C1138  C741    1.383   1_565 S
C1140  N1159   1.373   .     A
C1140  N1173   1.429   .     S
C1140  C1009   1.420   1_655 S
C1141  H1154   1.082   .     S
C1141  N1158   1.363   .     A
C1142  H1176   1.082   .     S
C1142  N1158   1.367   .     A
C1143  H1155   1.080   .     S
C1143  N1159   1.367   .     A
C1143  C1010   1.416   1_655 S
C1144  O1165   1.291   .     A
C1144  O1164   1.292   .     A
C1145  O1167   1.295   .     A
C1145  C1147   1.472   .     S
C1145  O1166   1.296   .     A
C1148  H1181   1.084   .     S
C1148  C1149   1.388   .     A
C1149  C556    1.407   1_556 S
C1149  N591    1.432   1_556 S
C1150  N1182   1.438   .     S
Cu1151 O1160   1.964   .     S
Cu1151 O1164   1.965   .     S
Cu1151 N1158   2.013   .     S
Cu1151 Cu1152  2.679   .     S
Cu1151 O1162   1.942   .     S
Cu1151 O1166   1.930   .     S
Cu1152 O1163   1.930   .     S
Cu1152 O1167   1.942   .     S
Cu1152 O1161   1.965   .     S
Cu1152 O1165   1.964   .     S
Cu1152 N1159   2.013   .     S
N1168  H1170   1.044   .     S
N1168  H1169   1.045   .     S
N1173  H1174   1.046   .     S
N1173  H1175   1.045   .     S
N1178  H1180   1.046   .     S
N1178  H1179   1.045   .     S
N1178  C552    1.436   1_556 S
N1182  H1184   1.045   .     S
N1182  H1183   1.045   .     S
N1185  H1186   1.046   .     S
H1187  N1053   1.043   1_655 S
