data_str_m2_o1_o10_pcu_sym.143
_audit_creation_date              2020-01-03
_audit_creation_method            'Materials Studio'
_symmetry_space_group_name_H-M    'P1'
_symmetry_Int_Tables_number       1
_symmetry_cell_setting            triclinic
loop_
_symmetry_equiv_pos_as_xyz
  x,y,z
_cell_length_a                    26.4038
_cell_length_b                    32.3733
_cell_length_c                    28.6076
_cell_angle_alpha                 90.1603
_cell_angle_beta                  97.8952
_cell_angle_gamma                 90.3816
loop_
_atom_site_label
_atom_site_type_symbol
_atom_site_fract_x
_atom_site_fract_y
_atom_site_fract_z
_atom_site_U_iso_or_equiv
_atom_site_adp_type
_atom_site_occupancy
C1     C     0.16535   0.08746   0.16648   0.00000  Uiso   1.00
C2     C     0.16798   0.24587   0.16685   0.00000  Uiso   1.00
C3     C     0.06808   0.16758   0.15471   0.00000  Uiso   1.00
C4     C     0.26525   0.16575   0.17862   0.00000  Uiso   1.00
C5     C     0.01302   0.17214   0.14878   0.00000  Uiso   1.00
C6     C     0.32032   0.16119   0.18456   0.00000  Uiso   1.00
C7     C     0.13114   0.02004   0.13290   0.00000  Uiso   1.00
C8     C     0.20219   0.31330   0.20043   0.00000  Uiso   1.00
C9     C     0.13468   0.31067   0.13288   0.00000  Uiso   1.00
C10    C     0.19865   0.02267   0.20045   0.00000  Uiso   1.00
C11    C     0.16905   0.29050   0.16672   0.00000  Uiso   1.00
C12    C     0.16429   0.04283   0.16661   0.00000  Uiso   1.00
C13    C     0.13321   0.14199   0.02057   0.00000  Uiso   1.00
C14    C     0.20012   0.19134   0.31276   0.00000  Uiso   1.00
C15    C     0.13349   0.14214   0.30409   0.00000  Uiso   1.00
C16    C     0.19985   0.19119   0.02925   0.00000  Uiso   1.00
Cu17   Cu    0.16667   0.16667   0.21355   0.00000  Uiso   1.00
Cu18   Cu    0.16667   0.16666   0.11978   0.00000  Uiso   1.00
H19    H     0.10893   0.29300   0.10742   0.00000  Uiso   1.00
H20    H     0.22440   0.04033   0.22592   0.00000  Uiso   1.00
H21    H     0.10721   0.12253   0.28150   0.00000  Uiso   1.00
H22    H     0.22612   0.21080   0.05183   0.00000  Uiso   1.00
N23    N     0.16668   0.16668   0.28403   0.00000  Uiso   1.00
N24    N     0.16665   0.16666   0.04931   0.00000  Uiso   1.00
O25    O     0.16666   0.10655   0.20625   0.00000  Uiso   1.00
O26    O     0.16667   0.22678   0.12709   0.00000  Uiso   1.00
O27    O     0.16666   0.10654   0.12706   0.00000  Uiso   1.00
O28    O     0.16667   0.22679   0.20628   0.00000  Uiso   1.00
O29    O     0.09161   0.16667   0.19712   0.00000  Uiso   1.00
O30    O     0.24172   0.16666   0.13621   0.00000  Uiso   1.00
O31    O     0.09161   0.16666   0.11793   0.00000  Uiso   1.00
O32    O     0.24172   0.16667   0.21540   0.00000  Uiso   1.00
O33    O     0.32140   0.18977   0.10784   0.00000  Uiso   1.00
H34    H     0.01337   0.19889   0.08741   0.00000  Uiso   1.00
O35    O     0.01194   0.14356   0.22549   0.00000  Uiso   1.00
H36    H     0.31996   0.13444   0.24593   0.00000  Uiso   1.00
O37    O     0.09396   0.03782   0.10069   0.00000  Uiso   1.00
H38    H     0.08577   0.06548   0.11227   0.00000  Uiso   1.00
O39    O     0.23937   0.29552   0.23264   0.00000  Uiso   1.00
H40    H     0.24757   0.26786   0.22106   0.00000  Uiso   1.00
O41    O     0.09961   0.11721   0.04073   0.00000  Uiso   1.00
H42    H     0.07814   0.10148   0.01551   0.00000  Uiso   1.00
O43    O     0.23372   0.21613   0.29260   0.00000  Uiso   1.00
H44    H     0.25520   0.23186   0.31783   0.00000  Uiso   1.00
C45    C     0.49868   0.08746   0.16648   0.00000  Uiso   1.00
C46    C     0.50132   0.24587   0.16685   0.00000  Uiso   1.00
C47    C     0.40141   0.16758   0.15471   0.00000  Uiso   1.00
C48    C     0.59859   0.16575   0.17862   0.00000  Uiso   1.00
C49    C     0.34635   0.17214   0.14878   0.00000  Uiso   1.00
C50    C     0.65365   0.16119   0.18456   0.00000  Uiso   1.00
C51    C     0.46447   0.02004   0.13290   0.00000  Uiso   1.00
C52    C     0.53552   0.31330   0.20043   0.00000  Uiso   1.00
C53    C     0.46801   0.31067   0.13288   0.00000  Uiso   1.00
C54    C     0.53198   0.02267   0.20045   0.00000  Uiso   1.00
C55    C     0.50238   0.29050   0.16672   0.00000  Uiso   1.00
C56    C     0.49762   0.04283   0.16661   0.00000  Uiso   1.00
C57    C     0.46654   0.14199   0.02057   0.00000  Uiso   1.00
C58    C     0.53346   0.19134   0.31276   0.00000  Uiso   1.00
C59    C     0.46682   0.14214   0.30409   0.00000  Uiso   1.00
C60    C     0.53318   0.19119   0.02925   0.00000  Uiso   1.00
Cu61   Cu    0.50000   0.16667   0.21355   0.00000  Uiso   1.00
Cu62   Cu    0.50000   0.16666   0.11978   0.00000  Uiso   1.00
H63    H     0.44227   0.29300   0.10742   0.00000  Uiso   1.00
H64    H     0.55773   0.04033   0.22592   0.00000  Uiso   1.00
H65    H     0.44055   0.12253   0.28150   0.00000  Uiso   1.00
H66    H     0.55945   0.21080   0.05183   0.00000  Uiso   1.00
N67    N     0.50001   0.16668   0.28403   0.00000  Uiso   1.00
N68    N     0.49999   0.16666   0.04931   0.00000  Uiso   1.00
O69    O     0.50000   0.10655   0.20625   0.00000  Uiso   1.00
O70    O     0.50000   0.22678   0.12709   0.00000  Uiso   1.00
O71    O     0.50000   0.10654   0.12706   0.00000  Uiso   1.00
O72    O     0.50000   0.22679   0.20628   0.00000  Uiso   1.00
O73    O     0.42495   0.16667   0.19712   0.00000  Uiso   1.00
O74    O     0.57505   0.16666   0.13621   0.00000  Uiso   1.00
O75    O     0.42494   0.16666   0.11793   0.00000  Uiso   1.00
O76    O     0.57506   0.16667   0.21540   0.00000  Uiso   1.00
O77    O     0.65473   0.18977   0.10784   0.00000  Uiso   1.00
H78    H     0.34670   0.19889   0.08741   0.00000  Uiso   1.00
O79    O     0.34527   0.14356   0.22549   0.00000  Uiso   1.00
H80    H     0.65330   0.13444   0.24593   0.00000  Uiso   1.00
O81    O     0.42729   0.03782   0.10069   0.00000  Uiso   1.00
H82    H     0.41910   0.06548   0.11227   0.00000  Uiso   1.00
O83    O     0.57270   0.29552   0.23264   0.00000  Uiso   1.00
H84    H     0.58090   0.26786   0.22106   0.00000  Uiso   1.00
O85    O     0.43294   0.11721   0.04073   0.00000  Uiso   1.00
H86    H     0.41147   0.10148   0.01551   0.00000  Uiso   1.00
O87    O     0.56705   0.21613   0.29260   0.00000  Uiso   1.00
H88    H     0.58853   0.23186   0.31783   0.00000  Uiso   1.00
C89    C     0.83202   0.08746   0.16648   0.00000  Uiso   1.00
C90    C     0.83465   0.24587   0.16685   0.00000  Uiso   1.00
C91    C     0.73475   0.16758   0.15471   0.00000  Uiso   1.00
C92    C     0.93192   0.16575   0.17862   0.00000  Uiso   1.00
C93    C     0.67968   0.17214   0.14878   0.00000  Uiso   1.00
C94    C     0.98698   0.16119   0.18456   0.00000  Uiso   1.00
C95    C     0.79781   0.02004   0.13290   0.00000  Uiso   1.00
C96    C     0.86886   0.31330   0.20043   0.00000  Uiso   1.00
C97    C     0.80135   0.31067   0.13288   0.00000  Uiso   1.00
C98    C     0.86532   0.02267   0.20045   0.00000  Uiso   1.00
C99    C     0.83571   0.29050   0.16672   0.00000  Uiso   1.00
C100   C     0.83095   0.04283   0.16661   0.00000  Uiso   1.00
C101   C     0.79988   0.14199   0.02057   0.00000  Uiso   1.00
C102   C     0.86679   0.19134   0.31276   0.00000  Uiso   1.00
C103   C     0.80015   0.14214   0.30409   0.00000  Uiso   1.00
C104   C     0.86651   0.19119   0.02925   0.00000  Uiso   1.00
Cu105  Cu    0.83333   0.16667   0.21355   0.00000  Uiso   1.00
Cu106  Cu    0.83333   0.16666   0.11978   0.00000  Uiso   1.00
H107   H     0.77560   0.29300   0.10742   0.00000  Uiso   1.00
H108   H     0.89106   0.04033   0.22592   0.00000  Uiso   1.00
H109   H     0.77388   0.12253   0.28150   0.00000  Uiso   1.00
H110   H     0.89279   0.21080   0.05183   0.00000  Uiso   1.00
N111   N     0.83335   0.16668   0.28403   0.00000  Uiso   1.00
N112   N     0.83332   0.16666   0.04931   0.00000  Uiso   1.00
O113   O     0.83333   0.10655   0.20625   0.00000  Uiso   1.00
O114   O     0.83334   0.22678   0.12709   0.00000  Uiso   1.00
O115   O     0.83333   0.10654   0.12706   0.00000  Uiso   1.00
O116   O     0.83334   0.22679   0.20628   0.00000  Uiso   1.00
O117   O     0.75828   0.16667   0.19712   0.00000  Uiso   1.00
O118   O     0.90839   0.16666   0.13621   0.00000  Uiso   1.00
O119   O     0.75828   0.16666   0.11793   0.00000  Uiso   1.00
O120   O     0.90839   0.16667   0.21540   0.00000  Uiso   1.00
O121   O     0.98806   0.18977   0.10784   0.00000  Uiso   1.00
H122   H     0.68004   0.19889   0.08741   0.00000  Uiso   1.00
O123   O     0.67860   0.14356   0.22549   0.00000  Uiso   1.00
H124   H     0.98663   0.13444   0.24593   0.00000  Uiso   1.00
O125   O     0.76063   0.03782   0.10069   0.00000  Uiso   1.00
H126   H     0.75244   0.06548   0.11227   0.00000  Uiso   1.00
O127   O     0.90603   0.29552   0.23264   0.00000  Uiso   1.00
H128   H     0.91423   0.26786   0.22106   0.00000  Uiso   1.00
O129   O     0.76628   0.11721   0.04073   0.00000  Uiso   1.00
H130   H     0.74480   0.10148   0.01551   0.00000  Uiso   1.00
O131   O     0.90039   0.21613   0.29260   0.00000  Uiso   1.00
H132   H     0.92186   0.23186   0.31783   0.00000  Uiso   1.00
C133   C     0.16535   0.42079   0.16648   0.00000  Uiso   1.00
C134   C     0.16798   0.57921   0.16685   0.00000  Uiso   1.00
C135   C     0.06808   0.50091   0.15471   0.00000  Uiso   1.00
C136   C     0.26525   0.49909   0.17862   0.00000  Uiso   1.00
C137   C     0.01302   0.50548   0.14878   0.00000  Uiso   1.00
C138   C     0.32032   0.49452   0.18456   0.00000  Uiso   1.00
C139   C     0.13114   0.35337   0.13290   0.00000  Uiso   1.00
C140   C     0.20219   0.64663   0.20043   0.00000  Uiso   1.00
C141   C     0.13468   0.64400   0.13288   0.00000  Uiso   1.00
C142   C     0.19865   0.35600   0.20045   0.00000  Uiso   1.00
C143   C     0.16905   0.62384   0.16672   0.00000  Uiso   1.00
C144   C     0.16429   0.37616   0.16661   0.00000  Uiso   1.00
C145   C     0.13321   0.47533   0.02057   0.00000  Uiso   1.00
C146   C     0.20012   0.52467   0.31276   0.00000  Uiso   1.00
C147   C     0.13349   0.47548   0.30409   0.00000  Uiso   1.00
C148   C     0.19985   0.52452   0.02925   0.00000  Uiso   1.00
Cu149  Cu    0.16667   0.50001   0.21355   0.00000  Uiso   1.00
Cu150  Cu    0.16667   0.49999   0.11978   0.00000  Uiso   1.00
H151   H     0.10893   0.62634   0.10742   0.00000  Uiso   1.00
H152   H     0.22440   0.37366   0.22592   0.00000  Uiso   1.00
H153   H     0.10721   0.45587   0.28150   0.00000  Uiso   1.00
H154   H     0.22612   0.54413   0.05183   0.00000  Uiso   1.00
N155   N     0.16668   0.50001   0.28403   0.00000  Uiso   1.00
N156   N     0.16665   0.49999   0.04931   0.00000  Uiso   1.00
O157   O     0.16666   0.43989   0.20625   0.00000  Uiso   1.00
O158   O     0.16667   0.56011   0.12709   0.00000  Uiso   1.00
O159   O     0.16666   0.43988   0.12706   0.00000  Uiso   1.00
O160   O     0.16667   0.56012   0.20628   0.00000  Uiso   1.00
O161   O     0.09161   0.50000   0.19712   0.00000  Uiso   1.00
O162   O     0.24172   0.50000   0.13621   0.00000  Uiso   1.00
O163   O     0.09161   0.49999   0.11793   0.00000  Uiso   1.00
O164   O     0.24172   0.50001   0.21540   0.00000  Uiso   1.00
O165   O     0.32140   0.52311   0.10784   0.00000  Uiso   1.00
H166   H     0.01337   0.53223   0.08741   0.00000  Uiso   1.00
O167   O     0.01194   0.47689   0.22549   0.00000  Uiso   1.00
H168   H     0.31996   0.46777   0.24593   0.00000  Uiso   1.00
O169   O     0.09396   0.37115   0.10069   0.00000  Uiso   1.00
H170   H     0.08577   0.39881   0.11227   0.00000  Uiso   1.00
O171   O     0.23937   0.62885   0.23264   0.00000  Uiso   1.00
H172   H     0.24757   0.60119   0.22106   0.00000  Uiso   1.00
O173   O     0.09961   0.45054   0.04073   0.00000  Uiso   1.00
H174   H     0.07814   0.43481   0.01551   0.00000  Uiso   1.00
O175   O     0.23372   0.54946   0.29260   0.00000  Uiso   1.00
H176   H     0.25520   0.56519   0.31783   0.00000  Uiso   1.00
C177   C     0.49868   0.42079   0.16648   0.00000  Uiso   1.00
C178   C     0.50132   0.57921   0.16685   0.00000  Uiso   1.00
C179   C     0.40141   0.50091   0.15471   0.00000  Uiso   1.00
C180   C     0.59859   0.49909   0.17862   0.00000  Uiso   1.00
C181   C     0.34635   0.50548   0.14878   0.00000  Uiso   1.00
C182   C     0.65365   0.49452   0.18456   0.00000  Uiso   1.00
C183   C     0.46447   0.35337   0.13290   0.00000  Uiso   1.00
C184   C     0.53552   0.64663   0.20043   0.00000  Uiso   1.00
C185   C     0.46801   0.64400   0.13288   0.00000  Uiso   1.00
C186   C     0.53198   0.35600   0.20045   0.00000  Uiso   1.00
C187   C     0.50238   0.62384   0.16672   0.00000  Uiso   1.00
C188   C     0.49762   0.37616   0.16661   0.00000  Uiso   1.00
C189   C     0.46654   0.47533   0.02057   0.00000  Uiso   1.00
C190   C     0.53346   0.52467   0.31276   0.00000  Uiso   1.00
C191   C     0.46682   0.47548   0.30409   0.00000  Uiso   1.00
C192   C     0.53318   0.52452   0.02925   0.00000  Uiso   1.00
Cu193  Cu    0.50000   0.50001   0.21355   0.00000  Uiso   1.00
Cu194  Cu    0.50000   0.49999   0.11978   0.00000  Uiso   1.00
H195   H     0.44227   0.62634   0.10742   0.00000  Uiso   1.00
H196   H     0.55773   0.37366   0.22592   0.00000  Uiso   1.00
H197   H     0.44055   0.45587   0.28150   0.00000  Uiso   1.00
H198   H     0.55945   0.54413   0.05183   0.00000  Uiso   1.00
N199   N     0.50001   0.50001   0.28403   0.00000  Uiso   1.00
N200   N     0.49999   0.49999   0.04931   0.00000  Uiso   1.00
O201   O     0.50000   0.43989   0.20625   0.00000  Uiso   1.00
O202   O     0.50000   0.56011   0.12709   0.00000  Uiso   1.00
O203   O     0.50000   0.43988   0.12706   0.00000  Uiso   1.00
O204   O     0.50000   0.56012   0.20628   0.00000  Uiso   1.00
O205   O     0.42495   0.50000   0.19712   0.00000  Uiso   1.00
O206   O     0.57505   0.50000   0.13621   0.00000  Uiso   1.00
O207   O     0.42494   0.49999   0.11793   0.00000  Uiso   1.00
O208   O     0.57506   0.50001   0.21540   0.00000  Uiso   1.00
O209   O     0.65473   0.52311   0.10784   0.00000  Uiso   1.00
H210   H     0.34670   0.53223   0.08741   0.00000  Uiso   1.00
O211   O     0.34527   0.47689   0.22549   0.00000  Uiso   1.00
H212   H     0.65330   0.46777   0.24593   0.00000  Uiso   1.00
O213   O     0.42729   0.37115   0.10069   0.00000  Uiso   1.00
H214   H     0.41910   0.39881   0.11227   0.00000  Uiso   1.00
O215   O     0.57270   0.62885   0.23264   0.00000  Uiso   1.00
H216   H     0.58090   0.60119   0.22106   0.00000  Uiso   1.00
O217   O     0.43294   0.45054   0.04073   0.00000  Uiso   1.00
H218   H     0.41147   0.43481   0.01551   0.00000  Uiso   1.00
O219   O     0.56705   0.54946   0.29260   0.00000  Uiso   1.00
H220   H     0.58853   0.56519   0.31783   0.00000  Uiso   1.00
C221   C     0.83202   0.42079   0.16648   0.00000  Uiso   1.00
C222   C     0.83465   0.57921   0.16685   0.00000  Uiso   1.00
C223   C     0.73475   0.50091   0.15471   0.00000  Uiso   1.00
C224   C     0.93192   0.49909   0.17862   0.00000  Uiso   1.00
C225   C     0.67968   0.50548   0.14878   0.00000  Uiso   1.00
C226   C     0.98698   0.49452   0.18456   0.00000  Uiso   1.00
C227   C     0.79781   0.35337   0.13290   0.00000  Uiso   1.00
C228   C     0.86886   0.64663   0.20043   0.00000  Uiso   1.00
C229   C     0.80135   0.64400   0.13288   0.00000  Uiso   1.00
C230   C     0.86532   0.35600   0.20045   0.00000  Uiso   1.00
C231   C     0.83571   0.62384   0.16672   0.00000  Uiso   1.00
C232   C     0.83095   0.37616   0.16661   0.00000  Uiso   1.00
C233   C     0.79988   0.47533   0.02057   0.00000  Uiso   1.00
C234   C     0.86679   0.52467   0.31276   0.00000  Uiso   1.00
C235   C     0.80015   0.47548   0.30409   0.00000  Uiso   1.00
C236   C     0.86651   0.52452   0.02925   0.00000  Uiso   1.00
Cu237  Cu    0.83333   0.50001   0.21355   0.00000  Uiso   1.00
Cu238  Cu    0.83333   0.49999   0.11978   0.00000  Uiso   1.00
H239   H     0.77560   0.62634   0.10742   0.00000  Uiso   1.00
H240   H     0.89106   0.37366   0.22592   0.00000  Uiso   1.00
H241   H     0.77388   0.45587   0.28150   0.00000  Uiso   1.00
H242   H     0.89279   0.54413   0.05183   0.00000  Uiso   1.00
N243   N     0.83335   0.50001   0.28403   0.00000  Uiso   1.00
N244   N     0.83332   0.49999   0.04931   0.00000  Uiso   1.00
O245   O     0.83333   0.43989   0.20625   0.00000  Uiso   1.00
O246   O     0.83334   0.56011   0.12709   0.00000  Uiso   1.00
O247   O     0.83333   0.43988   0.12706   0.00000  Uiso   1.00
O248   O     0.83334   0.56012   0.20628   0.00000  Uiso   1.00
O249   O     0.75828   0.50000   0.19712   0.00000  Uiso   1.00
O250   O     0.90839   0.50000   0.13621   0.00000  Uiso   1.00
O251   O     0.75828   0.49999   0.11793   0.00000  Uiso   1.00
O252   O     0.90839   0.50001   0.21540   0.00000  Uiso   1.00
O253   O     0.98806   0.52311   0.10784   0.00000  Uiso   1.00
H254   H     0.68004   0.53223   0.08741   0.00000  Uiso   1.00
O255   O     0.67860   0.47689   0.22549   0.00000  Uiso   1.00
H256   H     0.98663   0.46777   0.24593   0.00000  Uiso   1.00
O257   O     0.76063   0.37115   0.10069   0.00000  Uiso   1.00
H258   H     0.75244   0.39881   0.11227   0.00000  Uiso   1.00
O259   O     0.90603   0.62885   0.23264   0.00000  Uiso   1.00
H260   H     0.91423   0.60119   0.22106   0.00000  Uiso   1.00
O261   O     0.76628   0.45054   0.04073   0.00000  Uiso   1.00
H262   H     0.74480   0.43481   0.01551   0.00000  Uiso   1.00
O263   O     0.90039   0.54946   0.29260   0.00000  Uiso   1.00
H264   H     0.92186   0.56519   0.31783   0.00000  Uiso   1.00
C265   C     0.16535   0.75413   0.16648   0.00000  Uiso   1.00
C266   C     0.16798   0.91254   0.16685   0.00000  Uiso   1.00
C267   C     0.06808   0.83425   0.15471   0.00000  Uiso   1.00
C268   C     0.26525   0.83242   0.17862   0.00000  Uiso   1.00
C269   C     0.01302   0.83881   0.14878   0.00000  Uiso   1.00
C270   C     0.32032   0.82786   0.18456   0.00000  Uiso   1.00
C271   C     0.13114   0.68670   0.13290   0.00000  Uiso   1.00
C272   C     0.20219   0.97996   0.20043   0.00000  Uiso   1.00
C273   C     0.13468   0.97733   0.13288   0.00000  Uiso   1.00
C274   C     0.19865   0.68933   0.20045   0.00000  Uiso   1.00
C275   C     0.16905   0.95717   0.16672   0.00000  Uiso   1.00
C276   C     0.16429   0.70950   0.16661   0.00000  Uiso   1.00
C277   C     0.13321   0.80866   0.02057   0.00000  Uiso   1.00
C278   C     0.20012   0.85801   0.31276   0.00000  Uiso   1.00
C279   C     0.13349   0.80881   0.30409   0.00000  Uiso   1.00
C280   C     0.19985   0.85786   0.02925   0.00000  Uiso   1.00
Cu281  Cu    0.16667   0.83334   0.21355   0.00000  Uiso   1.00
Cu282  Cu    0.16667   0.83333   0.11978   0.00000  Uiso   1.00
H283   H     0.10893   0.95967   0.10742   0.00000  Uiso   1.00
H284   H     0.22440   0.70700   0.22592   0.00000  Uiso   1.00
H285   H     0.10721   0.78920   0.28150   0.00000  Uiso   1.00
H286   H     0.22612   0.87747   0.05183   0.00000  Uiso   1.00
N287   N     0.16668   0.83334   0.28403   0.00000  Uiso   1.00
N288   N     0.16665   0.83332   0.04931   0.00000  Uiso   1.00
O289   O     0.16666   0.77322   0.20625   0.00000  Uiso   1.00
O290   O     0.16667   0.89345   0.12709   0.00000  Uiso   1.00
O291   O     0.16666   0.77321   0.12706   0.00000  Uiso   1.00
O292   O     0.16667   0.89346   0.20628   0.00000  Uiso   1.00
O293   O     0.09161   0.83334   0.19712   0.00000  Uiso   1.00
O294   O     0.24172   0.83333   0.13621   0.00000  Uiso   1.00
O295   O     0.09161   0.83333   0.11793   0.00000  Uiso   1.00
O296   O     0.24172   0.83334   0.21540   0.00000  Uiso   1.00
O297   O     0.32140   0.85644   0.10784   0.00000  Uiso   1.00
H298   H     0.01337   0.86556   0.08741   0.00000  Uiso   1.00
O299   O     0.01194   0.81023   0.22549   0.00000  Uiso   1.00
H300   H     0.31996   0.80111   0.24593   0.00000  Uiso   1.00
O301   O     0.09396   0.70448   0.10069   0.00000  Uiso   1.00
H302   H     0.08577   0.73215   0.11227   0.00000  Uiso   1.00
O303   O     0.23937   0.96218   0.23264   0.00000  Uiso   1.00
H304   H     0.24757   0.93452   0.22106   0.00000  Uiso   1.00
O305   O     0.09961   0.78387   0.04073   0.00000  Uiso   1.00
H306   H     0.07814   0.76814   0.01551   0.00000  Uiso   1.00
O307   O     0.23372   0.88279   0.29260   0.00000  Uiso   1.00
H308   H     0.25520   0.89852   0.31783   0.00000  Uiso   1.00
C309   C     0.49868   0.75413   0.16648   0.00000  Uiso   1.00
C310   C     0.50132   0.91254   0.16685   0.00000  Uiso   1.00
C311   C     0.40141   0.83425   0.15471   0.00000  Uiso   1.00
C312   C     0.59859   0.83242   0.17862   0.00000  Uiso   1.00
C313   C     0.34635   0.83881   0.14878   0.00000  Uiso   1.00
C314   C     0.65365   0.82786   0.18456   0.00000  Uiso   1.00
C315   C     0.46447   0.68670   0.13290   0.00000  Uiso   1.00
C316   C     0.53552   0.97996   0.20043   0.00000  Uiso   1.00
C317   C     0.46801   0.97733   0.13288   0.00000  Uiso   1.00
C318   C     0.53198   0.68933   0.20045   0.00000  Uiso   1.00
C319   C     0.50238   0.95717   0.16672   0.00000  Uiso   1.00
C320   C     0.49762   0.70950   0.16661   0.00000  Uiso   1.00
C321   C     0.46654   0.80866   0.02057   0.00000  Uiso   1.00
C322   C     0.53346   0.85801   0.31276   0.00000  Uiso   1.00
C323   C     0.46682   0.80881   0.30409   0.00000  Uiso   1.00
C324   C     0.53318   0.85786   0.02925   0.00000  Uiso   1.00
Cu325  Cu    0.50000   0.83334   0.21355   0.00000  Uiso   1.00
Cu326  Cu    0.50000   0.83333   0.11978   0.00000  Uiso   1.00
H327   H     0.44227   0.95967   0.10742   0.00000  Uiso   1.00
H328   H     0.55773   0.70700   0.22592   0.00000  Uiso   1.00
H329   H     0.44055   0.78920   0.28150   0.00000  Uiso   1.00
H330   H     0.55945   0.87747   0.05183   0.00000  Uiso   1.00
N331   N     0.50001   0.83334   0.28403   0.00000  Uiso   1.00
N332   N     0.49999   0.83332   0.04931   0.00000  Uiso   1.00
O333   O     0.50000   0.77322   0.20625   0.00000  Uiso   1.00
O334   O     0.50000   0.89345   0.12709   0.00000  Uiso   1.00
O335   O     0.50000   0.77321   0.12706   0.00000  Uiso   1.00
O336   O     0.50000   0.89346   0.20628   0.00000  Uiso   1.00
O337   O     0.42495   0.83334   0.19712   0.00000  Uiso   1.00
O338   O     0.57505   0.83333   0.13621   0.00000  Uiso   1.00
O339   O     0.42494   0.83333   0.11793   0.00000  Uiso   1.00
O340   O     0.57506   0.83334   0.21540   0.00000  Uiso   1.00
O341   O     0.65473   0.85644   0.10784   0.00000  Uiso   1.00
H342   H     0.34670   0.86556   0.08741   0.00000  Uiso   1.00
O343   O     0.34527   0.81023   0.22549   0.00000  Uiso   1.00
H344   H     0.65330   0.80111   0.24593   0.00000  Uiso   1.00
O345   O     0.42729   0.70448   0.10069   0.00000  Uiso   1.00
H346   H     0.41910   0.73215   0.11227   0.00000  Uiso   1.00
O347   O     0.57270   0.96218   0.23264   0.00000  Uiso   1.00
H348   H     0.58090   0.93452   0.22106   0.00000  Uiso   1.00
O349   O     0.43294   0.78387   0.04073   0.00000  Uiso   1.00
H350   H     0.41147   0.76814   0.01551   0.00000  Uiso   1.00
O351   O     0.56705   0.88279   0.29260   0.00000  Uiso   1.00
H352   H     0.58853   0.89852   0.31783   0.00000  Uiso   1.00
C353   C     0.83202   0.75413   0.16648   0.00000  Uiso   1.00
C354   C     0.83465   0.91254   0.16685   0.00000  Uiso   1.00
C355   C     0.73475   0.83425   0.15471   0.00000  Uiso   1.00
C356   C     0.93192   0.83242   0.17862   0.00000  Uiso   1.00
C357   C     0.67968   0.83881   0.14878   0.00000  Uiso   1.00
C358   C     0.98698   0.82786   0.18456   0.00000  Uiso   1.00
C359   C     0.79781   0.68670   0.13290   0.00000  Uiso   1.00
C360   C     0.86886   0.97996   0.20043   0.00000  Uiso   1.00
C361   C     0.80135   0.97733   0.13288   0.00000  Uiso   1.00
C362   C     0.86532   0.68933   0.20045   0.00000  Uiso   1.00
C363   C     0.83571   0.95717   0.16672   0.00000  Uiso   1.00
C364   C     0.83095   0.70950   0.16661   0.00000  Uiso   1.00
C365   C     0.79988   0.80866   0.02057   0.00000  Uiso   1.00
C366   C     0.86679   0.85801   0.31276   0.00000  Uiso   1.00
C367   C     0.80015   0.80881   0.30409   0.00000  Uiso   1.00
C368   C     0.86651   0.85786   0.02925   0.00000  Uiso   1.00
Cu369  Cu    0.83333   0.83334   0.21355   0.00000  Uiso   1.00
Cu370  Cu    0.83333   0.83333   0.11978   0.00000  Uiso   1.00
H371   H     0.77560   0.95967   0.10742   0.00000  Uiso   1.00
H372   H     0.89106   0.70700   0.22592   0.00000  Uiso   1.00
H373   H     0.77388   0.78920   0.28150   0.00000  Uiso   1.00
H374   H     0.89279   0.87747   0.05183   0.00000  Uiso   1.00
N375   N     0.83335   0.83334   0.28403   0.00000  Uiso   1.00
N376   N     0.83332   0.83332   0.04931   0.00000  Uiso   1.00
O377   O     0.83333   0.77322   0.20625   0.00000  Uiso   1.00
O378   O     0.83334   0.89345   0.12709   0.00000  Uiso   1.00
O379   O     0.83333   0.77321   0.12706   0.00000  Uiso   1.00
O380   O     0.83334   0.89346   0.20628   0.00000  Uiso   1.00
O381   O     0.75828   0.83334   0.19712   0.00000  Uiso   1.00
O382   O     0.90839   0.83333   0.13621   0.00000  Uiso   1.00
O383   O     0.75828   0.83333   0.11793   0.00000  Uiso   1.00
O384   O     0.90839   0.83334   0.21540   0.00000  Uiso   1.00
O385   O     0.98806   0.85644   0.10784   0.00000  Uiso   1.00
H386   H     0.68004   0.86556   0.08741   0.00000  Uiso   1.00
O387   O     0.67860   0.81023   0.22549   0.00000  Uiso   1.00
H388   H     0.98663   0.80111   0.24593   0.00000  Uiso   1.00
O389   O     0.76063   0.70448   0.10069   0.00000  Uiso   1.00
H390   H     0.75244   0.73215   0.11227   0.00000  Uiso   1.00
O391   O     0.90603   0.96218   0.23264   0.00000  Uiso   1.00
H392   H     0.91423   0.93452   0.22106   0.00000  Uiso   1.00
O393   O     0.76628   0.78387   0.04073   0.00000  Uiso   1.00
H394   H     0.74480   0.76814   0.01551   0.00000  Uiso   1.00
O395   O     0.90039   0.88279   0.29260   0.00000  Uiso   1.00
H396   H     0.92186   0.89852   0.31783   0.00000  Uiso   1.00
C397   C     0.16535   0.08746   0.49982   0.00000  Uiso   1.00
C398   C     0.16798   0.24587   0.50019   0.00000  Uiso   1.00
C399   C     0.06808   0.16758   0.48804   0.00000  Uiso   1.00
C400   C     0.26525   0.16575   0.51196   0.00000  Uiso   1.00
C401   C     0.01302   0.17214   0.48211   0.00000  Uiso   1.00
C402   C     0.32032   0.16119   0.51789   0.00000  Uiso   1.00
C403   C     0.13114   0.02004   0.46623   0.00000  Uiso   1.00
C404   C     0.20219   0.31330   0.53377   0.00000  Uiso   1.00
C405   C     0.13468   0.31067   0.46622   0.00000  Uiso   1.00
C406   C     0.19865   0.02267   0.53378   0.00000  Uiso   1.00
C407   C     0.16905   0.29050   0.50005   0.00000  Uiso   1.00
C408   C     0.16429   0.04283   0.49995   0.00000  Uiso   1.00
C409   C     0.13321   0.14199   0.35391   0.00000  Uiso   1.00
C410   C     0.20012   0.19134   0.64609   0.00000  Uiso   1.00
C411   C     0.13349   0.14214   0.63742   0.00000  Uiso   1.00
C412   C     0.19985   0.19119   0.36258   0.00000  Uiso   1.00
Cu413  Cu    0.16667   0.16667   0.54689   0.00000  Uiso   1.00
Cu414  Cu    0.16667   0.16666   0.45311   0.00000  Uiso   1.00
H415   H     0.10893   0.29300   0.44075   0.00000  Uiso   1.00
H416   H     0.22440   0.04033   0.55925   0.00000  Uiso   1.00
H417   H     0.10721   0.12253   0.61483   0.00000  Uiso   1.00
H418   H     0.22612   0.21080   0.38517   0.00000  Uiso   1.00
N419   N     0.16668   0.16668   0.61736   0.00000  Uiso   1.00
N420   N     0.16665   0.16666   0.38264   0.00000  Uiso   1.00
O421   O     0.16666   0.10655   0.53958   0.00000  Uiso   1.00
O422   O     0.16667   0.22678   0.46042   0.00000  Uiso   1.00
O423   O     0.16666   0.10654   0.46039   0.00000  Uiso   1.00
O424   O     0.16667   0.22679   0.53961   0.00000  Uiso   1.00
O425   O     0.09161   0.16667   0.53046   0.00000  Uiso   1.00
O426   O     0.24172   0.16666   0.46954   0.00000  Uiso   1.00
O427   O     0.09161   0.16666   0.45127   0.00000  Uiso   1.00
O428   O     0.24172   0.16667   0.54873   0.00000  Uiso   1.00
O429   O     0.32140   0.18977   0.44118   0.00000  Uiso   1.00
H430   H     0.01337   0.19889   0.42074   0.00000  Uiso   1.00
O431   O     0.01194   0.14356   0.55882   0.00000  Uiso   1.00
H432   H     0.31996   0.13444   0.57926   0.00000  Uiso   1.00
O433   O     0.09396   0.03782   0.43403   0.00000  Uiso   1.00
H434   H     0.08577   0.06548   0.44560   0.00000  Uiso   1.00
O435   O     0.23937   0.29552   0.56598   0.00000  Uiso   1.00
H436   H     0.24757   0.26786   0.55440   0.00000  Uiso   1.00
O437   O     0.09961   0.11721   0.37407   0.00000  Uiso   1.00
H438   H     0.07814   0.10148   0.34884   0.00000  Uiso   1.00
O439   O     0.23372   0.21613   0.62593   0.00000  Uiso   1.00
H440   H     0.25520   0.23186   0.65116   0.00000  Uiso   1.00
C441   C     0.49868   0.08746   0.49982   0.00000  Uiso   1.00
C442   C     0.50132   0.24587   0.50019   0.00000  Uiso   1.00
C443   C     0.40141   0.16758   0.48804   0.00000  Uiso   1.00
C444   C     0.59859   0.16575   0.51196   0.00000  Uiso   1.00
C445   C     0.34635   0.17214   0.48211   0.00000  Uiso   1.00
C446   C     0.65365   0.16119   0.51789   0.00000  Uiso   1.00
C447   C     0.46447   0.02004   0.46623   0.00000  Uiso   1.00
C448   C     0.53552   0.31330   0.53377   0.00000  Uiso   1.00
C449   C     0.46801   0.31067   0.46622   0.00000  Uiso   1.00
C450   C     0.53198   0.02267   0.53378   0.00000  Uiso   1.00
C451   C     0.50238   0.29050   0.50005   0.00000  Uiso   1.00
C452   C     0.49762   0.04283   0.49995   0.00000  Uiso   1.00
C453   C     0.46654   0.14199   0.35391   0.00000  Uiso   1.00
C454   C     0.53346   0.19134   0.64609   0.00000  Uiso   1.00
C455   C     0.46682   0.14214   0.63742   0.00000  Uiso   1.00
C456   C     0.53318   0.19119   0.36258   0.00000  Uiso   1.00
Cu457  Cu    0.50000   0.16667   0.54689   0.00000  Uiso   1.00
Cu458  Cu    0.50000   0.16666   0.45311   0.00000  Uiso   1.00
H459   H     0.44227   0.29300   0.44075   0.00000  Uiso   1.00
H460   H     0.55773   0.04033   0.55925   0.00000  Uiso   1.00
H461   H     0.44055   0.12253   0.61483   0.00000  Uiso   1.00
H462   H     0.55945   0.21080   0.38517   0.00000  Uiso   1.00
N463   N     0.50001   0.16668   0.61736   0.00000  Uiso   1.00
N464   N     0.49999   0.16666   0.38264   0.00000  Uiso   1.00
O465   O     0.50000   0.10655   0.53958   0.00000  Uiso   1.00
O466   O     0.50000   0.22678   0.46042   0.00000  Uiso   1.00
O467   O     0.50000   0.10654   0.46039   0.00000  Uiso   1.00
O468   O     0.50000   0.22679   0.53961   0.00000  Uiso   1.00
O469   O     0.42495   0.16667   0.53046   0.00000  Uiso   1.00
O470   O     0.57505   0.16666   0.46954   0.00000  Uiso   1.00
O471   O     0.42494   0.16666   0.45127   0.00000  Uiso   1.00
O472   O     0.57506   0.16667   0.54873   0.00000  Uiso   1.00
O473   O     0.65473   0.18977   0.44118   0.00000  Uiso   1.00
H474   H     0.34670   0.19889   0.42074   0.00000  Uiso   1.00
O475   O     0.34527   0.14356   0.55882   0.00000  Uiso   1.00
H476   H     0.65330   0.13444   0.57926   0.00000  Uiso   1.00
O477   O     0.42729   0.03782   0.43403   0.00000  Uiso   1.00
H478   H     0.41910   0.06548   0.44560   0.00000  Uiso   1.00
O479   O     0.57270   0.29552   0.56598   0.00000  Uiso   1.00
H480   H     0.58090   0.26786   0.55440   0.00000  Uiso   1.00
O481   O     0.43294   0.11721   0.37407   0.00000  Uiso   1.00
H482   H     0.41147   0.10148   0.34884   0.00000  Uiso   1.00
O483   O     0.56705   0.21613   0.62593   0.00000  Uiso   1.00
H484   H     0.58853   0.23186   0.65116   0.00000  Uiso   1.00
C485   C     0.83202   0.08746   0.49982   0.00000  Uiso   1.00
C486   C     0.83465   0.24587   0.50019   0.00000  Uiso   1.00
C487   C     0.73475   0.16758   0.48804   0.00000  Uiso   1.00
C488   C     0.93192   0.16575   0.51196   0.00000  Uiso   1.00
C489   C     0.67968   0.17214   0.48211   0.00000  Uiso   1.00
C490   C     0.98698   0.16119   0.51789   0.00000  Uiso   1.00
C491   C     0.79781   0.02004   0.46623   0.00000  Uiso   1.00
C492   C     0.86886   0.31330   0.53377   0.00000  Uiso   1.00
C493   C     0.80135   0.31067   0.46622   0.00000  Uiso   1.00
C494   C     0.86532   0.02267   0.53378   0.00000  Uiso   1.00
C495   C     0.83571   0.29050   0.50005   0.00000  Uiso   1.00
C496   C     0.83095   0.04283   0.49995   0.00000  Uiso   1.00
C497   C     0.79988   0.14199   0.35391   0.00000  Uiso   1.00
C498   C     0.86679   0.19134   0.64609   0.00000  Uiso   1.00
C499   C     0.80015   0.14214   0.63742   0.00000  Uiso   1.00
C500   C     0.86651   0.19119   0.36258   0.00000  Uiso   1.00
Cu501  Cu    0.83333   0.16667   0.54689   0.00000  Uiso   1.00
Cu502  Cu    0.83333   0.16666   0.45311   0.00000  Uiso   1.00
H503   H     0.77560   0.29300   0.44075   0.00000  Uiso   1.00
H504   H     0.89106   0.04033   0.55925   0.00000  Uiso   1.00
H505   H     0.77388   0.12253   0.61483   0.00000  Uiso   1.00
H506   H     0.89279   0.21080   0.38517   0.00000  Uiso   1.00
N507   N     0.83335   0.16668   0.61736   0.00000  Uiso   1.00
N508   N     0.83332   0.16666   0.38264   0.00000  Uiso   1.00
O509   O     0.83333   0.10655   0.53958   0.00000  Uiso   1.00
O510   O     0.83334   0.22678   0.46042   0.00000  Uiso   1.00
O511   O     0.83333   0.10654   0.46039   0.00000  Uiso   1.00
O512   O     0.83334   0.22679   0.53961   0.00000  Uiso   1.00
O513   O     0.75828   0.16667   0.53046   0.00000  Uiso   1.00
O514   O     0.90839   0.16666   0.46954   0.00000  Uiso   1.00
O515   O     0.75828   0.16666   0.45127   0.00000  Uiso   1.00
O516   O     0.90839   0.16667   0.54873   0.00000  Uiso   1.00
O517   O     0.98806   0.18977   0.44118   0.00000  Uiso   1.00
H518   H     0.68004   0.19889   0.42074   0.00000  Uiso   1.00
O519   O     0.67860   0.14356   0.55882   0.00000  Uiso   1.00
H520   H     0.98663   0.13444   0.57926   0.00000  Uiso   1.00
O521   O     0.76063   0.03782   0.43403   0.00000  Uiso   1.00
H522   H     0.75244   0.06548   0.44560   0.00000  Uiso   1.00
O523   O     0.90603   0.29552   0.56598   0.00000  Uiso   1.00
H524   H     0.91423   0.26786   0.55440   0.00000  Uiso   1.00
O525   O     0.76628   0.11721   0.37407   0.00000  Uiso   1.00
H526   H     0.74480   0.10148   0.34884   0.00000  Uiso   1.00
O527   O     0.90039   0.21613   0.62593   0.00000  Uiso   1.00
H528   H     0.92186   0.23186   0.65116   0.00000  Uiso   1.00
C529   C     0.16535   0.42079   0.49982   0.00000  Uiso   1.00
C530   C     0.16798   0.57921   0.50019   0.00000  Uiso   1.00
C531   C     0.06808   0.50091   0.48804   0.00000  Uiso   1.00
C532   C     0.26525   0.49909   0.51196   0.00000  Uiso   1.00
C533   C     0.01302   0.50548   0.48211   0.00000  Uiso   1.00
C534   C     0.32032   0.49452   0.51789   0.00000  Uiso   1.00
C535   C     0.13114   0.35337   0.46623   0.00000  Uiso   1.00
C536   C     0.20219   0.64663   0.53377   0.00000  Uiso   1.00
C537   C     0.13468   0.64400   0.46622   0.00000  Uiso   1.00
C538   C     0.19865   0.35600   0.53378   0.00000  Uiso   1.00
C539   C     0.16905   0.62384   0.50005   0.00000  Uiso   1.00
C540   C     0.16429   0.37616   0.49995   0.00000  Uiso   1.00
C541   C     0.13321   0.47533   0.35391   0.00000  Uiso   1.00
C542   C     0.20012   0.52467   0.64609   0.00000  Uiso   1.00
C543   C     0.13349   0.47548   0.63742   0.00000  Uiso   1.00
C544   C     0.19985   0.52452   0.36258   0.00000  Uiso   1.00
Cu545  Cu    0.16667   0.50001   0.54689   0.00000  Uiso   1.00
Cu546  Cu    0.16667   0.49999   0.45311   0.00000  Uiso   1.00
H547   H     0.10893   0.62634   0.44075   0.00000  Uiso   1.00
H548   H     0.22440   0.37366   0.55925   0.00000  Uiso   1.00
H549   H     0.10721   0.45587   0.61483   0.00000  Uiso   1.00
H550   H     0.22612   0.54413   0.38517   0.00000  Uiso   1.00
N551   N     0.16668   0.50001   0.61736   0.00000  Uiso   1.00
N552   N     0.16665   0.49999   0.38264   0.00000  Uiso   1.00
O553   O     0.16666   0.43989   0.53958   0.00000  Uiso   1.00
O554   O     0.16667   0.56011   0.46042   0.00000  Uiso   1.00
O555   O     0.16666   0.43988   0.46039   0.00000  Uiso   1.00
O556   O     0.16667   0.56012   0.53961   0.00000  Uiso   1.00
O557   O     0.09161   0.50000   0.53046   0.00000  Uiso   1.00
O558   O     0.24172   0.50000   0.46954   0.00000  Uiso   1.00
O559   O     0.09161   0.49999   0.45127   0.00000  Uiso   1.00
O560   O     0.24172   0.50001   0.54873   0.00000  Uiso   1.00
O561   O     0.32140   0.52311   0.44118   0.00000  Uiso   1.00
H562   H     0.01337   0.53223   0.42074   0.00000  Uiso   1.00
O563   O     0.01194   0.47689   0.55882   0.00000  Uiso   1.00
H564   H     0.31996   0.46777   0.57926   0.00000  Uiso   1.00
O565   O     0.09396   0.37115   0.43403   0.00000  Uiso   1.00
H566   H     0.08577   0.39881   0.44560   0.00000  Uiso   1.00
O567   O     0.23937   0.62885   0.56598   0.00000  Uiso   1.00
H568   H     0.24757   0.60119   0.55440   0.00000  Uiso   1.00
O569   O     0.09961   0.45054   0.37407   0.00000  Uiso   1.00
H570   H     0.07814   0.43481   0.34884   0.00000  Uiso   1.00
O571   O     0.23372   0.54946   0.62593   0.00000  Uiso   1.00
H572   H     0.25520   0.56519   0.65116   0.00000  Uiso   1.00
C573   C     0.49868   0.42079   0.49982   0.00000  Uiso   1.00
C574   C     0.50132   0.57921   0.50019   0.00000  Uiso   1.00
C575   C     0.40141   0.50091   0.48804   0.00000  Uiso   1.00
C576   C     0.59859   0.49909   0.51196   0.00000  Uiso   1.00
C577   C     0.34635   0.50548   0.48211   0.00000  Uiso   1.00
C578   C     0.65365   0.49452   0.51789   0.00000  Uiso   1.00
C579   C     0.46447   0.35337   0.46623   0.00000  Uiso   1.00
C580   C     0.53552   0.64663   0.53377   0.00000  Uiso   1.00
C581   C     0.46801   0.64400   0.46622   0.00000  Uiso   1.00
C582   C     0.53198   0.35600   0.53378   0.00000  Uiso   1.00
C583   C     0.50238   0.62384   0.50005   0.00000  Uiso   1.00
C584   C     0.49762   0.37616   0.49995   0.00000  Uiso   1.00
C585   C     0.46654   0.47533   0.35391   0.00000  Uiso   1.00
C586   C     0.53346   0.52467   0.64609   0.00000  Uiso   1.00
C587   C     0.46682   0.47548   0.63742   0.00000  Uiso   1.00
C588   C     0.53318   0.52452   0.36258   0.00000  Uiso   1.00
Cu589  Cu    0.50000   0.50001   0.54689   0.00000  Uiso   1.00
Cu590  Cu    0.50000   0.49999   0.45311   0.00000  Uiso   1.00
H591   H     0.44227   0.62634   0.44075   0.00000  Uiso   1.00
H592   H     0.55773   0.37366   0.55925   0.00000  Uiso   1.00
H593   H     0.44055   0.45587   0.61483   0.00000  Uiso   1.00
H594   H     0.55945   0.54413   0.38517   0.00000  Uiso   1.00
N595   N     0.50001   0.50001   0.61736   0.00000  Uiso   1.00
N596   N     0.49999   0.49999   0.38264   0.00000  Uiso   1.00
O597   O     0.50000   0.43989   0.53958   0.00000  Uiso   1.00
O598   O     0.50000   0.56011   0.46042   0.00000  Uiso   1.00
O599   O     0.50000   0.43988   0.46039   0.00000  Uiso   1.00
O600   O     0.50000   0.56012   0.53961   0.00000  Uiso   1.00
O601   O     0.42495   0.50000   0.53046   0.00000  Uiso   1.00
O602   O     0.57505   0.50000   0.46954   0.00000  Uiso   1.00
O603   O     0.42494   0.49999   0.45127   0.00000  Uiso   1.00
O604   O     0.57506   0.50001   0.54873   0.00000  Uiso   1.00
O605   O     0.65473   0.52311   0.44118   0.00000  Uiso   1.00
H606   H     0.34670   0.53223   0.42074   0.00000  Uiso   1.00
O607   O     0.34527   0.47689   0.55882   0.00000  Uiso   1.00
H608   H     0.65330   0.46777   0.57926   0.00000  Uiso   1.00
O609   O     0.42729   0.37115   0.43403   0.00000  Uiso   1.00
H610   H     0.41910   0.39881   0.44560   0.00000  Uiso   1.00
O611   O     0.57270   0.62885   0.56598   0.00000  Uiso   1.00
H612   H     0.58090   0.60119   0.55440   0.00000  Uiso   1.00
O613   O     0.43294   0.45054   0.37407   0.00000  Uiso   1.00
H614   H     0.41147   0.43481   0.34884   0.00000  Uiso   1.00
O615   O     0.56705   0.54946   0.62593   0.00000  Uiso   1.00
H616   H     0.58853   0.56519   0.65116   0.00000  Uiso   1.00
C617   C     0.83202   0.42079   0.49982   0.00000  Uiso   1.00
C618   C     0.83465   0.57921   0.50019   0.00000  Uiso   1.00
C619   C     0.73475   0.50091   0.48804   0.00000  Uiso   1.00
C620   C     0.93192   0.49909   0.51196   0.00000  Uiso   1.00
C621   C     0.67968   0.50548   0.48211   0.00000  Uiso   1.00
C622   C     0.98698   0.49452   0.51789   0.00000  Uiso   1.00
C623   C     0.79781   0.35337   0.46623   0.00000  Uiso   1.00
C624   C     0.86886   0.64663   0.53377   0.00000  Uiso   1.00
C625   C     0.80135   0.64400   0.46622   0.00000  Uiso   1.00
C626   C     0.86532   0.35600   0.53378   0.00000  Uiso   1.00
C627   C     0.83571   0.62384   0.50005   0.00000  Uiso   1.00
C628   C     0.83095   0.37616   0.49995   0.00000  Uiso   1.00
C629   C     0.79988   0.47533   0.35391   0.00000  Uiso   1.00
C630   C     0.86679   0.52467   0.64609   0.00000  Uiso   1.00
C631   C     0.80015   0.47548   0.63742   0.00000  Uiso   1.00
C632   C     0.86651   0.52452   0.36258   0.00000  Uiso   1.00
Cu633  Cu    0.83333   0.50001   0.54689   0.00000  Uiso   1.00
Cu634  Cu    0.83333   0.49999   0.45311   0.00000  Uiso   1.00
H635   H     0.77560   0.62634   0.44075   0.00000  Uiso   1.00
H636   H     0.89106   0.37366   0.55925   0.00000  Uiso   1.00
H637   H     0.77388   0.45587   0.61483   0.00000  Uiso   1.00
H638   H     0.89279   0.54413   0.38517   0.00000  Uiso   1.00
N639   N     0.83335   0.50001   0.61736   0.00000  Uiso   1.00
N640   N     0.83332   0.49999   0.38264   0.00000  Uiso   1.00
O641   O     0.83333   0.43989   0.53958   0.00000  Uiso   1.00
O642   O     0.83334   0.56011   0.46042   0.00000  Uiso   1.00
O643   O     0.83333   0.43988   0.46039   0.00000  Uiso   1.00
O644   O     0.83334   0.56012   0.53961   0.00000  Uiso   1.00
O645   O     0.75828   0.50000   0.53046   0.00000  Uiso   1.00
O646   O     0.90839   0.50000   0.46954   0.00000  Uiso   1.00
O647   O     0.75828   0.49999   0.45127   0.00000  Uiso   1.00
O648   O     0.90839   0.50001   0.54873   0.00000  Uiso   1.00
O649   O     0.98806   0.52311   0.44118   0.00000  Uiso   1.00
H650   H     0.68004   0.53223   0.42074   0.00000  Uiso   1.00
O651   O     0.67860   0.47689   0.55882   0.00000  Uiso   1.00
H652   H     0.98663   0.46777   0.57926   0.00000  Uiso   1.00
O653   O     0.76063   0.37115   0.43403   0.00000  Uiso   1.00
H654   H     0.75244   0.39881   0.44560   0.00000  Uiso   1.00
O655   O     0.90603   0.62885   0.56598   0.00000  Uiso   1.00
H656   H     0.91423   0.60119   0.55440   0.00000  Uiso   1.00
O657   O     0.76628   0.45054   0.37407   0.00000  Uiso   1.00
H658   H     0.74480   0.43481   0.34884   0.00000  Uiso   1.00
O659   O     0.90039   0.54946   0.62593   0.00000  Uiso   1.00
H660   H     0.92186   0.56519   0.65116   0.00000  Uiso   1.00
C661   C     0.16535   0.75413   0.49982   0.00000  Uiso   1.00
C662   C     0.16798   0.91254   0.50019   0.00000  Uiso   1.00
C663   C     0.06808   0.83425   0.48804   0.00000  Uiso   1.00
C664   C     0.26525   0.83242   0.51196   0.00000  Uiso   1.00
C665   C     0.01302   0.83881   0.48211   0.00000  Uiso   1.00
C666   C     0.32032   0.82786   0.51789   0.00000  Uiso   1.00
C667   C     0.13114   0.68670   0.46623   0.00000  Uiso   1.00
C668   C     0.20219   0.97996   0.53377   0.00000  Uiso   1.00
C669   C     0.13468   0.97733   0.46622   0.00000  Uiso   1.00
C670   C     0.19865   0.68933   0.53378   0.00000  Uiso   1.00
C671   C     0.16905   0.95717   0.50005   0.00000  Uiso   1.00
C672   C     0.16429   0.70950   0.49995   0.00000  Uiso   1.00
C673   C     0.13321   0.80866   0.35391   0.00000  Uiso   1.00
C674   C     0.20012   0.85801   0.64609   0.00000  Uiso   1.00
C675   C     0.13349   0.80881   0.63742   0.00000  Uiso   1.00
C676   C     0.19985   0.85786   0.36258   0.00000  Uiso   1.00
Cu677  Cu    0.16667   0.83334   0.54689   0.00000  Uiso   1.00
Cu678  Cu    0.16667   0.83333   0.45311   0.00000  Uiso   1.00
H679   H     0.10893   0.95967   0.44075   0.00000  Uiso   1.00
H680   H     0.22440   0.70700   0.55925   0.00000  Uiso   1.00
H681   H     0.10721   0.78920   0.61483   0.00000  Uiso   1.00
H682   H     0.22612   0.87747   0.38517   0.00000  Uiso   1.00
N683   N     0.16668   0.83334   0.61736   0.00000  Uiso   1.00
N684   N     0.16665   0.83332   0.38264   0.00000  Uiso   1.00
O685   O     0.16666   0.77322   0.53958   0.00000  Uiso   1.00
O686   O     0.16667   0.89345   0.46042   0.00000  Uiso   1.00
O687   O     0.16666   0.77321   0.46039   0.00000  Uiso   1.00
O688   O     0.16667   0.89346   0.53961   0.00000  Uiso   1.00
O689   O     0.09161   0.83334   0.53046   0.00000  Uiso   1.00
O690   O     0.24172   0.83333   0.46954   0.00000  Uiso   1.00
O691   O     0.09161   0.83333   0.45127   0.00000  Uiso   1.00
O692   O     0.24172   0.83334   0.54873   0.00000  Uiso   1.00
O693   O     0.32140   0.85644   0.44118   0.00000  Uiso   1.00
H694   H     0.01337   0.86556   0.42074   0.00000  Uiso   1.00
O695   O     0.01194   0.81023   0.55882   0.00000  Uiso   1.00
H696   H     0.31996   0.80111   0.57926   0.00000  Uiso   1.00
O697   O     0.09396   0.70448   0.43403   0.00000  Uiso   1.00
H698   H     0.08577   0.73215   0.44560   0.00000  Uiso   1.00
O699   O     0.23937   0.96218   0.56598   0.00000  Uiso   1.00
H700   H     0.24757   0.93452   0.55440   0.00000  Uiso   1.00
O701   O     0.09961   0.78387   0.37407   0.00000  Uiso   1.00
H702   H     0.07814   0.76814   0.34884   0.00000  Uiso   1.00
O703   O     0.23372   0.88279   0.62593   0.00000  Uiso   1.00
H704   H     0.25520   0.89852   0.65116   0.00000  Uiso   1.00
C705   C     0.49868   0.75413   0.49982   0.00000  Uiso   1.00
C706   C     0.50132   0.91254   0.50019   0.00000  Uiso   1.00
C707   C     0.40141   0.83425   0.48804   0.00000  Uiso   1.00
C708   C     0.59859   0.83242   0.51196   0.00000  Uiso   1.00
C709   C     0.34635   0.83881   0.48211   0.00000  Uiso   1.00
C710   C     0.65365   0.82786   0.51789   0.00000  Uiso   1.00
C711   C     0.46447   0.68670   0.46623   0.00000  Uiso   1.00
C712   C     0.53552   0.97996   0.53377   0.00000  Uiso   1.00
C713   C     0.46801   0.97733   0.46622   0.00000  Uiso   1.00
C714   C     0.53198   0.68933   0.53378   0.00000  Uiso   1.00
C715   C     0.50238   0.95717   0.50005   0.00000  Uiso   1.00
C716   C     0.49762   0.70950   0.49995   0.00000  Uiso   1.00
C717   C     0.46654   0.80866   0.35391   0.00000  Uiso   1.00
C718   C     0.53346   0.85801   0.64609   0.00000  Uiso   1.00
C719   C     0.46682   0.80881   0.63742   0.00000  Uiso   1.00
C720   C     0.53318   0.85786   0.36258   0.00000  Uiso   1.00
Cu721  Cu    0.50000   0.83334   0.54689   0.00000  Uiso   1.00
Cu722  Cu    0.50000   0.83333   0.45311   0.00000  Uiso   1.00
H723   H     0.44227   0.95967   0.44075   0.00000  Uiso   1.00
H724   H     0.55773   0.70700   0.55925   0.00000  Uiso   1.00
H725   H     0.44055   0.78920   0.61483   0.00000  Uiso   1.00
H726   H     0.55945   0.87747   0.38517   0.00000  Uiso   1.00
N727   N     0.50001   0.83334   0.61736   0.00000  Uiso   1.00
N728   N     0.49999   0.83332   0.38264   0.00000  Uiso   1.00
O729   O     0.50000   0.77322   0.53958   0.00000  Uiso   1.00
O730   O     0.50000   0.89345   0.46042   0.00000  Uiso   1.00
O731   O     0.50000   0.77321   0.46039   0.00000  Uiso   1.00
O732   O     0.50000   0.89346   0.53961   0.00000  Uiso   1.00
O733   O     0.42495   0.83334   0.53046   0.00000  Uiso   1.00
O734   O     0.57505   0.83333   0.46954   0.00000  Uiso   1.00
O735   O     0.42494   0.83333   0.45127   0.00000  Uiso   1.00
O736   O     0.57506   0.83334   0.54873   0.00000  Uiso   1.00
O737   O     0.65473   0.85644   0.44118   0.00000  Uiso   1.00
H738   H     0.34670   0.86556   0.42074   0.00000  Uiso   1.00
O739   O     0.34527   0.81023   0.55882   0.00000  Uiso   1.00
H740   H     0.65330   0.80111   0.57926   0.00000  Uiso   1.00
O741   O     0.42729   0.70448   0.43403   0.00000  Uiso   1.00
H742   H     0.41910   0.73215   0.44560   0.00000  Uiso   1.00
O743   O     0.57270   0.96218   0.56598   0.00000  Uiso   1.00
H744   H     0.58090   0.93452   0.55440   0.00000  Uiso   1.00
O745   O     0.43294   0.78387   0.37407   0.00000  Uiso   1.00
H746   H     0.41147   0.76814   0.34884   0.00000  Uiso   1.00
O747   O     0.56705   0.88279   0.62593   0.00000  Uiso   1.00
H748   H     0.58853   0.89852   0.65116   0.00000  Uiso   1.00
C749   C     0.83202   0.75413   0.49982   0.00000  Uiso   1.00
C750   C     0.83465   0.91254   0.50019   0.00000  Uiso   1.00
C751   C     0.73475   0.83425   0.48804   0.00000  Uiso   1.00
C752   C     0.93192   0.83242   0.51196   0.00000  Uiso   1.00
C753   C     0.67968   0.83881   0.48211   0.00000  Uiso   1.00
C754   C     0.98698   0.82786   0.51789   0.00000  Uiso   1.00
C755   C     0.79781   0.68670   0.46623   0.00000  Uiso   1.00
C756   C     0.86886   0.97996   0.53377   0.00000  Uiso   1.00
C757   C     0.80135   0.97733   0.46622   0.00000  Uiso   1.00
C758   C     0.86532   0.68933   0.53378   0.00000  Uiso   1.00
C759   C     0.83571   0.95717   0.50005   0.00000  Uiso   1.00
C760   C     0.83095   0.70950   0.49995   0.00000  Uiso   1.00
C761   C     0.79988   0.80866   0.35391   0.00000  Uiso   1.00
C762   C     0.86679   0.85801   0.64609   0.00000  Uiso   1.00
C763   C     0.80015   0.80881   0.63742   0.00000  Uiso   1.00
C764   C     0.86651   0.85786   0.36258   0.00000  Uiso   1.00
Cu765  Cu    0.83333   0.83334   0.54689   0.00000  Uiso   1.00
Cu766  Cu    0.83333   0.83333   0.45311   0.00000  Uiso   1.00
H767   H     0.77560   0.95967   0.44075   0.00000  Uiso   1.00
H768   H     0.89106   0.70700   0.55925   0.00000  Uiso   1.00
H769   H     0.77388   0.78920   0.61483   0.00000  Uiso   1.00
H770   H     0.89279   0.87747   0.38517   0.00000  Uiso   1.00
N771   N     0.83335   0.83334   0.61736   0.00000  Uiso   1.00
N772   N     0.83332   0.83332   0.38264   0.00000  Uiso   1.00
O773   O     0.83333   0.77322   0.53958   0.00000  Uiso   1.00
O774   O     0.83334   0.89345   0.46042   0.00000  Uiso   1.00
O775   O     0.83333   0.77321   0.46039   0.00000  Uiso   1.00
O776   O     0.83334   0.89346   0.53961   0.00000  Uiso   1.00
O777   O     0.75828   0.83334   0.53046   0.00000  Uiso   1.00
O778   O     0.90839   0.83333   0.46954   0.00000  Uiso   1.00
O779   O     0.75828   0.83333   0.45127   0.00000  Uiso   1.00
O780   O     0.90839   0.83334   0.54873   0.00000  Uiso   1.00
O781   O     0.98806   0.85644   0.44118   0.00000  Uiso   1.00
H782   H     0.68004   0.86556   0.42074   0.00000  Uiso   1.00
O783   O     0.67860   0.81023   0.55882   0.00000  Uiso   1.00
H784   H     0.98663   0.80111   0.57926   0.00000  Uiso   1.00
O785   O     0.76063   0.70448   0.43403   0.00000  Uiso   1.00
H786   H     0.75244   0.73215   0.44560   0.00000  Uiso   1.00
O787   O     0.90603   0.96218   0.56598   0.00000  Uiso   1.00
H788   H     0.91423   0.93452   0.55440   0.00000  Uiso   1.00
O789   O     0.76628   0.78387   0.37407   0.00000  Uiso   1.00
H790   H     0.74480   0.76814   0.34884   0.00000  Uiso   1.00
O791   O     0.90039   0.88279   0.62593   0.00000  Uiso   1.00
H792   H     0.92186   0.89852   0.65116   0.00000  Uiso   1.00
C793   C     0.16535   0.08746   0.83315   0.00000  Uiso   1.00
C794   C     0.16798   0.24587   0.83352   0.00000  Uiso   1.00
C795   C     0.06808   0.16758   0.82138   0.00000  Uiso   1.00
C796   C     0.26525   0.16575   0.84529   0.00000  Uiso   1.00
C797   C     0.01302   0.17214   0.81544   0.00000  Uiso   1.00
C798   C     0.32032   0.16119   0.85122   0.00000  Uiso   1.00
C799   C     0.13114   0.02004   0.79957   0.00000  Uiso   1.00
C800   C     0.20219   0.31330   0.86710   0.00000  Uiso   1.00
C801   C     0.13468   0.31067   0.79955   0.00000  Uiso   1.00
C802   C     0.19865   0.02267   0.86712   0.00000  Uiso   1.00
C803   C     0.16905   0.29050   0.83339   0.00000  Uiso   1.00
C804   C     0.16429   0.04283   0.83328   0.00000  Uiso   1.00
C805   C     0.13321   0.14199   0.68724   0.00000  Uiso   1.00
C806   C     0.20012   0.19134   0.97943   0.00000  Uiso   1.00
C807   C     0.13349   0.14214   0.97075   0.00000  Uiso   1.00
C808   C     0.19985   0.19119   0.69591   0.00000  Uiso   1.00
Cu809  Cu    0.16667   0.16667   0.88022   0.00000  Uiso   1.00
Cu810  Cu    0.16667   0.16666   0.78645   0.00000  Uiso   1.00
H811   H     0.10893   0.29300   0.77408   0.00000  Uiso   1.00
H812   H     0.22440   0.04033   0.89259   0.00000  Uiso   1.00
H813   H     0.10721   0.12253   0.94817   0.00000  Uiso   1.00
H814   H     0.22612   0.21080   0.71850   0.00000  Uiso   1.00
N815   N     0.16668   0.16668   0.95069   0.00000  Uiso   1.00
N816   N     0.16665   0.16666   0.71597   0.00000  Uiso   1.00
O817   O     0.16666   0.10655   0.87291   0.00000  Uiso   1.00
O818   O     0.16667   0.22678   0.79375   0.00000  Uiso   1.00
O819   O     0.16666   0.10654   0.79372   0.00000  Uiso   1.00
O820   O     0.16667   0.22679   0.87294   0.00000  Uiso   1.00
O821   O     0.09161   0.16667   0.86379   0.00000  Uiso   1.00
O822   O     0.24172   0.16666   0.80288   0.00000  Uiso   1.00
O823   O     0.09161   0.16666   0.78460   0.00000  Uiso   1.00
O824   O     0.24172   0.16667   0.88207   0.00000  Uiso   1.00
O825   O     0.32140   0.18977   0.77451   0.00000  Uiso   1.00
H826   H     0.01337   0.19889   0.75407   0.00000  Uiso   1.00
O827   O     0.01194   0.14356   0.89216   0.00000  Uiso   1.00
H828   H     0.31996   0.13444   0.91259   0.00000  Uiso   1.00
O829   O     0.09396   0.03782   0.76736   0.00000  Uiso   1.00
H830   H     0.08577   0.06548   0.77894   0.00000  Uiso   1.00
O831   O     0.23937   0.29552   0.89931   0.00000  Uiso   1.00
H832   H     0.24757   0.26786   0.88773   0.00000  Uiso   1.00
O833   O     0.09961   0.11721   0.70740   0.00000  Uiso   1.00
H834   H     0.07814   0.10148   0.68217   0.00000  Uiso   1.00
O835   O     0.23372   0.21613   0.95927   0.00000  Uiso   1.00
H836   H     0.25520   0.23186   0.98449   0.00000  Uiso   1.00
C837   C     0.49868   0.08746   0.83315   0.00000  Uiso   1.00
C838   C     0.50132   0.24587   0.83352   0.00000  Uiso   1.00
C839   C     0.40141   0.16758   0.82138   0.00000  Uiso   1.00
C840   C     0.59859   0.16575   0.84529   0.00000  Uiso   1.00
C841   C     0.34635   0.17214   0.81544   0.00000  Uiso   1.00
C842   C     0.65365   0.16119   0.85122   0.00000  Uiso   1.00
C843   C     0.46447   0.02004   0.79957   0.00000  Uiso   1.00
C844   C     0.53552   0.31330   0.86710   0.00000  Uiso   1.00
C845   C     0.46801   0.31067   0.79955   0.00000  Uiso   1.00
C846   C     0.53198   0.02267   0.86712   0.00000  Uiso   1.00
C847   C     0.50238   0.29050   0.83339   0.00000  Uiso   1.00
C848   C     0.49762   0.04283   0.83328   0.00000  Uiso   1.00
C849   C     0.46654   0.14199   0.68724   0.00000  Uiso   1.00
C850   C     0.53346   0.19134   0.97943   0.00000  Uiso   1.00
C851   C     0.46682   0.14214   0.97075   0.00000  Uiso   1.00
C852   C     0.53318   0.19119   0.69591   0.00000  Uiso   1.00
Cu853  Cu    0.50000   0.16667   0.88022   0.00000  Uiso   1.00
Cu854  Cu    0.50000   0.16666   0.78645   0.00000  Uiso   1.00
H855   H     0.44227   0.29300   0.77408   0.00000  Uiso   1.00
H856   H     0.55773   0.04033   0.89259   0.00000  Uiso   1.00
H857   H     0.44055   0.12253   0.94817   0.00000  Uiso   1.00
H858   H     0.55945   0.21080   0.71850   0.00000  Uiso   1.00
N859   N     0.50001   0.16668   0.95069   0.00000  Uiso   1.00
N860   N     0.49999   0.16666   0.71597   0.00000  Uiso   1.00
O861   O     0.50000   0.10655   0.87291   0.00000  Uiso   1.00
O862   O     0.50000   0.22678   0.79375   0.00000  Uiso   1.00
O863   O     0.50000   0.10654   0.79372   0.00000  Uiso   1.00
O864   O     0.50000   0.22679   0.87294   0.00000  Uiso   1.00
O865   O     0.42495   0.16667   0.86379   0.00000  Uiso   1.00
O866   O     0.57505   0.16666   0.80288   0.00000  Uiso   1.00
O867   O     0.42494   0.16666   0.78460   0.00000  Uiso   1.00
O868   O     0.57506   0.16667   0.88207   0.00000  Uiso   1.00
O869   O     0.65473   0.18977   0.77451   0.00000  Uiso   1.00
H870   H     0.34670   0.19889   0.75407   0.00000  Uiso   1.00
O871   O     0.34527   0.14356   0.89216   0.00000  Uiso   1.00
H872   H     0.65330   0.13444   0.91259   0.00000  Uiso   1.00
O873   O     0.42729   0.03782   0.76736   0.00000  Uiso   1.00
H874   H     0.41910   0.06548   0.77894   0.00000  Uiso   1.00
O875   O     0.57270   0.29552   0.89931   0.00000  Uiso   1.00
H876   H     0.58090   0.26786   0.88773   0.00000  Uiso   1.00
O877   O     0.43294   0.11721   0.70740   0.00000  Uiso   1.00
H878   H     0.41147   0.10148   0.68217   0.00000  Uiso   1.00
O879   O     0.56705   0.21613   0.95927   0.00000  Uiso   1.00
H880   H     0.58853   0.23186   0.98449   0.00000  Uiso   1.00
C881   C     0.83202   0.08746   0.83315   0.00000  Uiso   1.00
C882   C     0.83465   0.24587   0.83352   0.00000  Uiso   1.00
C883   C     0.73475   0.16758   0.82138   0.00000  Uiso   1.00
C884   C     0.93192   0.16575   0.84529   0.00000  Uiso   1.00
C885   C     0.67968   0.17214   0.81544   0.00000  Uiso   1.00
C886   C     0.98698   0.16119   0.85122   0.00000  Uiso   1.00
C887   C     0.79781   0.02004   0.79957   0.00000  Uiso   1.00
C888   C     0.86886   0.31330   0.86710   0.00000  Uiso   1.00
C889   C     0.80135   0.31067   0.79955   0.00000  Uiso   1.00
C890   C     0.86532   0.02267   0.86712   0.00000  Uiso   1.00
C891   C     0.83571   0.29050   0.83339   0.00000  Uiso   1.00
C892   C     0.83095   0.04283   0.83328   0.00000  Uiso   1.00
C893   C     0.79988   0.14199   0.68724   0.00000  Uiso   1.00
C894   C     0.86679   0.19134   0.97943   0.00000  Uiso   1.00
C895   C     0.80015   0.14214   0.97075   0.00000  Uiso   1.00
C896   C     0.86651   0.19119   0.69591   0.00000  Uiso   1.00
Cu897  Cu    0.83333   0.16667   0.88022   0.00000  Uiso   1.00
Cu898  Cu    0.83333   0.16666   0.78645   0.00000  Uiso   1.00
H899   H     0.77560   0.29300   0.77408   0.00000  Uiso   1.00
H900   H     0.89106   0.04033   0.89259   0.00000  Uiso   1.00
H901   H     0.77388   0.12253   0.94817   0.00000  Uiso   1.00
H902   H     0.89279   0.21080   0.71850   0.00000  Uiso   1.00
N903   N     0.83335   0.16668   0.95069   0.00000  Uiso   1.00
N904   N     0.83332   0.16666   0.71597   0.00000  Uiso   1.00
O905   O     0.83333   0.10655   0.87291   0.00000  Uiso   1.00
O906   O     0.83334   0.22678   0.79375   0.00000  Uiso   1.00
O907   O     0.83333   0.10654   0.79372   0.00000  Uiso   1.00
O908   O     0.83334   0.22679   0.87294   0.00000  Uiso   1.00
O909   O     0.75828   0.16667   0.86379   0.00000  Uiso   1.00
O910   O     0.90839   0.16666   0.80288   0.00000  Uiso   1.00
O911   O     0.75828   0.16666   0.78460   0.00000  Uiso   1.00
O912   O     0.90839   0.16667   0.88207   0.00000  Uiso   1.00
O913   O     0.98806   0.18977   0.77451   0.00000  Uiso   1.00
H914   H     0.68004   0.19889   0.75407   0.00000  Uiso   1.00
O915   O     0.67860   0.14356   0.89216   0.00000  Uiso   1.00
H916   H     0.98663   0.13444   0.91259   0.00000  Uiso   1.00
O917   O     0.76063   0.03782   0.76736   0.00000  Uiso   1.00
H918   H     0.75244   0.06548   0.77894   0.00000  Uiso   1.00
O919   O     0.90603   0.29552   0.89931   0.00000  Uiso   1.00
H920   H     0.91423   0.26786   0.88773   0.00000  Uiso   1.00
O921   O     0.76628   0.11721   0.70740   0.00000  Uiso   1.00
H922   H     0.74480   0.10148   0.68217   0.00000  Uiso   1.00
O923   O     0.90039   0.21613   0.95927   0.00000  Uiso   1.00
H924   H     0.92186   0.23186   0.98449   0.00000  Uiso   1.00
C925   C     0.16535   0.42079   0.83315   0.00000  Uiso   1.00
C926   C     0.16798   0.57921   0.83352   0.00000  Uiso   1.00
C927   C     0.06808   0.50091   0.82138   0.00000  Uiso   1.00
C928   C     0.26525   0.49909   0.84529   0.00000  Uiso   1.00
C929   C     0.01302   0.50548   0.81544   0.00000  Uiso   1.00
C930   C     0.32032   0.49452   0.85122   0.00000  Uiso   1.00
C931   C     0.13114   0.35337   0.79957   0.00000  Uiso   1.00
C932   C     0.20219   0.64663   0.86710   0.00000  Uiso   1.00
C933   C     0.13468   0.64400   0.79955   0.00000  Uiso   1.00
C934   C     0.19865   0.35600   0.86712   0.00000  Uiso   1.00
C935   C     0.16905   0.62384   0.83339   0.00000  Uiso   1.00
C936   C     0.16429   0.37616   0.83328   0.00000  Uiso   1.00
C937   C     0.13321   0.47533   0.68724   0.00000  Uiso   1.00
C938   C     0.20012   0.52467   0.97943   0.00000  Uiso   1.00
C939   C     0.13349   0.47548   0.97075   0.00000  Uiso   1.00
C940   C     0.19985   0.52452   0.69591   0.00000  Uiso   1.00
Cu941  Cu    0.16667   0.50001   0.88022   0.00000  Uiso   1.00
Cu942  Cu    0.16667   0.49999   0.78645   0.00000  Uiso   1.00
H943   H     0.10893   0.62634   0.77408   0.00000  Uiso   1.00
H944   H     0.22440   0.37366   0.89259   0.00000  Uiso   1.00
H945   H     0.10721   0.45587   0.94817   0.00000  Uiso   1.00
H946   H     0.22612   0.54413   0.71850   0.00000  Uiso   1.00
N947   N     0.16668   0.50001   0.95069   0.00000  Uiso   1.00
N948   N     0.16665   0.49999   0.71597   0.00000  Uiso   1.00
O949   O     0.16666   0.43989   0.87291   0.00000  Uiso   1.00
O950   O     0.16667   0.56011   0.79375   0.00000  Uiso   1.00
O951   O     0.16666   0.43988   0.79372   0.00000  Uiso   1.00
O952   O     0.16667   0.56012   0.87294   0.00000  Uiso   1.00
O953   O     0.09161   0.50000   0.86379   0.00000  Uiso   1.00
O954   O     0.24172   0.50000   0.80288   0.00000  Uiso   1.00
O955   O     0.09161   0.49999   0.78460   0.00000  Uiso   1.00
O956   O     0.24172   0.50001   0.88207   0.00000  Uiso   1.00
O957   O     0.32140   0.52311   0.77451   0.00000  Uiso   1.00
H958   H     0.01337   0.53223   0.75407   0.00000  Uiso   1.00
O959   O     0.01194   0.47689   0.89216   0.00000  Uiso   1.00
H960   H     0.31996   0.46777   0.91259   0.00000  Uiso   1.00
O961   O     0.09396   0.37115   0.76736   0.00000  Uiso   1.00
H962   H     0.08577   0.39881   0.77894   0.00000  Uiso   1.00
O963   O     0.23937   0.62885   0.89931   0.00000  Uiso   1.00
H964   H     0.24757   0.60119   0.88773   0.00000  Uiso   1.00
O965   O     0.09961   0.45054   0.70740   0.00000  Uiso   1.00
H966   H     0.07814   0.43481   0.68217   0.00000  Uiso   1.00
O967   O     0.23372   0.54946   0.95927   0.00000  Uiso   1.00
H968   H     0.25520   0.56519   0.98449   0.00000  Uiso   1.00
C969   C     0.49868   0.42079   0.83315   0.00000  Uiso   1.00
C970   C     0.50132   0.57921   0.83352   0.00000  Uiso   1.00
C971   C     0.40141   0.50091   0.82138   0.00000  Uiso   1.00
C972   C     0.59859   0.49909   0.84529   0.00000  Uiso   1.00
C973   C     0.34635   0.50548   0.81544   0.00000  Uiso   1.00
C974   C     0.65365   0.49452   0.85122   0.00000  Uiso   1.00
C975   C     0.46447   0.35337   0.79957   0.00000  Uiso   1.00
C976   C     0.53552   0.64663   0.86710   0.00000  Uiso   1.00
C977   C     0.46801   0.64400   0.79955   0.00000  Uiso   1.00
C978   C     0.53198   0.35600   0.86712   0.00000  Uiso   1.00
C979   C     0.50238   0.62384   0.83339   0.00000  Uiso   1.00
C980   C     0.49762   0.37616   0.83328   0.00000  Uiso   1.00
C981   C     0.46654   0.47533   0.68724   0.00000  Uiso   1.00
C982   C     0.53346   0.52467   0.97943   0.00000  Uiso   1.00
C983   C     0.46682   0.47548   0.97075   0.00000  Uiso   1.00
C984   C     0.53318   0.52452   0.69591   0.00000  Uiso   1.00
Cu985  Cu    0.50000   0.50001   0.88022   0.00000  Uiso   1.00
Cu986  Cu    0.50000   0.49999   0.78645   0.00000  Uiso   1.00
H987   H     0.44227   0.62634   0.77408   0.00000  Uiso   1.00
H988   H     0.55773   0.37366   0.89259   0.00000  Uiso   1.00
H989   H     0.44055   0.45587   0.94817   0.00000  Uiso   1.00
H990   H     0.55945   0.54413   0.71850   0.00000  Uiso   1.00
N991   N     0.50001   0.50001   0.95069   0.00000  Uiso   1.00
N992   N     0.49999   0.49999   0.71597   0.00000  Uiso   1.00
O993   O     0.50000   0.43989   0.87291   0.00000  Uiso   1.00
O994   O     0.50000   0.56011   0.79375   0.00000  Uiso   1.00
O995   O     0.50000   0.43988   0.79372   0.00000  Uiso   1.00
O996   O     0.50000   0.56012   0.87294   0.00000  Uiso   1.00
O997   O     0.42495   0.50000   0.86379   0.00000  Uiso   1.00
O998   O     0.57505   0.50000   0.80288   0.00000  Uiso   1.00
O999   O     0.42494   0.49999   0.78460   0.00000  Uiso   1.00
O1000  O     0.57506   0.50001   0.88207   0.00000  Uiso   1.00
O1001  O     0.65473   0.52311   0.77451   0.00000  Uiso   1.00
H1002  H     0.34670   0.53223   0.75407   0.00000  Uiso   1.00
O1003  O     0.34527   0.47689   0.89216   0.00000  Uiso   1.00
H1004  H     0.65330   0.46777   0.91259   0.00000  Uiso   1.00
O1005  O     0.42729   0.37115   0.76736   0.00000  Uiso   1.00
H1006  H     0.41910   0.39881   0.77894   0.00000  Uiso   1.00
O1007  O     0.57270   0.62885   0.89931   0.00000  Uiso   1.00
H1008  H     0.58090   0.60119   0.88773   0.00000  Uiso   1.00
O1009  O     0.43294   0.45054   0.70740   0.00000  Uiso   1.00
H1010  H     0.41147   0.43481   0.68217   0.00000  Uiso   1.00
O1011  O     0.56705   0.54946   0.95927   0.00000  Uiso   1.00
H1012  H     0.58853   0.56519   0.98449   0.00000  Uiso   1.00
C1013  C     0.83202   0.42079   0.83315   0.00000  Uiso   1.00
C1014  C     0.83465   0.57921   0.83352   0.00000  Uiso   1.00
C1015  C     0.73475   0.50091   0.82138   0.00000  Uiso   1.00
C1016  C     0.93192   0.49909   0.84529   0.00000  Uiso   1.00
C1017  C     0.67968   0.50548   0.81544   0.00000  Uiso   1.00
C1018  C     0.98698   0.49452   0.85122   0.00000  Uiso   1.00
C1019  C     0.79781   0.35337   0.79957   0.00000  Uiso   1.00
C1020  C     0.86886   0.64663   0.86710   0.00000  Uiso   1.00
C1021  C     0.80135   0.64400   0.79955   0.00000  Uiso   1.00
C1022  C     0.86532   0.35600   0.86712   0.00000  Uiso   1.00
C1023  C     0.83571   0.62384   0.83339   0.00000  Uiso   1.00
C1024  C     0.83095   0.37616   0.83328   0.00000  Uiso   1.00
C1025  C     0.79988   0.47533   0.68724   0.00000  Uiso   1.00
C1026  C     0.86679   0.52467   0.97943   0.00000  Uiso   1.00
C1027  C     0.80015   0.47548   0.97075   0.00000  Uiso   1.00
C1028  C     0.86651   0.52452   0.69591   0.00000  Uiso   1.00
Cu1029 Cu    0.83333   0.50001   0.88022   0.00000  Uiso   1.00
Cu1030 Cu    0.83333   0.49999   0.78645   0.00000  Uiso   1.00
H1031  H     0.77560   0.62634   0.77408   0.00000  Uiso   1.00
H1032  H     0.89106   0.37366   0.89259   0.00000  Uiso   1.00
H1033  H     0.77388   0.45587   0.94817   0.00000  Uiso   1.00
H1034  H     0.89279   0.54413   0.71850   0.00000  Uiso   1.00
N1035  N     0.83335   0.50001   0.95069   0.00000  Uiso   1.00
N1036  N     0.83332   0.49999   0.71597   0.00000  Uiso   1.00
O1037  O     0.83333   0.43989   0.87291   0.00000  Uiso   1.00
O1038  O     0.83334   0.56011   0.79375   0.00000  Uiso   1.00
O1039  O     0.83333   0.43988   0.79372   0.00000  Uiso   1.00
O1040  O     0.83334   0.56012   0.87294   0.00000  Uiso   1.00
O1041  O     0.75828   0.50000   0.86379   0.00000  Uiso   1.00
O1042  O     0.90839   0.50000   0.80288   0.00000  Uiso   1.00
O1043  O     0.75828   0.49999   0.78460   0.00000  Uiso   1.00
O1044  O     0.90839   0.50001   0.88207   0.00000  Uiso   1.00
O1045  O     0.98806   0.52311   0.77451   0.00000  Uiso   1.00
H1046  H     0.68004   0.53223   0.75407   0.00000  Uiso   1.00
O1047  O     0.67860   0.47689   0.89216   0.00000  Uiso   1.00
H1048  H     0.98663   0.46777   0.91259   0.00000  Uiso   1.00
O1049  O     0.76063   0.37115   0.76736   0.00000  Uiso   1.00
H1050  H     0.75244   0.39881   0.77894   0.00000  Uiso   1.00
O1051  O     0.90603   0.62885   0.89931   0.00000  Uiso   1.00
H1052  H     0.91423   0.60119   0.88773   0.00000  Uiso   1.00
O1053  O     0.76628   0.45054   0.70740   0.00000  Uiso   1.00
H1054  H     0.74480   0.43481   0.68217   0.00000  Uiso   1.00
O1055  O     0.90039   0.54946   0.95927   0.00000  Uiso   1.00
H1056  H     0.92186   0.56519   0.98449   0.00000  Uiso   1.00
C1057  C     0.16535   0.75413   0.83315   0.00000  Uiso   1.00
C1058  C     0.16798   0.91254   0.83352   0.00000  Uiso   1.00
C1059  C     0.06808   0.83425   0.82138   0.00000  Uiso   1.00
C1060  C     0.26525   0.83242   0.84529   0.00000  Uiso   1.00
C1061  C     0.01302   0.83881   0.81544   0.00000  Uiso   1.00
C1062  C     0.32032   0.82786   0.85122   0.00000  Uiso   1.00
C1063  C     0.13114   0.68670   0.79957   0.00000  Uiso   1.00
C1064  C     0.20219   0.97996   0.86710   0.00000  Uiso   1.00
C1065  C     0.13468   0.97733   0.79955   0.00000  Uiso   1.00
C1066  C     0.19865   0.68933   0.86712   0.00000  Uiso   1.00
C1067  C     0.16905   0.95717   0.83339   0.00000  Uiso   1.00
C1068  C     0.16429   0.70950   0.83328   0.00000  Uiso   1.00
C1069  C     0.13321   0.80866   0.68724   0.00000  Uiso   1.00
C1070  C     0.20012   0.85801   0.97943   0.00000  Uiso   1.00
C1071  C     0.13349   0.80881   0.97075   0.00000  Uiso   1.00
C1072  C     0.19985   0.85786   0.69591   0.00000  Uiso   1.00
Cu1073 Cu    0.16667   0.83334   0.88022   0.00000  Uiso   1.00
Cu1074 Cu    0.16667   0.83333   0.78645   0.00000  Uiso   1.00
H1075  H     0.10893   0.95967   0.77408   0.00000  Uiso   1.00
H1076  H     0.22440   0.70700   0.89259   0.00000  Uiso   1.00
H1077  H     0.10721   0.78920   0.94817   0.00000  Uiso   1.00
H1078  H     0.22612   0.87747   0.71850   0.00000  Uiso   1.00
N1079  N     0.16668   0.83334   0.95069   0.00000  Uiso   1.00
N1080  N     0.16665   0.83332   0.71597   0.00000  Uiso   1.00
O1081  O     0.16666   0.77322   0.87291   0.00000  Uiso   1.00
O1082  O     0.16667   0.89345   0.79375   0.00000  Uiso   1.00
O1083  O     0.16666   0.77321   0.79372   0.00000  Uiso   1.00
O1084  O     0.16667   0.89346   0.87294   0.00000  Uiso   1.00
O1085  O     0.09161   0.83334   0.86379   0.00000  Uiso   1.00
O1086  O     0.24172   0.83333   0.80288   0.00000  Uiso   1.00
O1087  O     0.09161   0.83333   0.78460   0.00000  Uiso   1.00
O1088  O     0.24172   0.83334   0.88207   0.00000  Uiso   1.00
O1089  O     0.32140   0.85644   0.77451   0.00000  Uiso   1.00
H1090  H     0.01337   0.86556   0.75407   0.00000  Uiso   1.00
O1091  O     0.01194   0.81023   0.89216   0.00000  Uiso   1.00
H1092  H     0.31996   0.80111   0.91259   0.00000  Uiso   1.00
O1093  O     0.09396   0.70448   0.76736   0.00000  Uiso   1.00
H1094  H     0.08577   0.73215   0.77894   0.00000  Uiso   1.00
O1095  O     0.23937   0.96218   0.89931   0.00000  Uiso   1.00
H1096  H     0.24757   0.93452   0.88773   0.00000  Uiso   1.00
O1097  O     0.09961   0.78387   0.70740   0.00000  Uiso   1.00
H1098  H     0.07814   0.76814   0.68217   0.00000  Uiso   1.00
O1099  O     0.23372   0.88279   0.95927   0.00000  Uiso   1.00
H1100  H     0.25520   0.89852   0.98449   0.00000  Uiso   1.00
C1101  C     0.49868   0.75413   0.83315   0.00000  Uiso   1.00
C1102  C     0.50132   0.91254   0.83352   0.00000  Uiso   1.00
C1103  C     0.40141   0.83425   0.82138   0.00000  Uiso   1.00
C1104  C     0.59859   0.83242   0.84529   0.00000  Uiso   1.00
C1105  C     0.34635   0.83881   0.81544   0.00000  Uiso   1.00
C1106  C     0.65365   0.82786   0.85122   0.00000  Uiso   1.00
C1107  C     0.46447   0.68670   0.79957   0.00000  Uiso   1.00
C1108  C     0.53552   0.97996   0.86710   0.00000  Uiso   1.00
C1109  C     0.46801   0.97733   0.79955   0.00000  Uiso   1.00
C1110  C     0.53198   0.68933   0.86712   0.00000  Uiso   1.00
C1111  C     0.50238   0.95717   0.83339   0.00000  Uiso   1.00
C1112  C     0.49762   0.70950   0.83328   0.00000  Uiso   1.00
C1113  C     0.46654   0.80866   0.68724   0.00000  Uiso   1.00
C1114  C     0.53346   0.85801   0.97943   0.00000  Uiso   1.00
C1115  C     0.46682   0.80881   0.97075   0.00000  Uiso   1.00
C1116  C     0.53318   0.85786   0.69591   0.00000  Uiso   1.00
Cu1117 Cu    0.50000   0.83334   0.88022   0.00000  Uiso   1.00
Cu1118 Cu    0.50000   0.83333   0.78645   0.00000  Uiso   1.00
H1119  H     0.44227   0.95967   0.77408   0.00000  Uiso   1.00
H1120  H     0.55773   0.70700   0.89259   0.00000  Uiso   1.00
H1121  H     0.44055   0.78920   0.94817   0.00000  Uiso   1.00
H1122  H     0.55945   0.87747   0.71850   0.00000  Uiso   1.00
N1123  N     0.50001   0.83334   0.95069   0.00000  Uiso   1.00
N1124  N     0.49999   0.83332   0.71597   0.00000  Uiso   1.00
O1125  O     0.50000   0.77322   0.87291   0.00000  Uiso   1.00
O1126  O     0.50000   0.89345   0.79375   0.00000  Uiso   1.00
O1127  O     0.50000   0.77321   0.79372   0.00000  Uiso   1.00
O1128  O     0.50000   0.89346   0.87294   0.00000  Uiso   1.00
O1129  O     0.42495   0.83334   0.86379   0.00000  Uiso   1.00
O1130  O     0.57505   0.83333   0.80288   0.00000  Uiso   1.00
O1131  O     0.42494   0.83333   0.78460   0.00000  Uiso   1.00
O1132  O     0.57506   0.83334   0.88207   0.00000  Uiso   1.00
O1133  O     0.65473   0.85644   0.77451   0.00000  Uiso   1.00
H1134  H     0.34670   0.86556   0.75407   0.00000  Uiso   1.00
O1135  O     0.34527   0.81023   0.89216   0.00000  Uiso   1.00
H1136  H     0.65330   0.80111   0.91259   0.00000  Uiso   1.00
O1137  O     0.42729   0.70448   0.76736   0.00000  Uiso   1.00
H1138  H     0.41910   0.73215   0.77894   0.00000  Uiso   1.00
O1139  O     0.57270   0.96218   0.89931   0.00000  Uiso   1.00
H1140  H     0.58090   0.93452   0.88773   0.00000  Uiso   1.00
O1141  O     0.43294   0.78387   0.70740   0.00000  Uiso   1.00
H1142  H     0.41147   0.76814   0.68217   0.00000  Uiso   1.00
O1143  O     0.56705   0.88279   0.95927   0.00000  Uiso   1.00
H1144  H     0.58853   0.89852   0.98449   0.00000  Uiso   1.00
C1145  C     0.83202   0.75413   0.83315   0.00000  Uiso   1.00
C1146  C     0.83465   0.91254   0.83352   0.00000  Uiso   1.00
C1147  C     0.73475   0.83425   0.82138   0.00000  Uiso   1.00
C1148  C     0.93192   0.83242   0.84529   0.00000  Uiso   1.00
C1149  C     0.67968   0.83881   0.81544   0.00000  Uiso   1.00
C1150  C     0.98698   0.82786   0.85122   0.00000  Uiso   1.00
C1151  C     0.79781   0.68670   0.79957   0.00000  Uiso   1.00
C1152  C     0.86886   0.97996   0.86710   0.00000  Uiso   1.00
C1153  C     0.80135   0.97733   0.79955   0.00000  Uiso   1.00
C1154  C     0.86532   0.68933   0.86712   0.00000  Uiso   1.00
C1155  C     0.83571   0.95717   0.83339   0.00000  Uiso   1.00
C1156  C     0.83095   0.70950   0.83328   0.00000  Uiso   1.00
C1157  C     0.79988   0.80866   0.68724   0.00000  Uiso   1.00
C1158  C     0.86679   0.85801   0.97943   0.00000  Uiso   1.00
C1159  C     0.80015   0.80881   0.97075   0.00000  Uiso   1.00
C1160  C     0.86651   0.85786   0.69591   0.00000  Uiso   1.00
Cu1161 Cu    0.83333   0.83334   0.88022   0.00000  Uiso   1.00
Cu1162 Cu    0.83333   0.83333   0.78645   0.00000  Uiso   1.00
H1163  H     0.77560   0.95967   0.77408   0.00000  Uiso   1.00
H1164  H     0.89106   0.70700   0.89259   0.00000  Uiso   1.00
H1165  H     0.77388   0.78920   0.94817   0.00000  Uiso   1.00
H1166  H     0.89279   0.87747   0.71850   0.00000  Uiso   1.00
N1167  N     0.83335   0.83334   0.95069   0.00000  Uiso   1.00
N1168  N     0.83332   0.83332   0.71597   0.00000  Uiso   1.00
O1169  O     0.83333   0.77322   0.87291   0.00000  Uiso   1.00
O1170  O     0.83334   0.89345   0.79375   0.00000  Uiso   1.00
O1171  O     0.83333   0.77321   0.79372   0.00000  Uiso   1.00
O1172  O     0.83334   0.89346   0.87294   0.00000  Uiso   1.00
O1173  O     0.75828   0.83334   0.86379   0.00000  Uiso   1.00
O1174  O     0.90839   0.83333   0.80288   0.00000  Uiso   1.00
O1175  O     0.75828   0.83333   0.78460   0.00000  Uiso   1.00
O1176  O     0.90839   0.83334   0.88207   0.00000  Uiso   1.00
O1177  O     0.98806   0.85644   0.77451   0.00000  Uiso   1.00
H1178  H     0.68004   0.86556   0.75407   0.00000  Uiso   1.00
O1179  O     0.67860   0.81023   0.89216   0.00000  Uiso   1.00
H1180  H     0.98663   0.80111   0.91259   0.00000  Uiso   1.00
O1181  O     0.76063   0.70448   0.76736   0.00000  Uiso   1.00
H1182  H     0.75244   0.73215   0.77894   0.00000  Uiso   1.00
O1183  O     0.90603   0.96218   0.89931   0.00000  Uiso   1.00
H1184  H     0.91423   0.93452   0.88773   0.00000  Uiso   1.00
O1185  O     0.76628   0.78387   0.70740   0.00000  Uiso   1.00
H1186  H     0.74480   0.76814   0.68217   0.00000  Uiso   1.00
O1187  O     0.90039   0.88279   0.95927   0.00000  Uiso   1.00
H1188  H     0.92186   0.89852   0.98449   0.00000  Uiso   1.00
loop_
_geom_bond_atom_site_label_1
_geom_bond_atom_site_label_2
_geom_bond_distance
_geom_bond_site_symmetry_2
_ccdc_geom_bond_type
C1     O25     1.289   .     A
C1     O27     1.292   .     A
C1     C12     1.445   .     S
C2     C11     1.445   .     S
C2     O28     1.292   .     A
C2     O26     1.289   .     A
C3     O31     1.294   .     A
C3     O29     1.285   .     A
C3     C5      1.449   .     S
C4     O32     1.294   .     A
C4     C6      1.449   .     S
C4     O30     1.285   .     A
C5     C94     1.356   1_455 S
C5     O121    1.388   1_455 S
C6     C49     1.356   .     S
C6     O79     1.388   .     S
C7     O37     1.381   .     S
C7     C12     1.413   .     A
C7     C273    1.386   1_545 S
C8     O39     1.381   .     S
C8     C11     1.413   .     A
C8     C142    1.386   .     S
C9     C11     1.399   .     A
C9     H19     1.085   .     S
C9     C139    1.386   .     S
C10    C12     1.399   .     A
C10    H20     1.085   .     S
C10    C272    1.386   1_545 S
C13    O41     1.377   .     S
C13    N24     1.371   .     A
C13    C807    1.426   1_554 S
C14    N23     1.371   .     A
C14    O43     1.377   .     S
C14    C412    1.426   .     S
C15    N23     1.364   .     A
C15    H21     1.082   .     S
C15    C409    1.426   .     S
C16    N24     1.364   .     A
C16    H22     1.082   .     S
C16    C806    1.426   1_554 S
Cu17   O29     1.973   .     S
Cu17   O25     1.957   .     S
Cu17   N23     2.016   .     S
Cu17   Cu18    2.683   .     S
Cu17   O32     1.975   .     S
Cu17   O28     1.958   .     S
Cu18   O30     1.973   .     S
Cu18   O26     1.957   .     S
Cu18   N24     2.016   .     S
Cu18   O31     1.975   .     S
Cu18   O27     1.958   .     S
O33    C49     1.388   .     S
O33    H78     0.991   .     S
H34    O121    0.991   1_455 S
O35    C94     1.388   1_455 S
O35    H124    0.991   1_455 S
H36    O79     0.991   .     S
O37    H38     0.989   .     S
O39    H40     0.989   .     S
O41    H42     0.992   .     S
O43    H44     0.992   .     S
C45    O69     1.289   .     A
C45    O71     1.292   .     A
C45    C56     1.445   .     S
C46    C55     1.445   .     S
C46    O72     1.292   .     A
C46    O70     1.289   .     A
C47    O75     1.294   .     A
C47    O73     1.285   .     A
C47    C49     1.449   .     S
C48    O76     1.294   .     A
C48    C50     1.449   .     S
C48    O74     1.285   .     A
C50    C93     1.356   .     S
C50    O123    1.388   .     S
C51    O81     1.381   .     S
C51    C56     1.413   .     A
C51    C317    1.386   1_545 S
C52    O83     1.381   .     S
C52    C55     1.413   .     A
C52    C186    1.386   .     S
C53    C55     1.399   .     A
C53    H63     1.085   .     S
C53    C183    1.386   .     S
C54    C56     1.399   .     A
C54    H64     1.085   .     S
C54    C316    1.386   1_545 S
C57    O85     1.377   .     S
C57    N68     1.371   .     A
C57    C851    1.426   1_554 S
C58    N67     1.371   .     A
C58    O87     1.377   .     S
C58    C456    1.426   .     S
C59    N67     1.364   .     A
C59    H65     1.082   .     S
C59    C453    1.426   .     S
C60    N68     1.364   .     A
C60    H66     1.082   .     S
C60    C850    1.426   1_554 S
Cu61   O73     1.973   .     S
Cu61   O69     1.957   .     S
Cu61   N67     2.016   .     S
Cu61   Cu62    2.683   .     S
Cu61   O76     1.975   .     S
Cu61   O72     1.958   .     S
Cu62   O74     1.973   .     S
Cu62   O70     1.957   .     S
Cu62   N68     2.016   .     S
Cu62   O75     1.975   .     S
Cu62   O71     1.958   .     S
O77    C93     1.388   .     S
O77    H122    0.991   .     S
H80    O123    0.991   .     S
O81    H82     0.989   .     S
O83    H84     0.989   .     S
O85    H86     0.992   .     S
O87    H88     0.992   .     S
C89    O113    1.289   .     A
C89    O115    1.292   .     A
C89    C100    1.445   .     S
C90    C99     1.445   .     S
C90    O116    1.292   .     A
C90    O114    1.289   .     A
C91    O119    1.294   .     A
C91    O117    1.285   .     A
C91    C93     1.449   .     S
C92    O120    1.294   .     A
C92    C94     1.449   .     S
C92    O118    1.285   .     A
C94    C5      1.356   1_655 S
C94    O35     1.388   1_655 S
C95    O125    1.381   .     S
C95    C100    1.413   .     A
C95    C361    1.386   1_545 S
C96    O127    1.381   .     S
C96    C99     1.413   .     A
C96    C230    1.386   .     S
C97    C99     1.399   .     A
C97    H107    1.085   .     S
C97    C227    1.386   .     S
C98    C100    1.399   .     A
C98    H108    1.085   .     S
C98    C360    1.386   1_545 S
C101   O129    1.377   .     S
C101   N112    1.371   .     A
C101   C895    1.426   1_554 S
C102   N111    1.371   .     A
C102   O131    1.377   .     S
C102   C500    1.426   .     S
C103   N111    1.364   .     A
C103   H109    1.082   .     S
C103   C497    1.426   .     S
C104   N112    1.364   .     A
C104   H110    1.082   .     S
C104   C894    1.426   1_554 S
Cu105  O117    1.973   .     S
Cu105  O113    1.957   .     S
Cu105  N111    2.016   .     S
Cu105  Cu106   2.683   .     S
Cu105  O120    1.975   .     S
Cu105  O116    1.958   .     S
Cu106  O118    1.973   .     S
Cu106  O114    1.957   .     S
Cu106  N112    2.016   .     S
Cu106  O119    1.975   .     S
Cu106  O115    1.958   .     S
O121   C5      1.388   1_655 S
O121   H34     0.991   1_655 S
H124   O35     0.991   1_655 S
O125   H126    0.989   .     S
O127   H128    0.989   .     S
O129   H130    0.992   .     S
O131   H132    0.992   .     S
C133   O157    1.289   .     A
C133   O159    1.292   .     A
C133   C144    1.445   .     S
C134   C143    1.445   .     S
C134   O160    1.292   .     A
C134   O158    1.289   .     A
C135   O163    1.294   .     A
C135   O161    1.285   .     A
C135   C137    1.449   .     S
C136   O164    1.294   .     A
C136   C138    1.449   .     S
C136   O162    1.285   .     A
C137   C226    1.356   1_455 S
C137   O253    1.388   1_455 S
C138   C181    1.356   .     S
C138   O211    1.388   .     S
C139   O169    1.381   .     S
C139   C144    1.413   .     A
C140   O171    1.381   .     S
C140   C143    1.413   .     A
C140   C274    1.386   .     S
C141   C143    1.399   .     A
C141   H151    1.085   .     S
C141   C271    1.386   .     S
C142   C144    1.399   .     A
C142   H152    1.085   .     S
C145   O173    1.377   .     S
C145   N156    1.371   .     A
C145   C939    1.426   1_554 S
C146   N155    1.371   .     A
C146   O175    1.377   .     S
C146   C544    1.426   .     S
C147   N155    1.364   .     A
C147   H153    1.082   .     S
C147   C541    1.426   .     S
C148   N156    1.364   .     A
C148   H154    1.082   .     S
C148   C938    1.426   1_554 S
Cu149  O161    1.973   .     S
Cu149  O157    1.957   .     S
Cu149  N155    2.016   .     S
Cu149  Cu150   2.683   .     S
Cu149  O164    1.975   .     S
Cu149  O160    1.958   .     S
Cu150  O162    1.973   .     S
Cu150  O158    1.957   .     S
Cu150  N156    2.016   .     S
Cu150  O163    1.975   .     S
Cu150  O159    1.958   .     S
O165   C181    1.388   .     S
O165   H210    0.991   .     S
H166   O253    0.991   1_455 S
O167   C226    1.388   1_455 S
O167   H256    0.991   1_455 S
H168   O211    0.991   .     S
O169   H170    0.989   .     S
O171   H172    0.989   .     S
O173   H174    0.992   .     S
O175   H176    0.992   .     S
C177   O201    1.289   .     A
C177   O203    1.292   .     A
C177   C188    1.445   .     S
C178   C187    1.445   .     S
C178   O204    1.292   .     A
C178   O202    1.289   .     A
C179   O207    1.294   .     A
C179   O205    1.285   .     A
C179   C181    1.449   .     S
C180   O208    1.294   .     A
C180   C182    1.449   .     S
C180   O206    1.285   .     A
C182   C225    1.356   .     S
C182   O255    1.388   .     S
C183   O213    1.381   .     S
C183   C188    1.413   .     A
C184   O215    1.381   .     S
C184   C187    1.413   .     A
C184   C318    1.386   .     S
C185   C187    1.399   .     A
C185   H195    1.085   .     S
C185   C315    1.386   .     S
C186   C188    1.399   .     A
C186   H196    1.085   .     S
C189   O217    1.377   .     S
C189   N200    1.371   .     A
C189   C983    1.426   1_554 S
C190   N199    1.371   .     A
C190   O219    1.377   .     S
C190   C588    1.426   .     S
C191   N199    1.364   .     A
C191   H197    1.082   .     S
C191   C585    1.426   .     S
C192   N200    1.364   .     A
C192   H198    1.082   .     S
C192   C982    1.426   1_554 S
Cu193  O205    1.973   .     S
Cu193  O201    1.957   .     S
Cu193  N199    2.016   .     S
Cu193  Cu194   2.683   .     S
Cu193  O208    1.975   .     S
Cu193  O204    1.958   .     S
Cu194  O206    1.973   .     S
Cu194  O202    1.957   .     S
Cu194  N200    2.016   .     S
Cu194  O207    1.975   .     S
Cu194  O203    1.958   .     S
O209   C225    1.388   .     S
O209   H254    0.991   .     S
H212   O255    0.991   .     S
O213   H214    0.989   .     S
O215   H216    0.989   .     S
O217   H218    0.992   .     S
O219   H220    0.992   .     S
C221   O245    1.289   .     A
C221   O247    1.292   .     A
C221   C232    1.445   .     S
C222   C231    1.445   .     S
C222   O248    1.292   .     A
C222   O246    1.289   .     A
C223   O251    1.294   .     A
C223   O249    1.285   .     A
C223   C225    1.449   .     S
C224   O252    1.294   .     A
C224   C226    1.449   .     S
C224   O250    1.285   .     A
C226   C137    1.356   1_655 S
C226   O167    1.388   1_655 S
C227   O257    1.381   .     S
C227   C232    1.413   .     A
C228   O259    1.381   .     S
C228   C231    1.413   .     A
C228   C362    1.386   .     S
C229   C231    1.399   .     A
C229   H239    1.085   .     S
C229   C359    1.386   .     S
C230   C232    1.399   .     A
C230   H240    1.085   .     S
C233   O261    1.377   .     S
C233   N244    1.371   .     A
C233   C1027   1.426   1_554 S
C234   N243    1.371   .     A
C234   O263    1.377   .     S
C234   C632    1.426   .     S
C235   N243    1.364   .     A
C235   H241    1.082   .     S
C235   C629    1.426   .     S
C236   N244    1.364   .     A
C236   H242    1.082   .     S
C236   C1026   1.426   1_554 S
Cu237  O249    1.973   .     S
Cu237  O245    1.957   .     S
Cu237  N243    2.016   .     S
Cu237  Cu238   2.683   .     S
Cu237  O252    1.975   .     S
Cu237  O248    1.958   .     S
Cu238  O250    1.973   .     S
Cu238  O246    1.957   .     S
Cu238  N244    2.016   .     S
Cu238  O251    1.975   .     S
Cu238  O247    1.958   .     S
O253   C137    1.388   1_655 S
O253   H166    0.991   1_655 S
H256   O167    0.991   1_655 S
O257   H258    0.989   .     S
O259   H260    0.989   .     S
O261   H262    0.992   .     S
O263   H264    0.992   .     S
C265   O289    1.289   .     A
C265   O291    1.292   .     A
C265   C276    1.445   .     S
C266   C275    1.445   .     S
C266   O292    1.292   .     A
C266   O290    1.289   .     A
C267   O295    1.294   .     A
C267   O293    1.285   .     A
C267   C269    1.449   .     S
C268   O296    1.294   .     A
C268   C270    1.449   .     S
C268   O294    1.285   .     A
C269   C358    1.356   1_455 S
C269   O385    1.388   1_455 S
C270   C313    1.356   .     S
C270   O343    1.388   .     S
C271   O301    1.381   .     S
C271   C276    1.413   .     A
C272   O303    1.381   .     S
C272   C275    1.413   .     A
C272   C10     1.386   1_565 S
C273   C275    1.399   .     A
C273   H283    1.085   .     S
C273   C7      1.386   1_565 S
C274   C276    1.399   .     A
C274   H284    1.085   .     S
C277   O305    1.377   .     S
C277   N288    1.371   .     A
C277   C1071   1.426   1_554 S
C278   N287    1.371   .     A
C278   O307    1.377   .     S
C278   C676    1.426   .     S
C279   N287    1.364   .     A
C279   H285    1.082   .     S
C279   C673    1.426   .     S
C280   N288    1.364   .     A
C280   H286    1.082   .     S
C280   C1070   1.426   1_554 S
Cu281  O293    1.973   .     S
Cu281  O289    1.957   .     S
Cu281  N287    2.016   .     S
Cu281  Cu282   2.683   .     S
Cu281  O296    1.975   .     S
Cu281  O292    1.958   .     S
Cu282  O294    1.973   .     S
Cu282  O290    1.957   .     S
Cu282  N288    2.016   .     S
Cu282  O295    1.975   .     S
Cu282  O291    1.958   .     S
O297   C313    1.388   .     S
O297   H342    0.991   .     S
H298   O385    0.991   1_455 S
O299   C358    1.388   1_455 S
O299   H388    0.991   1_455 S
H300   O343    0.991   .     S
O301   H302    0.989   .     S
O303   H304    0.989   .     S
O305   H306    0.992   .     S
O307   H308    0.992   .     S
C309   O333    1.289   .     A
C309   O335    1.292   .     A
C309   C320    1.445   .     S
C310   C319    1.445   .     S
C310   O336    1.292   .     A
C310   O334    1.289   .     A
C311   O339    1.294   .     A
C311   O337    1.285   .     A
C311   C313    1.449   .     S
C312   O340    1.294   .     A
C312   C314    1.449   .     S
C312   O338    1.285   .     A
C314   C357    1.356   .     S
C314   O387    1.388   .     S
C315   O345    1.381   .     S
C315   C320    1.413   .     A
C316   O347    1.381   .     S
C316   C319    1.413   .     A
C316   C54     1.386   1_565 S
C317   C319    1.399   .     A
C317   H327    1.085   .     S
C317   C51     1.386   1_565 S
C318   C320    1.399   .     A
C318   H328    1.085   .     S
C321   O349    1.377   .     S
C321   N332    1.371   .     A
C321   C1115   1.426   1_554 S
C322   N331    1.371   .     A
C322   O351    1.377   .     S
C322   C720    1.426   .     S
C323   N331    1.364   .     A
C323   H329    1.082   .     S
C323   C717    1.426   .     S
C324   N332    1.364   .     A
C324   H330    1.082   .     S
C324   C1114   1.426   1_554 S
Cu325  O337    1.973   .     S
Cu325  O333    1.957   .     S
Cu325  N331    2.016   .     S
Cu325  Cu326   2.683   .     S
Cu325  O340    1.975   .     S
Cu325  O336    1.958   .     S
Cu326  O338    1.973   .     S
Cu326  O334    1.957   .     S
Cu326  N332    2.016   .     S
Cu326  O339    1.975   .     S
Cu326  O335    1.958   .     S
O341   C357    1.388   .     S
O341   H386    0.991   .     S
H344   O387    0.991   .     S
O345   H346    0.989   .     S
O347   H348    0.989   .     S
O349   H350    0.992   .     S
O351   H352    0.992   .     S
C353   O377    1.289   .     A
C353   O379    1.292   .     A
C353   C364    1.445   .     S
C354   C363    1.445   .     S
C354   O380    1.292   .     A
C354   O378    1.289   .     A
C355   O383    1.294   .     A
C355   O381    1.285   .     A
C355   C357    1.449   .     S
C356   O384    1.294   .     A
C356   C358    1.449   .     S
C356   O382    1.285   .     A
C358   C269    1.356   1_655 S
C358   O299    1.388   1_655 S
C359   O389    1.381   .     S
C359   C364    1.413   .     A
C360   O391    1.381   .     S
C360   C363    1.413   .     A
C360   C98     1.386   1_565 S
C361   C363    1.399   .     A
C361   H371    1.085   .     S
C361   C95     1.386   1_565 S
C362   C364    1.399   .     A
C362   H372    1.085   .     S
C365   O393    1.377   .     S
C365   N376    1.371   .     A
C365   C1159   1.426   1_554 S
C366   N375    1.371   .     A
C366   O395    1.377   .     S
C366   C764    1.426   .     S
C367   N375    1.364   .     A
C367   H373    1.082   .     S
C367   C761    1.426   .     S
C368   N376    1.364   .     A
C368   H374    1.082   .     S
C368   C1158   1.426   1_554 S
Cu369  O381    1.973   .     S
Cu369  O377    1.957   .     S
Cu369  N375    2.016   .     S
Cu369  Cu370   2.683   .     S
Cu369  O384    1.975   .     S
Cu369  O380    1.958   .     S
Cu370  O382    1.973   .     S
Cu370  O378    1.957   .     S
Cu370  N376    2.016   .     S
Cu370  O383    1.975   .     S
Cu370  O379    1.958   .     S
O385   C269    1.388   1_655 S
O385   H298    0.991   1_655 S
H388   O299    0.991   1_655 S
O389   H390    0.989   .     S
O391   H392    0.989   .     S
O393   H394    0.992   .     S
O395   H396    0.992   .     S
C397   O421    1.289   .     A
C397   O423    1.292   .     A
C397   C408    1.445   .     S
C398   C407    1.445   .     S
C398   O424    1.292   .     A
C398   O422    1.289   .     A
C399   O427    1.294   .     A
C399   O425    1.285   .     A
C399   C401    1.449   .     S
C400   O428    1.294   .     A
C400   C402    1.449   .     S
C400   O426    1.285   .     A
C401   C490    1.356   1_455 S
C401   O517    1.388   1_455 S
C402   C445    1.356   .     S
C402   O475    1.388   .     S
C403   O433    1.381   .     S
C403   C408    1.413   .     A
C403   C669    1.386   1_545 S
C404   O435    1.381   .     S
C404   C407    1.413   .     A
C404   C538    1.386   .     S
C405   C407    1.399   .     A
C405   H415    1.085   .     S
C405   C535    1.386   .     S
C406   C408    1.399   .     A
C406   H416    1.085   .     S
C406   C668    1.386   1_545 S
C409   O437    1.377   .     S
C409   N420    1.371   .     A
C410   N419    1.371   .     A
C410   O439    1.377   .     S
C410   C808    1.426   .     S
C411   N419    1.364   .     A
C411   H417    1.082   .     S
C411   C805    1.426   .     S
C412   N420    1.364   .     A
C412   H418    1.082   .     S
Cu413  O425    1.973   .     S
Cu413  O421    1.957   .     S
Cu413  N419    2.016   .     S
Cu413  Cu414   2.683   .     S
Cu413  O428    1.975   .     S
Cu413  O424    1.958   .     S
Cu414  O426    1.973   .     S
Cu414  O422    1.957   .     S
Cu414  N420    2.016   .     S
Cu414  O427    1.975   .     S
Cu414  O423    1.958   .     S
O429   C445    1.388   .     S
O429   H474    0.991   .     S
H430   O517    0.991   1_455 S
O431   C490    1.388   1_455 S
O431   H520    0.991   1_455 S
H432   O475    0.991   .     S
O433   H434    0.989   .     S
O435   H436    0.989   .     S
O437   H438    0.992   .     S
O439   H440    0.992   .     S
C441   O465    1.289   .     A
C441   O467    1.292   .     A
C441   C452    1.445   .     S
C442   C451    1.445   .     S
C442   O468    1.292   .     A
C442   O466    1.289   .     A
C443   O471    1.294   .     A
C443   O469    1.285   .     A
C443   C445    1.449   .     S
C444   O472    1.294   .     A
C444   C446    1.449   .     S
C444   O470    1.285   .     A
C446   C489    1.356   .     S
C446   O519    1.388   .     S
C447   O477    1.381   .     S
C447   C452    1.413   .     A
C447   C713    1.386   1_545 S
C448   O479    1.381   .     S
C448   C451    1.413   .     A
C448   C582    1.386   .     S
C449   C451    1.399   .     A
C449   H459    1.085   .     S
C449   C579    1.386   .     S
C450   C452    1.399   .     A
C450   H460    1.085   .     S
C450   C712    1.386   1_545 S
C453   O481    1.377   .     S
C453   N464    1.371   .     A
C454   N463    1.371   .     A
C454   O483    1.377   .     S
C454   C852    1.426   .     S
C455   N463    1.364   .     A
C455   H461    1.082   .     S
C455   C849    1.426   .     S
C456   N464    1.364   .     A
C456   H462    1.082   .     S
Cu457  O469    1.973   .     S
Cu457  O465    1.957   .     S
Cu457  N463    2.016   .     S
Cu457  Cu458   2.683   .     S
Cu457  O472    1.975   .     S
Cu457  O468    1.958   .     S
Cu458  O470    1.973   .     S
Cu458  O466    1.957   .     S
Cu458  N464    2.016   .     S
Cu458  O471    1.975   .     S
Cu458  O467    1.958   .     S
O473   C489    1.388   .     S
O473   H518    0.991   .     S
H476   O519    0.991   .     S
O477   H478    0.989   .     S
O479   H480    0.989   .     S
O481   H482    0.992   .     S
O483   H484    0.992   .     S
C485   O509    1.289   .     A
C485   O511    1.292   .     A
C485   C496    1.445   .     S
C486   C495    1.445   .     S
C486   O512    1.292   .     A
C486   O510    1.289   .     A
C487   O515    1.294   .     A
C487   O513    1.285   .     A
C487   C489    1.449   .     S
C488   O516    1.294   .     A
C488   C490    1.449   .     S
C488   O514    1.285   .     A
C490   C401    1.356   1_655 S
C490   O431    1.388   1_655 S
C491   O521    1.381   .     S
C491   C496    1.413   .     A
C491   C757    1.386   1_545 S
C492   O523    1.381   .     S
C492   C495    1.413   .     A
C492   C626    1.386   .     S
C493   C495    1.399   .     A
C493   H503    1.085   .     S
C493   C623    1.386   .     S
C494   C496    1.399   .     A
C494   H504    1.085   .     S
C494   C756    1.386   1_545 S
C497   O525    1.377   .     S
C497   N508    1.371   .     A
C498   N507    1.371   .     A
C498   O527    1.377   .     S
C498   C896    1.426   .     S
C499   N507    1.364   .     A
C499   H505    1.082   .     S
C499   C893    1.426   .     S
C500   N508    1.364   .     A
C500   H506    1.082   .     S
Cu501  O513    1.973   .     S
Cu501  O509    1.957   .     S
Cu501  N507    2.016   .     S
Cu501  Cu502   2.683   .     S
Cu501  O516    1.975   .     S
Cu501  O512    1.958   .     S
Cu502  O514    1.973   .     S
Cu502  O510    1.957   .     S
Cu502  N508    2.016   .     S
Cu502  O515    1.975   .     S
Cu502  O511    1.958   .     S
O517   C401    1.388   1_655 S
O517   H430    0.991   1_655 S
H520   O431    0.991   1_655 S
O521   H522    0.989   .     S
O523   H524    0.989   .     S
O525   H526    0.992   .     S
O527   H528    0.992   .     S
C529   O553    1.289   .     A
C529   O555    1.292   .     A
C529   C540    1.445   .     S
C530   C539    1.445   .     S
C530   O556    1.292   .     A
C530   O554    1.289   .     A
C531   O559    1.294   .     A
C531   O557    1.285   .     A
C531   C533    1.449   .     S
C532   O560    1.294   .     A
C532   C534    1.449   .     S
C532   O558    1.285   .     A
C533   C622    1.356   1_455 S
C533   O649    1.388   1_455 S
C534   C577    1.356   .     S
C534   O607    1.388   .     S
C535   O565    1.381   .     S
C535   C540    1.413   .     A
C536   O567    1.381   .     S
C536   C539    1.413   .     A
C536   C670    1.386   .     S
C537   C539    1.399   .     A
C537   H547    1.085   .     S
C537   C667    1.386   .     S
C538   C540    1.399   .     A
C538   H548    1.085   .     S
C541   O569    1.377   .     S
C541   N552    1.371   .     A
C542   N551    1.371   .     A
C542   O571    1.377   .     S
C542   C940    1.426   .     S
C543   N551    1.364   .     A
C543   H549    1.082   .     S
C543   C937    1.426   .     S
C544   N552    1.364   .     A
C544   H550    1.082   .     S
Cu545  O557    1.973   .     S
Cu545  O553    1.957   .     S
Cu545  N551    2.016   .     S
Cu545  Cu546   2.683   .     S
Cu545  O560    1.975   .     S
Cu545  O556    1.958   .     S
Cu546  O558    1.973   .     S
Cu546  O554    1.957   .     S
Cu546  N552    2.016   .     S
Cu546  O559    1.975   .     S
Cu546  O555    1.958   .     S
O561   C577    1.388   .     S
O561   H606    0.991   .     S
H562   O649    0.991   1_455 S
O563   C622    1.388   1_455 S
O563   H652    0.991   1_455 S
H564   O607    0.991   .     S
O565   H566    0.989   .     S
O567   H568    0.989   .     S
O569   H570    0.992   .     S
O571   H572    0.992   .     S
C573   O597    1.289   .     A
C573   O599    1.292   .     A
C573   C584    1.445   .     S
C574   C583    1.445   .     S
C574   O600    1.292   .     A
C574   O598    1.289   .     A
C575   O603    1.294   .     A
C575   O601    1.285   .     A
C575   C577    1.449   .     S
C576   O604    1.294   .     A
C576   C578    1.449   .     S
C576   O602    1.285   .     A
C578   C621    1.356   .     S
C578   O651    1.388   .     S
C579   O609    1.381   .     S
C579   C584    1.413   .     A
C580   O611    1.381   .     S
C580   C583    1.413   .     A
C580   C714    1.386   .     S
C581   C583    1.399   .     A
C581   H591    1.085   .     S
C581   C711    1.386   .     S
C582   C584    1.399   .     A
C582   H592    1.085   .     S
C585   O613    1.377   .     S
C585   N596    1.371   .     A
C586   N595    1.371   .     A
C586   O615    1.377   .     S
C586   C984    1.426   .     S
C587   N595    1.364   .     A
C587   H593    1.082   .     S
C587   C981    1.426   .     S
C588   N596    1.364   .     A
C588   H594    1.082   .     S
Cu589  O601    1.973   .     S
Cu589  O597    1.957   .     S
Cu589  N595    2.016   .     S
Cu589  Cu590   2.683   .     S
Cu589  O604    1.975   .     S
Cu589  O600    1.958   .     S
Cu590  O602    1.973   .     S
Cu590  O598    1.957   .     S
Cu590  N596    2.016   .     S
Cu590  O603    1.975   .     S
Cu590  O599    1.958   .     S
O605   C621    1.388   .     S
O605   H650    0.991   .     S
H608   O651    0.991   .     S
O609   H610    0.989   .     S
O611   H612    0.989   .     S
O613   H614    0.992   .     S
O615   H616    0.992   .     S
C617   O641    1.289   .     A
C617   O643    1.292   .     A
C617   C628    1.445   .     S
C618   C627    1.445   .     S
C618   O644    1.292   .     A
C618   O642    1.289   .     A
C619   O647    1.294   .     A
C619   O645    1.285   .     A
C619   C621    1.449   .     S
C620   O648    1.294   .     A
C620   C622    1.449   .     S
C620   O646    1.285   .     A
C622   C533    1.356   1_655 S
C622   O563    1.388   1_655 S
C623   O653    1.381   .     S
C623   C628    1.413   .     A
C624   O655    1.381   .     S
C624   C627    1.413   .     A
C624   C758    1.386   .     S
C625   C627    1.399   .     A
C625   H635    1.085   .     S
C625   C755    1.386   .     S
C626   C628    1.399   .     A
C626   H636    1.085   .     S
C629   O657    1.377   .     S
C629   N640    1.371   .     A
C630   N639    1.371   .     A
C630   O659    1.377   .     S
C630   C1028   1.426   .     S
C631   N639    1.364   .     A
C631   H637    1.082   .     S
C631   C1025   1.426   .     S
C632   N640    1.364   .     A
C632   H638    1.082   .     S
Cu633  O645    1.973   .     S
Cu633  O641    1.957   .     S
Cu633  N639    2.016   .     S
Cu633  Cu634   2.683   .     S
Cu633  O648    1.975   .     S
Cu633  O644    1.958   .     S
Cu634  O646    1.973   .     S
Cu634  O642    1.957   .     S
Cu634  N640    2.016   .     S
Cu634  O647    1.975   .     S
Cu634  O643    1.958   .     S
O649   C533    1.388   1_655 S
O649   H562    0.991   1_655 S
H652   O563    0.991   1_655 S
O653   H654    0.989   .     S
O655   H656    0.989   .     S
O657   H658    0.992   .     S
O659   H660    0.992   .     S
C661   O685    1.289   .     A
C661   O687    1.292   .     A
C661   C672    1.445   .     S
C662   C671    1.445   .     S
C662   O688    1.292   .     A
C662   O686    1.289   .     A
C663   O691    1.294   .     A
C663   O689    1.285   .     A
C663   C665    1.449   .     S
C664   O692    1.294   .     A
C664   C666    1.449   .     S
C664   O690    1.285   .     A
C665   C754    1.356   1_455 S
C665   O781    1.388   1_455 S
C666   C709    1.356   .     S
C666   O739    1.388   .     S
C667   O697    1.381   .     S
C667   C672    1.413   .     A
C668   O699    1.381   .     S
C668   C671    1.413   .     A
C668   C406    1.386   1_565 S
C669   C671    1.399   .     A
C669   H679    1.085   .     S
C669   C403    1.386   1_565 S
C670   C672    1.399   .     A
C670   H680    1.085   .     S
C673   O701    1.377   .     S
C673   N684    1.371   .     A
C674   N683    1.371   .     A
C674   O703    1.377   .     S
C674   C1072   1.426   .     S
C675   N683    1.364   .     A
C675   H681    1.082   .     S
C675   C1069   1.426   .     S
C676   N684    1.364   .     A
C676   H682    1.082   .     S
Cu677  O689    1.973   .     S
Cu677  O685    1.957   .     S
Cu677  N683    2.016   .     S
Cu677  Cu678   2.683   .     S
Cu677  O692    1.975   .     S
Cu677  O688    1.958   .     S
Cu678  O690    1.973   .     S
Cu678  O686    1.957   .     S
Cu678  N684    2.016   .     S
Cu678  O691    1.975   .     S
Cu678  O687    1.958   .     S
O693   C709    1.388   .     S
O693   H738    0.991   .     S
H694   O781    0.991   1_455 S
O695   C754    1.388   1_455 S
O695   H784    0.991   1_455 S
H696   O739    0.991   .     S
O697   H698    0.989   .     S
O699   H700    0.989   .     S
O701   H702    0.992   .     S
O703   H704    0.992   .     S
C705   O729    1.289   .     A
C705   O731    1.292   .     A
C705   C716    1.445   .     S
C706   C715    1.445   .     S
C706   O732    1.292   .     A
C706   O730    1.289   .     A
C707   O735    1.294   .     A
C707   O733    1.285   .     A
C707   C709    1.449   .     S
C708   O736    1.294   .     A
C708   C710    1.449   .     S
C708   O734    1.285   .     A
C710   C753    1.356   .     S
C710   O783    1.388   .     S
C711   O741    1.381   .     S
C711   C716    1.413   .     A
C712   O743    1.381   .     S
C712   C715    1.413   .     A
C712   C450    1.386   1_565 S
C713   C715    1.399   .     A
C713   H723    1.085   .     S
C713   C447    1.386   1_565 S
C714   C716    1.399   .     A
C714   H724    1.085   .     S
C717   O745    1.377   .     S
C717   N728    1.371   .     A
C718   N727    1.371   .     A
C718   O747    1.377   .     S
C718   C1116   1.426   .     S
C719   N727    1.364   .     A
C719   H725    1.082   .     S
C719   C1113   1.426   .     S
C720   N728    1.364   .     A
C720   H726    1.082   .     S
Cu721  O733    1.973   .     S
Cu721  O729    1.957   .     S
Cu721  N727    2.016   .     S
Cu721  Cu722   2.683   .     S
Cu721  O736    1.975   .     S
Cu721  O732    1.958   .     S
Cu722  O734    1.973   .     S
Cu722  O730    1.957   .     S
Cu722  N728    2.016   .     S
Cu722  O735    1.975   .     S
Cu722  O731    1.958   .     S
O737   C753    1.388   .     S
O737   H782    0.991   .     S
H740   O783    0.991   .     S
O741   H742    0.989   .     S
O743   H744    0.989   .     S
O745   H746    0.992   .     S
O747   H748    0.992   .     S
C749   O773    1.289   .     A
C749   O775    1.292   .     A
C749   C760    1.445   .     S
C750   C759    1.445   .     S
C750   O776    1.292   .     A
C750   O774    1.289   .     A
C751   O779    1.294   .     A
C751   O777    1.285   .     A
C751   C753    1.449   .     S
C752   O780    1.294   .     A
C752   C754    1.449   .     S
C752   O778    1.285   .     A
C754   C665    1.356   1_655 S
C754   O695    1.388   1_655 S
C755   O785    1.381   .     S
C755   C760    1.413   .     A
C756   O787    1.381   .     S
C756   C759    1.413   .     A
C756   C494    1.386   1_565 S
C757   C759    1.399   .     A
C757   H767    1.085   .     S
C757   C491    1.386   1_565 S
C758   C760    1.399   .     A
C758   H768    1.085   .     S
C761   O789    1.377   .     S
C761   N772    1.371   .     A
C762   N771    1.371   .     A
C762   O791    1.377   .     S
C762   C1160   1.426   .     S
C763   N771    1.364   .     A
C763   H769    1.082   .     S
C763   C1157   1.426   .     S
C764   N772    1.364   .     A
C764   H770    1.082   .     S
Cu765  O777    1.973   .     S
Cu765  O773    1.957   .     S
Cu765  N771    2.016   .     S
Cu765  Cu766   2.683   .     S
Cu765  O780    1.975   .     S
Cu765  O776    1.958   .     S
Cu766  O778    1.973   .     S
Cu766  O774    1.957   .     S
Cu766  N772    2.016   .     S
Cu766  O779    1.975   .     S
Cu766  O775    1.958   .     S
O781   C665    1.388   1_655 S
O781   H694    0.991   1_655 S
H784   O695    0.991   1_655 S
O785   H786    0.989   .     S
O787   H788    0.989   .     S
O789   H790    0.992   .     S
O791   H792    0.992   .     S
C793   O817    1.289   .     A
C793   O819    1.292   .     A
C793   C804    1.445   .     S
C794   C803    1.445   .     S
C794   O820    1.292   .     A
C794   O818    1.289   .     A
C795   O823    1.294   .     A
C795   O821    1.285   .     A
C795   C797    1.449   .     S
C796   O824    1.294   .     A
C796   C798    1.449   .     S
C796   O822    1.285   .     A
C797   C886    1.356   1_455 S
C797   O913    1.388   1_455 S
C798   C841    1.356   .     S
C798   O871    1.388   .     S
C799   O829    1.381   .     S
C799   C804    1.413   .     A
C799   C1065   1.386   1_545 S
C800   O831    1.381   .     S
C800   C803    1.413   .     A
C800   C934    1.386   .     S
C801   C803    1.399   .     A
C801   H811    1.085   .     S
C801   C931    1.386   .     S
C802   C804    1.399   .     A
C802   H812    1.085   .     S
C802   C1064   1.386   1_545 S
C805   O833    1.377   .     S
C805   N816    1.371   .     A
C806   N815    1.371   .     A
C806   O835    1.377   .     S
C806   C16     1.426   1_556 S
C807   N815    1.364   .     A
C807   H813    1.082   .     S
C807   C13     1.426   1_556 S
C808   N816    1.364   .     A
C808   H814    1.082   .     S
Cu809  O821    1.973   .     S
Cu809  O817    1.957   .     S
Cu809  N815    2.016   .     S
Cu809  Cu810   2.683   .     S
Cu809  O824    1.975   .     S
Cu809  O820    1.958   .     S
Cu810  O822    1.973   .     S
Cu810  O818    1.957   .     S
Cu810  N816    2.016   .     S
Cu810  O823    1.975   .     S
Cu810  O819    1.958   .     S
O825   C841    1.388   .     S
O825   H870    0.991   .     S
H826   O913    0.991   1_455 S
O827   C886    1.388   1_455 S
O827   H916    0.991   1_455 S
H828   O871    0.991   .     S
O829   H830    0.989   .     S
O831   H832    0.989   .     S
O833   H834    0.992   .     S
O835   H836    0.992   .     S
C837   O861    1.289   .     A
C837   O863    1.292   .     A
C837   C848    1.445   .     S
C838   C847    1.445   .     S
C838   O864    1.292   .     A
C838   O862    1.289   .     A
C839   O867    1.294   .     A
C839   O865    1.285   .     A
C839   C841    1.449   .     S
C840   O868    1.294   .     A
C840   C842    1.449   .     S
C840   O866    1.285   .     A
C842   C885    1.356   .     S
C842   O915    1.388   .     S
C843   O873    1.381   .     S
C843   C848    1.413   .     A
C843   C1109   1.386   1_545 S
C844   O875    1.381   .     S
C844   C847    1.413   .     A
C844   C978    1.386   .     S
C845   C847    1.399   .     A
C845   H855    1.085   .     S
C845   C975    1.386   .     S
C846   C848    1.399   .     A
C846   H856    1.085   .     S
C846   C1108   1.386   1_545 S
C849   O877    1.377   .     S
C849   N860    1.371   .     A
C850   N859    1.371   .     A
C850   O879    1.377   .     S
C850   C60     1.426   1_556 S
C851   N859    1.364   .     A
C851   H857    1.082   .     S
C851   C57     1.426   1_556 S
C852   N860    1.364   .     A
C852   H858    1.082   .     S
Cu853  O865    1.973   .     S
Cu853  O861    1.957   .     S
Cu853  N859    2.016   .     S
Cu853  Cu854   2.683   .     S
Cu853  O868    1.975   .     S
Cu853  O864    1.958   .     S
Cu854  O866    1.973   .     S
Cu854  O862    1.957   .     S
Cu854  N860    2.016   .     S
Cu854  O867    1.975   .     S
Cu854  O863    1.958   .     S
O869   C885    1.388   .     S
O869   H914    0.991   .     S
H872   O915    0.991   .     S
O873   H874    0.989   .     S
O875   H876    0.989   .     S
O877   H878    0.992   .     S
O879   H880    0.992   .     S
C881   O905    1.289   .     A
C881   O907    1.292   .     A
C881   C892    1.445   .     S
C882   C891    1.445   .     S
C882   O908    1.292   .     A
C882   O906    1.289   .     A
C883   O911    1.294   .     A
C883   O909    1.285   .     A
C883   C885    1.449   .     S
C884   O912    1.294   .     A
C884   C886    1.449   .     S
C884   O910    1.285   .     A
C886   C797    1.356   1_655 S
C886   O827    1.388   1_655 S
C887   O917    1.381   .     S
C887   C892    1.413   .     A
C887   C1153   1.386   1_545 S
C888   O919    1.381   .     S
C888   C891    1.413   .     A
C888   C1022   1.386   .     S
C889   C891    1.399   .     A
C889   H899    1.085   .     S
C889   C1019   1.386   .     S
C890   C892    1.399   .     A
C890   H900    1.085   .     S
C890   C1152   1.386   1_545 S
C893   O921    1.377   .     S
C893   N904    1.371   .     A
C894   N903    1.371   .     A
C894   O923    1.377   .     S
C894   C104    1.426   1_556 S
C895   N903    1.364   .     A
C895   H901    1.082   .     S
C895   C101    1.426   1_556 S
C896   N904    1.364   .     A
C896   H902    1.082   .     S
Cu897  O909    1.973   .     S
Cu897  O905    1.957   .     S
Cu897  N903    2.016   .     S
Cu897  Cu898   2.683   .     S
Cu897  O912    1.975   .     S
Cu897  O908    1.958   .     S
Cu898  O910    1.973   .     S
Cu898  O906    1.957   .     S
Cu898  N904    2.016   .     S
Cu898  O911    1.975   .     S
Cu898  O907    1.958   .     S
O913   C797    1.388   1_655 S
O913   H826    0.991   1_655 S
H916   O827    0.991   1_655 S
O917   H918    0.989   .     S
O919   H920    0.989   .     S
O921   H922    0.992   .     S
O923   H924    0.992   .     S
C925   O949    1.289   .     A
C925   O951    1.292   .     A
C925   C936    1.445   .     S
C926   C935    1.445   .     S
C926   O952    1.292   .     A
C926   O950    1.289   .     A
C927   O955    1.294   .     A
C927   O953    1.285   .     A
C927   C929    1.449   .     S
C928   O956    1.294   .     A
C928   C930    1.449   .     S
C928   O954    1.285   .     A
C929   C1018   1.356   1_455 S
C929   O1045   1.388   1_455 S
C930   C973    1.356   .     S
C930   O1003   1.388   .     S
C931   O961    1.381   .     S
C931   C936    1.413   .     A
C932   O963    1.381   .     S
C932   C935    1.413   .     A
C932   C1066   1.386   .     S
C933   C935    1.399   .     A
C933   H943    1.085   .     S
C933   C1063   1.386   .     S
C934   C936    1.399   .     A
C934   H944    1.085   .     S
C937   O965    1.377   .     S
C937   N948    1.371   .     A
C938   N947    1.371   .     A
C938   O967    1.377   .     S
C938   C148    1.426   1_556 S
C939   N947    1.364   .     A
C939   H945    1.082   .     S
C939   C145    1.426   1_556 S
C940   N948    1.364   .     A
C940   H946    1.082   .     S
Cu941  O953    1.973   .     S
Cu941  O949    1.957   .     S
Cu941  N947    2.016   .     S
Cu941  Cu942   2.683   .     S
Cu941  O956    1.975   .     S
Cu941  O952    1.958   .     S
Cu942  O954    1.973   .     S
Cu942  O950    1.957   .     S
Cu942  N948    2.016   .     S
Cu942  O955    1.975   .     S
Cu942  O951    1.958   .     S
O957   C973    1.388   .     S
O957   H1002   0.991   .     S
H958   O1045   0.991   1_455 S
O959   C1018   1.388   1_455 S
O959   H1048   0.991   1_455 S
H960   O1003   0.991   .     S
O961   H962    0.989   .     S
O963   H964    0.989   .     S
O965   H966    0.992   .     S
O967   H968    0.992   .     S
C969   O993    1.289   .     A
C969   O995    1.292   .     A
C969   C980    1.445   .     S
C970   C979    1.445   .     S
C970   O996    1.292   .     A
C970   O994    1.289   .     A
C971   O999    1.294   .     A
C971   O997    1.285   .     A
C971   C973    1.449   .     S
C972   O1000   1.294   .     A
C972   C974    1.449   .     S
C972   O998    1.285   .     A
C974   C1017   1.356   .     S
C974   O1047   1.388   .     S
C975   O1005   1.381   .     S
C975   C980    1.413   .     A
C976   O1007   1.381   .     S
C976   C979    1.413   .     A
C976   C1110   1.386   .     S
C977   C979    1.399   .     A
C977   H987    1.085   .     S
C977   C1107   1.386   .     S
C978   C980    1.399   .     A
C978   H988    1.085   .     S
C981   O1009   1.377   .     S
C981   N992    1.371   .     A
C982   N991    1.371   .     A
C982   O1011   1.377   .     S
C982   C192    1.426   1_556 S
C983   N991    1.364   .     A
C983   H989    1.082   .     S
C983   C189    1.426   1_556 S
C984   N992    1.364   .     A
C984   H990    1.082   .     S
Cu985  O997    1.973   .     S
Cu985  O993    1.957   .     S
Cu985  N991    2.016   .     S
Cu985  Cu986   2.683   .     S
Cu985  O1000   1.975   .     S
Cu985  O996    1.958   .     S
Cu986  O998    1.973   .     S
Cu986  O994    1.957   .     S
Cu986  N992    2.016   .     S
Cu986  O999    1.975   .     S
Cu986  O995    1.958   .     S
O1001  C1017   1.388   .     S
O1001  H1046   0.991   .     S
H1004  O1047   0.991   .     S
O1005  H1006   0.989   .     S
O1007  H1008   0.989   .     S
O1009  H1010   0.992   .     S
O1011  H1012   0.992   .     S
C1013  O1037   1.289   .     A
C1013  O1039   1.292   .     A
C1013  C1024   1.445   .     S
C1014  C1023   1.445   .     S
C1014  O1040   1.292   .     A
C1014  O1038   1.289   .     A
C1015  O1043   1.294   .     A
C1015  O1041   1.285   .     A
C1015  C1017   1.449   .     S
C1016  O1044   1.294   .     A
C1016  C1018   1.449   .     S
C1016  O1042   1.285   .     A
C1018  C929    1.356   1_655 S
C1018  O959    1.388   1_655 S
C1019  O1049   1.381   .     S
C1019  C1024   1.413   .     A
C1020  O1051   1.381   .     S
C1020  C1023   1.413   .     A
C1020  C1154   1.386   .     S
C1021  C1023   1.399   .     A
C1021  H1031   1.085   .     S
C1021  C1151   1.386   .     S
C1022  C1024   1.399   .     A
C1022  H1032   1.085   .     S
C1025  O1053   1.377   .     S
C1025  N1036   1.371   .     A
C1026  N1035   1.371   .     A
C1026  O1055   1.377   .     S
C1026  C236    1.426   1_556 S
C1027  N1035   1.364   .     A
C1027  H1033   1.082   .     S
C1027  C233    1.426   1_556 S
C1028  N1036   1.364   .     A
C1028  H1034   1.082   .     S
Cu1029 O1041   1.973   .     S
Cu1029 O1037   1.957   .     S
Cu1029 N1035   2.016   .     S
Cu1029 Cu1030  2.683   .     S
Cu1029 O1044   1.975   .     S
Cu1029 O1040   1.958   .     S
Cu1030 O1042   1.973   .     S
Cu1030 O1038   1.957   .     S
Cu1030 N1036   2.016   .     S
Cu1030 O1043   1.975   .     S
Cu1030 O1039   1.958   .     S
O1045  C929    1.388   1_655 S
O1045  H958    0.991   1_655 S
H1048  O959    0.991   1_655 S
O1049  H1050   0.989   .     S
O1051  H1052   0.989   .     S
O1053  H1054   0.992   .     S
O1055  H1056   0.992   .     S
C1057  O1081   1.289   .     A
C1057  O1083   1.292   .     A
C1057  C1068   1.445   .     S
C1058  C1067   1.445   .     S
C1058  O1084   1.292   .     A
C1058  O1082   1.289   .     A
C1059  O1087   1.294   .     A
C1059  O1085   1.285   .     A
C1059  C1061   1.449   .     S
C1060  O1088   1.294   .     A
C1060  C1062   1.449   .     S
C1060  O1086   1.285   .     A
C1061  C1150   1.356   1_455 S
C1061  O1177   1.388   1_455 S
C1062  C1105   1.356   .     S
C1062  O1135   1.388   .     S
C1063  O1093   1.381   .     S
C1063  C1068   1.413   .     A
C1064  O1095   1.381   .     S
C1064  C1067   1.413   .     A
C1064  C802    1.386   1_565 S
C1065  C1067   1.399   .     A
C1065  H1075   1.085   .     S
C1065  C799    1.386   1_565 S
C1066  C1068   1.399   .     A
C1066  H1076   1.085   .     S
C1069  O1097   1.377   .     S
C1069  N1080   1.371   .     A
C1070  N1079   1.371   .     A
C1070  O1099   1.377   .     S
C1070  C280    1.426   1_556 S
C1071  N1079   1.364   .     A
C1071  H1077   1.082   .     S
C1071  C277    1.426   1_556 S
C1072  N1080   1.364   .     A
C1072  H1078   1.082   .     S
Cu1073 O1085   1.973   .     S
Cu1073 O1081   1.957   .     S
Cu1073 N1079   2.016   .     S
Cu1073 Cu1074  2.683   .     S
Cu1073 O1088   1.975   .     S
Cu1073 O1084   1.958   .     S
Cu1074 O1086   1.973   .     S
Cu1074 O1082   1.957   .     S
Cu1074 N1080   2.016   .     S
Cu1074 O1087   1.975   .     S
Cu1074 O1083   1.958   .     S
O1089  C1105   1.388   .     S
O1089  H1134   0.991   .     S
H1090  O1177   0.991   1_455 S
O1091  C1150   1.388   1_455 S
O1091  H1180   0.991   1_455 S
H1092  O1135   0.991   .     S
O1093  H1094   0.989   .     S
O1095  H1096   0.989   .     S
O1097  H1098   0.992   .     S
O1099  H1100   0.992   .     S
C1101  O1125   1.289   .     A
C1101  O1127   1.292   .     A
C1101  C1112   1.445   .     S
C1102  C1111   1.445   .     S
C1102  O1128   1.292   .     A
C1102  O1126   1.289   .     A
C1103  O1131   1.294   .     A
C1103  O1129   1.285   .     A
C1103  C1105   1.449   .     S
C1104  O1132   1.294   .     A
C1104  C1106   1.449   .     S
C1104  O1130   1.285   .     A
C1106  C1149   1.356   .     S
C1106  O1179   1.388   .     S
C1107  O1137   1.381   .     S
C1107  C1112   1.413   .     A
C1108  O1139   1.381   .     S
C1108  C1111   1.413   .     A
C1108  C846    1.386   1_565 S
C1109  C1111   1.399   .     A
C1109  H1119   1.085   .     S
C1109  C843    1.386   1_565 S
C1110  C1112   1.399   .     A
C1110  H1120   1.085   .     S
C1113  O1141   1.377   .     S
C1113  N1124   1.371   .     A
C1114  N1123   1.371   .     A
C1114  O1143   1.377   .     S
C1114  C324    1.426   1_556 S
C1115  N1123   1.364   .     A
C1115  H1121   1.082   .     S
C1115  C321    1.426   1_556 S
C1116  N1124   1.364   .     A
C1116  H1122   1.082   .     S
Cu1117 O1129   1.973   .     S
Cu1117 O1125   1.957   .     S
Cu1117 N1123   2.016   .     S
Cu1117 Cu1118  2.683   .     S
Cu1117 O1132   1.975   .     S
Cu1117 O1128   1.958   .     S
Cu1118 O1130   1.973   .     S
Cu1118 O1126   1.957   .     S
Cu1118 N1124   2.016   .     S
Cu1118 O1131   1.975   .     S
Cu1118 O1127   1.958   .     S
O1133  C1149   1.388   .     S
O1133  H1178   0.991   .     S
H1136  O1179   0.991   .     S
O1137  H1138   0.989   .     S
O1139  H1140   0.989   .     S
O1141  H1142   0.992   .     S
O1143  H1144   0.992   .     S
C1145  O1169   1.289   .     A
C1145  O1171   1.292   .     A
C1145  C1156   1.445   .     S
C1146  C1155   1.445   .     S
C1146  O1172   1.292   .     A
C1146  O1170   1.289   .     A
C1147  O1175   1.294   .     A
C1147  O1173   1.285   .     A
C1147  C1149   1.449   .     S
C1148  O1176   1.294   .     A
C1148  C1150   1.449   .     S
C1148  O1174   1.285   .     A
C1150  C1061   1.356   1_655 S
C1150  O1091   1.388   1_655 S
C1151  O1181   1.381   .     S
C1151  C1156   1.413   .     A
C1152  O1183   1.381   .     S
C1152  C1155   1.413   .     A
C1152  C890    1.386   1_565 S
C1153  C1155   1.399   .     A
C1153  H1163   1.085   .     S
C1153  C887    1.386   1_565 S
C1154  C1156   1.399   .     A
C1154  H1164   1.085   .     S
C1157  O1185   1.377   .     S
C1157  N1168   1.371   .     A
C1158  N1167   1.371   .     A
C1158  O1187   1.377   .     S
C1158  C368    1.426   1_556 S
C1159  N1167   1.364   .     A
C1159  H1165   1.082   .     S
C1159  C365    1.426   1_556 S
C1160  N1168   1.364   .     A
C1160  H1166   1.082   .     S
Cu1161 O1173   1.973   .     S
Cu1161 O1169   1.957   .     S
Cu1161 N1167   2.016   .     S
Cu1161 Cu1162  2.683   .     S
Cu1161 O1176   1.975   .     S
Cu1161 O1172   1.958   .     S
Cu1162 O1174   1.973   .     S
Cu1162 O1170   1.957   .     S
Cu1162 N1168   2.016   .     S
Cu1162 O1175   1.975   .     S
Cu1162 O1171   1.958   .     S
O1177  C1061   1.388   1_655 S
O1177  H1090   0.991   1_655 S
H1180  O1091   0.991   1_655 S
O1181  H1182   0.989   .     S
O1183  H1184   0.989   .     S
O1185  H1186   0.992   .     S
O1187  H1188   0.992   .     S
