data_str_m3_o1_o17_pcu_sym.122
_audit_creation_date              2020-01-03
_audit_creation_method            'Materials Studio'
_symmetry_space_group_name_H-M    'P1'
_symmetry_Int_Tables_number       1
_symmetry_cell_setting            triclinic
loop_
_symmetry_equiv_pos_as_xyz
  x,y,z
_cell_length_a                    32.1624
_cell_length_b                    29.4944
_cell_length_c                    30.0334
_cell_angle_alpha                 90.0258
_cell_angle_beta                  90.2162
_cell_angle_gamma                 90.0062
loop_
_atom_site_label
_atom_site_type_symbol
_atom_site_fract_x
_atom_site_fract_y
_atom_site_fract_z
_atom_site_U_iso_or_equiv
_atom_site_adp_type
_atom_site_occupancy
C1     C     0.08661   0.16666   0.24996   0.00000  Uiso   1.00
C2     C     0.24672   0.16667   0.25004   0.00000  Uiso   1.00
C3     C     0.16809   0.24937   0.02335   0.00000  Uiso   1.00
C4     C     0.16524   0.08396   0.47665   0.00000  Uiso   1.00
C5     C     0.02132   0.12594   0.25708   0.00000  Uiso   1.00
C6     C     0.31202   0.20739   0.24292   0.00000  Uiso   1.00
C7     C     0.31206   0.12595   0.25715   0.00000  Uiso   1.00
C8     C     0.02127   0.20738   0.24285   0.00000  Uiso   1.00
C9     C     0.29086   0.16667   0.25005   0.00000  Uiso   1.00
C10    C     0.04247   0.16666   0.24995   0.00000  Uiso   1.00
C11    C     0.19232   0.02401   0.27799   0.00000  Uiso   1.00
C12    C     0.14101   0.30932   0.22201   0.00000  Uiso   1.00
C13    C     0.14101   0.02398   0.22201   0.00000  Uiso   1.00
C14    C     0.19232   0.30935   0.27799   0.00000  Uiso   1.00
C15    C     0.16660   0.16666   0.16326   0.00000  Uiso   1.00
C16    C     0.16674   0.16668   0.33674   0.00000  Uiso   1.00
C17    C     0.16611   0.12545   0.40756   0.00000  Uiso   1.00
C18    C     0.16722   0.20788   0.09244   0.00000  Uiso   1.00
C19    C     0.16682   0.16671   0.38469   0.00000  Uiso   1.00
C20    C     0.16651   0.16662   0.11531   0.00000  Uiso   1.00
C21    C     0.16757   0.20800   0.40758   0.00000  Uiso   1.00
C22    C     0.16576   0.12533   0.09242   0.00000  Uiso   1.00
C23    C     0.16752   0.20842   0.45371   0.00000  Uiso   1.00
C24    C     0.16582   0.12492   0.04629   0.00000  Uiso   1.00
C25    C     0.16672   0.16673   0.47683   0.00000  Uiso   1.00
C26    C     0.16661   0.16660   0.02317   0.00000  Uiso   1.00
C27    C     0.16604   0.12515   0.45359   0.00000  Uiso   1.00
C28    C     0.16729   0.20818   0.04640   0.00000  Uiso   1.00
C29    C     0.16821   0.24960   0.47710   0.00000  Uiso   1.00
C30    C     0.16512   0.08373   0.02290   0.00000  Uiso   1.00
N31    N     0.16667   0.28573   0.25000   0.00000  Uiso   1.00
N32    N     0.16667   0.04760   0.25000   0.00000  Uiso   1.00
O33    O     0.10559   0.20487   0.24999   0.00000  Uiso   1.00
O34    O     0.22774   0.12846   0.25000   0.00000  Uiso   1.00
O35    O     0.22774   0.20487   0.25000   0.00000  Uiso   1.00
O36    O     0.10559   0.12846   0.24999   0.00000  Uiso   1.00
O37    O     0.16666   0.20489   0.18392   0.00000  Uiso   1.00
O38    O     0.16667   0.12844   0.31607   0.00000  Uiso   1.00
O39    O     0.16667   0.20489   0.31607   0.00000  Uiso   1.00
O40    O     0.16666   0.12844   0.18392   0.00000  Uiso   1.00
Zn41   Zn    0.16667   0.21771   0.25000   0.00000  Uiso   1.00
Zn42   Zn    0.16667   0.11563   0.25000   0.00000  Uiso   1.00
H43    H     0.16556   0.09353   0.38962   0.00000  Uiso   1.00
H44    H     0.16777   0.23981   0.11038   0.00000  Uiso   1.00
H45    H     0.16818   0.23979   0.38949   0.00000  Uiso   1.00
H46    H     0.16515   0.09354   0.11051   0.00000  Uiso   1.00
F47    F     0.16899   0.28994   0.45533   0.00000  Uiso   1.00
F48    F     0.16434   0.04339   0.04467   0.00000  Uiso   1.00
H49    H     0.16863   0.28135   0.04113   0.00000  Uiso   1.00
H50    H     0.16470   0.05198   0.45887   0.00000  Uiso   1.00
H51    H     0.03753   0.09427   0.26284   0.00000  Uiso   1.00
H52    H     0.29580   0.23907   0.23716   0.00000  Uiso   1.00
H53    H     0.29588   0.09428   0.26295   0.00000  Uiso   1.00
H54    H     0.03745   0.23905   0.23705   0.00000  Uiso   1.00
F55    F     0.21802   0.04678   0.30603   0.00000  Uiso   1.00
F56    F     0.11531   0.28655   0.19397   0.00000  Uiso   1.00
F57    F     0.11531   0.04672   0.19398   0.00000  Uiso   1.00
F58    F     0.21803   0.28662   0.30601   0.00000  Uiso   1.00
C59    C     0.41995   0.16666   0.24996   0.00000  Uiso   1.00
C60    C     0.58005   0.16667   0.25004   0.00000  Uiso   1.00
C61    C     0.50142   0.24937   0.02335   0.00000  Uiso   1.00
C62    C     0.49858   0.08396   0.47665   0.00000  Uiso   1.00
C63    C     0.35465   0.12594   0.25708   0.00000  Uiso   1.00
C64    C     0.64535   0.20739   0.24292   0.00000  Uiso   1.00
C65    C     0.64539   0.12595   0.25715   0.00000  Uiso   1.00
C66    C     0.35461   0.20738   0.24285   0.00000  Uiso   1.00
C67    C     0.62420   0.16667   0.25005   0.00000  Uiso   1.00
C68    C     0.37580   0.16666   0.24995   0.00000  Uiso   1.00
C69    C     0.52566   0.02401   0.27799   0.00000  Uiso   1.00
C70    C     0.47434   0.30932   0.22201   0.00000  Uiso   1.00
C71    C     0.47434   0.02398   0.22201   0.00000  Uiso   1.00
C72    C     0.52566   0.30935   0.27799   0.00000  Uiso   1.00
C73    C     0.49993   0.16666   0.16326   0.00000  Uiso   1.00
C74    C     0.50007   0.16668   0.33674   0.00000  Uiso   1.00
C75    C     0.49945   0.12545   0.40756   0.00000  Uiso   1.00
C76    C     0.50055   0.20788   0.09244   0.00000  Uiso   1.00
C77    C     0.50016   0.16671   0.38469   0.00000  Uiso   1.00
C78    C     0.49984   0.16662   0.11531   0.00000  Uiso   1.00
C79    C     0.50090   0.20800   0.40758   0.00000  Uiso   1.00
C80    C     0.49909   0.12533   0.09242   0.00000  Uiso   1.00
C81    C     0.50085   0.20842   0.45371   0.00000  Uiso   1.00
C82    C     0.49915   0.12492   0.04629   0.00000  Uiso   1.00
C83    C     0.50006   0.16673   0.47683   0.00000  Uiso   1.00
C84    C     0.49994   0.16660   0.02317   0.00000  Uiso   1.00
C85    C     0.49937   0.12515   0.45359   0.00000  Uiso   1.00
C86    C     0.50063   0.20818   0.04640   0.00000  Uiso   1.00
C87    C     0.50154   0.24960   0.47710   0.00000  Uiso   1.00
C88    C     0.49846   0.08373   0.02290   0.00000  Uiso   1.00
N89    N     0.50000   0.28573   0.25000   0.00000  Uiso   1.00
N90    N     0.50000   0.04760   0.25000   0.00000  Uiso   1.00
O91    O     0.43892   0.20487   0.24999   0.00000  Uiso   1.00
O92    O     0.56108   0.12846   0.25000   0.00000  Uiso   1.00
O93    O     0.56108   0.20487   0.25000   0.00000  Uiso   1.00
O94    O     0.43892   0.12846   0.24999   0.00000  Uiso   1.00
O95    O     0.49999   0.20489   0.18392   0.00000  Uiso   1.00
O96    O     0.50001   0.12844   0.31607   0.00000  Uiso   1.00
O97    O     0.50001   0.20489   0.31607   0.00000  Uiso   1.00
O98    O     0.49999   0.12844   0.18392   0.00000  Uiso   1.00
Zn99   Zn    0.50000   0.21771   0.25000   0.00000  Uiso   1.00
Zn100  Zn    0.50000   0.11563   0.25000   0.00000  Uiso   1.00
H101   H     0.49889   0.09353   0.38962   0.00000  Uiso   1.00
H102   H     0.50111   0.23981   0.11038   0.00000  Uiso   1.00
H103   H     0.50152   0.23979   0.38949   0.00000  Uiso   1.00
H104   H     0.49848   0.09354   0.11051   0.00000  Uiso   1.00
F105   F     0.50233   0.28994   0.45533   0.00000  Uiso   1.00
F106   F     0.49767   0.04339   0.04467   0.00000  Uiso   1.00
H107   H     0.50197   0.28135   0.04113   0.00000  Uiso   1.00
H108   H     0.49803   0.05198   0.45887   0.00000  Uiso   1.00
H109   H     0.37087   0.09427   0.26284   0.00000  Uiso   1.00
H110   H     0.62913   0.23907   0.23716   0.00000  Uiso   1.00
H111   H     0.62922   0.09428   0.26295   0.00000  Uiso   1.00
H112   H     0.37078   0.23905   0.23705   0.00000  Uiso   1.00
F113   F     0.55135   0.04678   0.30603   0.00000  Uiso   1.00
F114   F     0.44865   0.28655   0.19397   0.00000  Uiso   1.00
F115   F     0.44864   0.04672   0.19398   0.00000  Uiso   1.00
F116   F     0.55136   0.28662   0.30601   0.00000  Uiso   1.00
C117   C     0.75328   0.16666   0.24996   0.00000  Uiso   1.00
C118   C     0.91339   0.16667   0.25004   0.00000  Uiso   1.00
C119   C     0.83476   0.24937   0.02335   0.00000  Uiso   1.00
C120   C     0.83191   0.08396   0.47665   0.00000  Uiso   1.00
C121   C     0.68798   0.12594   0.25708   0.00000  Uiso   1.00
C122   C     0.97868   0.20739   0.24292   0.00000  Uiso   1.00
C123   C     0.97873   0.12595   0.25715   0.00000  Uiso   1.00
C124   C     0.68794   0.20738   0.24285   0.00000  Uiso   1.00
C125   C     0.95753   0.16667   0.25005   0.00000  Uiso   1.00
C126   C     0.70914   0.16666   0.24995   0.00000  Uiso   1.00
C127   C     0.85899   0.02401   0.27799   0.00000  Uiso   1.00
C128   C     0.80768   0.30932   0.22201   0.00000  Uiso   1.00
C129   C     0.80768   0.02398   0.22201   0.00000  Uiso   1.00
C130   C     0.85899   0.30935   0.27799   0.00000  Uiso   1.00
C131   C     0.83326   0.16666   0.16326   0.00000  Uiso   1.00
C132   C     0.83340   0.16668   0.33674   0.00000  Uiso   1.00
C133   C     0.83278   0.12545   0.40756   0.00000  Uiso   1.00
C134   C     0.83388   0.20788   0.09244   0.00000  Uiso   1.00
C135   C     0.83349   0.16671   0.38469   0.00000  Uiso   1.00
C136   C     0.83317   0.16662   0.11531   0.00000  Uiso   1.00
C137   C     0.83424   0.20800   0.40758   0.00000  Uiso   1.00
C138   C     0.83243   0.12533   0.09242   0.00000  Uiso   1.00
C139   C     0.83418   0.20842   0.45371   0.00000  Uiso   1.00
C140   C     0.83248   0.12492   0.04629   0.00000  Uiso   1.00
C141   C     0.83339   0.16673   0.47683   0.00000  Uiso   1.00
C142   C     0.83328   0.16660   0.02317   0.00000  Uiso   1.00
C143   C     0.83270   0.12515   0.45359   0.00000  Uiso   1.00
C144   C     0.83396   0.20818   0.04640   0.00000  Uiso   1.00
C145   C     0.83487   0.24960   0.47710   0.00000  Uiso   1.00
C146   C     0.83179   0.08373   0.02290   0.00000  Uiso   1.00
N147   N     0.83333   0.28573   0.25000   0.00000  Uiso   1.00
N148   N     0.83333   0.04760   0.25000   0.00000  Uiso   1.00
O149   O     0.77226   0.20487   0.24999   0.00000  Uiso   1.00
O150   O     0.89441   0.12846   0.25000   0.00000  Uiso   1.00
O151   O     0.89441   0.20487   0.25000   0.00000  Uiso   1.00
O152   O     0.77226   0.12846   0.24999   0.00000  Uiso   1.00
O153   O     0.83333   0.20489   0.18392   0.00000  Uiso   1.00
O154   O     0.83334   0.12844   0.31607   0.00000  Uiso   1.00
O155   O     0.83334   0.20489   0.31607   0.00000  Uiso   1.00
O156   O     0.83333   0.12844   0.18392   0.00000  Uiso   1.00
Zn157  Zn    0.83333   0.21771   0.25000   0.00000  Uiso   1.00
Zn158  Zn    0.83333   0.11563   0.25000   0.00000  Uiso   1.00
H159   H     0.83223   0.09353   0.38962   0.00000  Uiso   1.00
H160   H     0.83444   0.23981   0.11038   0.00000  Uiso   1.00
H161   H     0.83485   0.23979   0.38949   0.00000  Uiso   1.00
H162   H     0.83182   0.09354   0.11051   0.00000  Uiso   1.00
F163   F     0.83566   0.28994   0.45533   0.00000  Uiso   1.00
F164   F     0.83100   0.04339   0.04467   0.00000  Uiso   1.00
H165   H     0.83530   0.28135   0.04113   0.00000  Uiso   1.00
H166   H     0.83136   0.05198   0.45887   0.00000  Uiso   1.00
H167   H     0.70420   0.09427   0.26284   0.00000  Uiso   1.00
H168   H     0.96247   0.23907   0.23716   0.00000  Uiso   1.00
H169   H     0.96255   0.09428   0.26295   0.00000  Uiso   1.00
H170   H     0.70412   0.23905   0.23705   0.00000  Uiso   1.00
F171   F     0.88469   0.04678   0.30603   0.00000  Uiso   1.00
F172   F     0.78198   0.28655   0.19397   0.00000  Uiso   1.00
F173   F     0.78197   0.04672   0.19398   0.00000  Uiso   1.00
F174   F     0.88470   0.28662   0.30601   0.00000  Uiso   1.00
C175   C     0.08661   0.50000   0.24996   0.00000  Uiso   1.00
C176   C     0.24672   0.50000   0.25004   0.00000  Uiso   1.00
C177   C     0.16809   0.58271   0.02335   0.00000  Uiso   1.00
C178   C     0.16524   0.41729   0.47665   0.00000  Uiso   1.00
C179   C     0.02132   0.45928   0.25708   0.00000  Uiso   1.00
C180   C     0.31202   0.54072   0.24292   0.00000  Uiso   1.00
C181   C     0.31206   0.45929   0.25715   0.00000  Uiso   1.00
C182   C     0.02127   0.54071   0.24285   0.00000  Uiso   1.00
C183   C     0.29086   0.50001   0.25005   0.00000  Uiso   1.00
C184   C     0.04247   0.49999   0.24995   0.00000  Uiso   1.00
C185   C     0.19232   0.35735   0.27799   0.00000  Uiso   1.00
C186   C     0.14101   0.64265   0.22201   0.00000  Uiso   1.00
C187   C     0.14101   0.35732   0.22201   0.00000  Uiso   1.00
C188   C     0.19232   0.64269   0.27799   0.00000  Uiso   1.00
C189   C     0.16660   0.49999   0.16326   0.00000  Uiso   1.00
C190   C     0.16674   0.50001   0.33674   0.00000  Uiso   1.00
C191   C     0.16611   0.45879   0.40756   0.00000  Uiso   1.00
C192   C     0.16722   0.54121   0.09244   0.00000  Uiso   1.00
C193   C     0.16682   0.50004   0.38469   0.00000  Uiso   1.00
C194   C     0.16651   0.49996   0.11531   0.00000  Uiso   1.00
C195   C     0.16757   0.54134   0.40758   0.00000  Uiso   1.00
C196   C     0.16576   0.45866   0.09242   0.00000  Uiso   1.00
C197   C     0.16752   0.54175   0.45371   0.00000  Uiso   1.00
C198   C     0.16582   0.45825   0.04629   0.00000  Uiso   1.00
C199   C     0.16672   0.50007   0.47683   0.00000  Uiso   1.00
C200   C     0.16661   0.49993   0.02317   0.00000  Uiso   1.00
C201   C     0.16604   0.45849   0.45359   0.00000  Uiso   1.00
C202   C     0.16729   0.54151   0.04640   0.00000  Uiso   1.00
C203   C     0.16821   0.58293   0.47710   0.00000  Uiso   1.00
C204   C     0.16512   0.41707   0.02290   0.00000  Uiso   1.00
N205   N     0.16667   0.61907   0.25000   0.00000  Uiso   1.00
N206   N     0.16667   0.38093   0.25000   0.00000  Uiso   1.00
O207   O     0.10559   0.53821   0.24999   0.00000  Uiso   1.00
O208   O     0.22774   0.46179   0.25000   0.00000  Uiso   1.00
O209   O     0.22774   0.53821   0.25000   0.00000  Uiso   1.00
O210   O     0.10559   0.46179   0.24999   0.00000  Uiso   1.00
O211   O     0.16666   0.53823   0.18392   0.00000  Uiso   1.00
O212   O     0.16667   0.46177   0.31607   0.00000  Uiso   1.00
O213   O     0.16667   0.53823   0.31607   0.00000  Uiso   1.00
O214   O     0.16666   0.46177   0.18392   0.00000  Uiso   1.00
Zn215  Zn    0.16667   0.55104   0.25000   0.00000  Uiso   1.00
Zn216  Zn    0.16667   0.44896   0.25000   0.00000  Uiso   1.00
H217   H     0.16556   0.42686   0.38962   0.00000  Uiso   1.00
H218   H     0.16777   0.57314   0.11038   0.00000  Uiso   1.00
H219   H     0.16818   0.57313   0.38949   0.00000  Uiso   1.00
H220   H     0.16515   0.42687   0.11051   0.00000  Uiso   1.00
F221   F     0.16899   0.62327   0.45533   0.00000  Uiso   1.00
F222   F     0.16434   0.37673   0.04467   0.00000  Uiso   1.00
H223   H     0.16863   0.61468   0.04113   0.00000  Uiso   1.00
H224   H     0.16470   0.38532   0.45887   0.00000  Uiso   1.00
H225   H     0.03753   0.42760   0.26284   0.00000  Uiso   1.00
H226   H     0.29580   0.57240   0.23716   0.00000  Uiso   1.00
H227   H     0.29588   0.42762   0.26295   0.00000  Uiso   1.00
H228   H     0.03745   0.57238   0.23705   0.00000  Uiso   1.00
F229   F     0.21802   0.38011   0.30603   0.00000  Uiso   1.00
F230   F     0.11531   0.61989   0.19397   0.00000  Uiso   1.00
F231   F     0.11531   0.38005   0.19398   0.00000  Uiso   1.00
F232   F     0.21803   0.61995   0.30601   0.00000  Uiso   1.00
C233   C     0.41995   0.50000   0.24996   0.00000  Uiso   1.00
C234   C     0.58005   0.50000   0.25004   0.00000  Uiso   1.00
C235   C     0.50142   0.58271   0.02335   0.00000  Uiso   1.00
C236   C     0.49858   0.41729   0.47665   0.00000  Uiso   1.00
C237   C     0.35465   0.45928   0.25708   0.00000  Uiso   1.00
C238   C     0.64535   0.54072   0.24292   0.00000  Uiso   1.00
C239   C     0.64539   0.45929   0.25715   0.00000  Uiso   1.00
C240   C     0.35461   0.54071   0.24285   0.00000  Uiso   1.00
C241   C     0.62420   0.50001   0.25005   0.00000  Uiso   1.00
C242   C     0.37580   0.49999   0.24995   0.00000  Uiso   1.00
C243   C     0.52566   0.35735   0.27799   0.00000  Uiso   1.00
C244   C     0.47434   0.64265   0.22201   0.00000  Uiso   1.00
C245   C     0.47434   0.35732   0.22201   0.00000  Uiso   1.00
C246   C     0.52566   0.64269   0.27799   0.00000  Uiso   1.00
C247   C     0.49993   0.49999   0.16326   0.00000  Uiso   1.00
C248   C     0.50007   0.50001   0.33674   0.00000  Uiso   1.00
C249   C     0.49945   0.45879   0.40756   0.00000  Uiso   1.00
C250   C     0.50055   0.54121   0.09244   0.00000  Uiso   1.00
C251   C     0.50016   0.50004   0.38469   0.00000  Uiso   1.00
C252   C     0.49984   0.49996   0.11531   0.00000  Uiso   1.00
C253   C     0.50090   0.54134   0.40758   0.00000  Uiso   1.00
C254   C     0.49909   0.45866   0.09242   0.00000  Uiso   1.00
C255   C     0.50085   0.54175   0.45371   0.00000  Uiso   1.00
C256   C     0.49915   0.45825   0.04629   0.00000  Uiso   1.00
C257   C     0.50006   0.50007   0.47683   0.00000  Uiso   1.00
C258   C     0.49994   0.49993   0.02317   0.00000  Uiso   1.00
C259   C     0.49937   0.45849   0.45359   0.00000  Uiso   1.00
C260   C     0.50063   0.54151   0.04640   0.00000  Uiso   1.00
C261   C     0.50154   0.58293   0.47710   0.00000  Uiso   1.00
C262   C     0.49846   0.41707   0.02290   0.00000  Uiso   1.00
N263   N     0.50000   0.61907   0.25000   0.00000  Uiso   1.00
N264   N     0.50000   0.38093   0.25000   0.00000  Uiso   1.00
O265   O     0.43892   0.53821   0.24999   0.00000  Uiso   1.00
O266   O     0.56108   0.46179   0.25000   0.00000  Uiso   1.00
O267   O     0.56108   0.53821   0.25000   0.00000  Uiso   1.00
O268   O     0.43892   0.46179   0.24999   0.00000  Uiso   1.00
O269   O     0.49999   0.53823   0.18392   0.00000  Uiso   1.00
O270   O     0.50001   0.46177   0.31607   0.00000  Uiso   1.00
O271   O     0.50001   0.53823   0.31607   0.00000  Uiso   1.00
O272   O     0.49999   0.46177   0.18392   0.00000  Uiso   1.00
Zn273  Zn    0.50000   0.55104   0.25000   0.00000  Uiso   1.00
Zn274  Zn    0.50000   0.44896   0.25000   0.00000  Uiso   1.00
H275   H     0.49889   0.42686   0.38962   0.00000  Uiso   1.00
H276   H     0.50111   0.57314   0.11038   0.00000  Uiso   1.00
H277   H     0.50152   0.57313   0.38949   0.00000  Uiso   1.00
H278   H     0.49848   0.42687   0.11051   0.00000  Uiso   1.00
F279   F     0.50233   0.62327   0.45533   0.00000  Uiso   1.00
F280   F     0.49767   0.37673   0.04467   0.00000  Uiso   1.00
H281   H     0.50197   0.61468   0.04113   0.00000  Uiso   1.00
H282   H     0.49803   0.38532   0.45887   0.00000  Uiso   1.00
H283   H     0.37087   0.42760   0.26284   0.00000  Uiso   1.00
H284   H     0.62913   0.57240   0.23716   0.00000  Uiso   1.00
H285   H     0.62922   0.42762   0.26295   0.00000  Uiso   1.00
H286   H     0.37078   0.57238   0.23705   0.00000  Uiso   1.00
F287   F     0.55135   0.38011   0.30603   0.00000  Uiso   1.00
F288   F     0.44865   0.61989   0.19397   0.00000  Uiso   1.00
F289   F     0.44864   0.38005   0.19398   0.00000  Uiso   1.00
F290   F     0.55136   0.61995   0.30601   0.00000  Uiso   1.00
C291   C     0.75328   0.50000   0.24996   0.00000  Uiso   1.00
C292   C     0.91339   0.50000   0.25004   0.00000  Uiso   1.00
C293   C     0.83476   0.58271   0.02335   0.00000  Uiso   1.00
C294   C     0.83191   0.41729   0.47665   0.00000  Uiso   1.00
C295   C     0.68798   0.45928   0.25708   0.00000  Uiso   1.00
C296   C     0.97868   0.54072   0.24292   0.00000  Uiso   1.00
C297   C     0.97873   0.45929   0.25715   0.00000  Uiso   1.00
C298   C     0.68794   0.54071   0.24285   0.00000  Uiso   1.00
C299   C     0.95753   0.50001   0.25005   0.00000  Uiso   1.00
C300   C     0.70914   0.49999   0.24995   0.00000  Uiso   1.00
C301   C     0.85899   0.35735   0.27799   0.00000  Uiso   1.00
C302   C     0.80768   0.64265   0.22201   0.00000  Uiso   1.00
C303   C     0.80768   0.35732   0.22201   0.00000  Uiso   1.00
C304   C     0.85899   0.64269   0.27799   0.00000  Uiso   1.00
C305   C     0.83326   0.49999   0.16326   0.00000  Uiso   1.00
C306   C     0.83340   0.50001   0.33674   0.00000  Uiso   1.00
C307   C     0.83278   0.45879   0.40756   0.00000  Uiso   1.00
C308   C     0.83388   0.54121   0.09244   0.00000  Uiso   1.00
C309   C     0.83349   0.50004   0.38469   0.00000  Uiso   1.00
C310   C     0.83317   0.49996   0.11531   0.00000  Uiso   1.00
C311   C     0.83424   0.54134   0.40758   0.00000  Uiso   1.00
C312   C     0.83243   0.45866   0.09242   0.00000  Uiso   1.00
C313   C     0.83418   0.54175   0.45371   0.00000  Uiso   1.00
C314   C     0.83248   0.45825   0.04629   0.00000  Uiso   1.00
C315   C     0.83339   0.50007   0.47683   0.00000  Uiso   1.00
C316   C     0.83328   0.49993   0.02317   0.00000  Uiso   1.00
C317   C     0.83270   0.45849   0.45359   0.00000  Uiso   1.00
C318   C     0.83396   0.54151   0.04640   0.00000  Uiso   1.00
C319   C     0.83487   0.58293   0.47710   0.00000  Uiso   1.00
C320   C     0.83179   0.41707   0.02290   0.00000  Uiso   1.00
N321   N     0.83333   0.61907   0.25000   0.00000  Uiso   1.00
N322   N     0.83333   0.38093   0.25000   0.00000  Uiso   1.00
O323   O     0.77226   0.53821   0.24999   0.00000  Uiso   1.00
O324   O     0.89441   0.46179   0.25000   0.00000  Uiso   1.00
O325   O     0.89441   0.53821   0.25000   0.00000  Uiso   1.00
O326   O     0.77226   0.46179   0.24999   0.00000  Uiso   1.00
O327   O     0.83333   0.53823   0.18392   0.00000  Uiso   1.00
O328   O     0.83334   0.46177   0.31607   0.00000  Uiso   1.00
O329   O     0.83334   0.53823   0.31607   0.00000  Uiso   1.00
O330   O     0.83333   0.46177   0.18392   0.00000  Uiso   1.00
Zn331  Zn    0.83333   0.55104   0.25000   0.00000  Uiso   1.00
Zn332  Zn    0.83333   0.44896   0.25000   0.00000  Uiso   1.00
H333   H     0.83223   0.42686   0.38962   0.00000  Uiso   1.00
H334   H     0.83444   0.57314   0.11038   0.00000  Uiso   1.00
H335   H     0.83485   0.57313   0.38949   0.00000  Uiso   1.00
H336   H     0.83182   0.42687   0.11051   0.00000  Uiso   1.00
F337   F     0.83566   0.62327   0.45533   0.00000  Uiso   1.00
F338   F     0.83100   0.37673   0.04467   0.00000  Uiso   1.00
H339   H     0.83530   0.61468   0.04113   0.00000  Uiso   1.00
H340   H     0.83136   0.38532   0.45887   0.00000  Uiso   1.00
H341   H     0.70420   0.42760   0.26284   0.00000  Uiso   1.00
H342   H     0.96247   0.57240   0.23716   0.00000  Uiso   1.00
H343   H     0.96255   0.42762   0.26295   0.00000  Uiso   1.00
H344   H     0.70412   0.57238   0.23705   0.00000  Uiso   1.00
F345   F     0.88469   0.38011   0.30603   0.00000  Uiso   1.00
F346   F     0.78198   0.61989   0.19397   0.00000  Uiso   1.00
F347   F     0.78197   0.38005   0.19398   0.00000  Uiso   1.00
F348   F     0.88470   0.61995   0.30601   0.00000  Uiso   1.00
C349   C     0.08661   0.83333   0.24996   0.00000  Uiso   1.00
C350   C     0.24672   0.83334   0.25004   0.00000  Uiso   1.00
C351   C     0.16809   0.91604   0.02335   0.00000  Uiso   1.00
C352   C     0.16524   0.75063   0.47665   0.00000  Uiso   1.00
C353   C     0.02132   0.79261   0.25708   0.00000  Uiso   1.00
C354   C     0.31202   0.87406   0.24292   0.00000  Uiso   1.00
C355   C     0.31206   0.79262   0.25715   0.00000  Uiso   1.00
C356   C     0.02127   0.87405   0.24285   0.00000  Uiso   1.00
C357   C     0.29086   0.83334   0.25005   0.00000  Uiso   1.00
C358   C     0.04247   0.83333   0.24995   0.00000  Uiso   1.00
C359   C     0.19232   0.69068   0.27799   0.00000  Uiso   1.00
C360   C     0.14101   0.97599   0.22201   0.00000  Uiso   1.00
C361   C     0.14101   0.69065   0.22201   0.00000  Uiso   1.00
C362   C     0.19232   0.97602   0.27799   0.00000  Uiso   1.00
C363   C     0.16660   0.83332   0.16326   0.00000  Uiso   1.00
C364   C     0.16674   0.83334   0.33674   0.00000  Uiso   1.00
C365   C     0.16611   0.79212   0.40756   0.00000  Uiso   1.00
C366   C     0.16722   0.87455   0.09244   0.00000  Uiso   1.00
C367   C     0.16682   0.83338   0.38469   0.00000  Uiso   1.00
C368   C     0.16651   0.83329   0.11531   0.00000  Uiso   1.00
C369   C     0.16757   0.87467   0.40758   0.00000  Uiso   1.00
C370   C     0.16576   0.79200   0.09242   0.00000  Uiso   1.00
C371   C     0.16752   0.87508   0.45371   0.00000  Uiso   1.00
C372   C     0.16582   0.79158   0.04629   0.00000  Uiso   1.00
C373   C     0.16672   0.83340   0.47683   0.00000  Uiso   1.00
C374   C     0.16661   0.83327   0.02317   0.00000  Uiso   1.00
C375   C     0.16604   0.79182   0.45359   0.00000  Uiso   1.00
C376   C     0.16729   0.87485   0.04640   0.00000  Uiso   1.00
C377   C     0.16821   0.91627   0.47710   0.00000  Uiso   1.00
C378   C     0.16512   0.75040   0.02290   0.00000  Uiso   1.00
N379   N     0.16667   0.95240   0.25000   0.00000  Uiso   1.00
N380   N     0.16667   0.71427   0.25000   0.00000  Uiso   1.00
O381   O     0.10559   0.87154   0.24999   0.00000  Uiso   1.00
O382   O     0.22774   0.79513   0.25000   0.00000  Uiso   1.00
O383   O     0.22774   0.87154   0.25000   0.00000  Uiso   1.00
O384   O     0.10559   0.79513   0.24999   0.00000  Uiso   1.00
O385   O     0.16666   0.87156   0.18392   0.00000  Uiso   1.00
O386   O     0.16667   0.79511   0.31607   0.00000  Uiso   1.00
O387   O     0.16667   0.87156   0.31607   0.00000  Uiso   1.00
O388   O     0.16666   0.79511   0.18392   0.00000  Uiso   1.00
Zn389  Zn    0.16667   0.88437   0.25000   0.00000  Uiso   1.00
Zn390  Zn    0.16667   0.78229   0.25000   0.00000  Uiso   1.00
H391   H     0.16556   0.76019   0.38962   0.00000  Uiso   1.00
H392   H     0.16777   0.90647   0.11038   0.00000  Uiso   1.00
H393   H     0.16818   0.90646   0.38949   0.00000  Uiso   1.00
H394   H     0.16515   0.76021   0.11051   0.00000  Uiso   1.00
F395   F     0.16899   0.95661   0.45533   0.00000  Uiso   1.00
F396   F     0.16434   0.71006   0.04467   0.00000  Uiso   1.00
H397   H     0.16863   0.94802   0.04113   0.00000  Uiso   1.00
H398   H     0.16470   0.71865   0.45887   0.00000  Uiso   1.00
H399   H     0.03753   0.76094   0.26284   0.00000  Uiso   1.00
H400   H     0.29580   0.90573   0.23716   0.00000  Uiso   1.00
H401   H     0.29588   0.76095   0.26295   0.00000  Uiso   1.00
H402   H     0.03745   0.90572   0.23705   0.00000  Uiso   1.00
F403   F     0.21802   0.71345   0.30603   0.00000  Uiso   1.00
F404   F     0.11531   0.95322   0.19397   0.00000  Uiso   1.00
F405   F     0.11531   0.71338   0.19398   0.00000  Uiso   1.00
F406   F     0.21803   0.95328   0.30601   0.00000  Uiso   1.00
C407   C     0.41995   0.83333   0.24996   0.00000  Uiso   1.00
C408   C     0.58005   0.83334   0.25004   0.00000  Uiso   1.00
C409   C     0.50142   0.91604   0.02335   0.00000  Uiso   1.00
C410   C     0.49858   0.75063   0.47665   0.00000  Uiso   1.00
C411   C     0.35465   0.79261   0.25708   0.00000  Uiso   1.00
C412   C     0.64535   0.87406   0.24292   0.00000  Uiso   1.00
C413   C     0.64539   0.79262   0.25715   0.00000  Uiso   1.00
C414   C     0.35461   0.87405   0.24285   0.00000  Uiso   1.00
C415   C     0.62420   0.83334   0.25005   0.00000  Uiso   1.00
C416   C     0.37580   0.83333   0.24995   0.00000  Uiso   1.00
C417   C     0.52566   0.69068   0.27799   0.00000  Uiso   1.00
C418   C     0.47434   0.97599   0.22201   0.00000  Uiso   1.00
C419   C     0.47434   0.69065   0.22201   0.00000  Uiso   1.00
C420   C     0.52566   0.97602   0.27799   0.00000  Uiso   1.00
C421   C     0.49993   0.83332   0.16326   0.00000  Uiso   1.00
C422   C     0.50007   0.83334   0.33674   0.00000  Uiso   1.00
C423   C     0.49945   0.79212   0.40756   0.00000  Uiso   1.00
C424   C     0.50055   0.87455   0.09244   0.00000  Uiso   1.00
C425   C     0.50016   0.83338   0.38469   0.00000  Uiso   1.00
C426   C     0.49984   0.83329   0.11531   0.00000  Uiso   1.00
C427   C     0.50090   0.87467   0.40758   0.00000  Uiso   1.00
C428   C     0.49909   0.79200   0.09242   0.00000  Uiso   1.00
C429   C     0.50085   0.87508   0.45371   0.00000  Uiso   1.00
C430   C     0.49915   0.79158   0.04629   0.00000  Uiso   1.00
C431   C     0.50006   0.83340   0.47683   0.00000  Uiso   1.00
C432   C     0.49994   0.83327   0.02317   0.00000  Uiso   1.00
C433   C     0.49937   0.79182   0.45359   0.00000  Uiso   1.00
C434   C     0.50063   0.87485   0.04640   0.00000  Uiso   1.00
C435   C     0.50154   0.91627   0.47710   0.00000  Uiso   1.00
C436   C     0.49846   0.75040   0.02290   0.00000  Uiso   1.00
N437   N     0.50000   0.95240   0.25000   0.00000  Uiso   1.00
N438   N     0.50000   0.71427   0.25000   0.00000  Uiso   1.00
O439   O     0.43892   0.87154   0.24999   0.00000  Uiso   1.00
O440   O     0.56108   0.79513   0.25000   0.00000  Uiso   1.00
O441   O     0.56108   0.87154   0.25000   0.00000  Uiso   1.00
O442   O     0.43892   0.79513   0.24999   0.00000  Uiso   1.00
O443   O     0.49999   0.87156   0.18392   0.00000  Uiso   1.00
O444   O     0.50001   0.79511   0.31607   0.00000  Uiso   1.00
O445   O     0.50001   0.87156   0.31607   0.00000  Uiso   1.00
O446   O     0.49999   0.79511   0.18392   0.00000  Uiso   1.00
Zn447  Zn    0.50000   0.88437   0.25000   0.00000  Uiso   1.00
Zn448  Zn    0.50000   0.78229   0.25000   0.00000  Uiso   1.00
H449   H     0.49889   0.76019   0.38962   0.00000  Uiso   1.00
H450   H     0.50111   0.90647   0.11038   0.00000  Uiso   1.00
H451   H     0.50152   0.90646   0.38949   0.00000  Uiso   1.00
H452   H     0.49848   0.76021   0.11051   0.00000  Uiso   1.00
F453   F     0.50233   0.95661   0.45533   0.00000  Uiso   1.00
F454   F     0.49767   0.71006   0.04467   0.00000  Uiso   1.00
H455   H     0.50197   0.94802   0.04113   0.00000  Uiso   1.00
H456   H     0.49803   0.71865   0.45887   0.00000  Uiso   1.00
H457   H     0.37087   0.76094   0.26284   0.00000  Uiso   1.00
H458   H     0.62913   0.90573   0.23716   0.00000  Uiso   1.00
H459   H     0.62922   0.76095   0.26295   0.00000  Uiso   1.00
H460   H     0.37078   0.90572   0.23705   0.00000  Uiso   1.00
F461   F     0.55135   0.71345   0.30603   0.00000  Uiso   1.00
F462   F     0.44865   0.95322   0.19397   0.00000  Uiso   1.00
F463   F     0.44864   0.71338   0.19398   0.00000  Uiso   1.00
F464   F     0.55136   0.95328   0.30601   0.00000  Uiso   1.00
C465   C     0.75328   0.83333   0.24996   0.00000  Uiso   1.00
C466   C     0.91339   0.83334   0.25004   0.00000  Uiso   1.00
C467   C     0.83476   0.91604   0.02335   0.00000  Uiso   1.00
C468   C     0.83191   0.75063   0.47665   0.00000  Uiso   1.00
C469   C     0.68798   0.79261   0.25708   0.00000  Uiso   1.00
C470   C     0.97868   0.87406   0.24292   0.00000  Uiso   1.00
C471   C     0.97873   0.79262   0.25715   0.00000  Uiso   1.00
C472   C     0.68794   0.87405   0.24285   0.00000  Uiso   1.00
C473   C     0.95753   0.83334   0.25005   0.00000  Uiso   1.00
C474   C     0.70914   0.83333   0.24995   0.00000  Uiso   1.00
C475   C     0.85899   0.69068   0.27799   0.00000  Uiso   1.00
C476   C     0.80768   0.97599   0.22201   0.00000  Uiso   1.00
C477   C     0.80768   0.69065   0.22201   0.00000  Uiso   1.00
C478   C     0.85899   0.97602   0.27799   0.00000  Uiso   1.00
C479   C     0.83326   0.83332   0.16326   0.00000  Uiso   1.00
C480   C     0.83340   0.83334   0.33674   0.00000  Uiso   1.00
C481   C     0.83278   0.79212   0.40756   0.00000  Uiso   1.00
C482   C     0.83388   0.87455   0.09244   0.00000  Uiso   1.00
C483   C     0.83349   0.83338   0.38469   0.00000  Uiso   1.00
C484   C     0.83317   0.83329   0.11531   0.00000  Uiso   1.00
C485   C     0.83424   0.87467   0.40758   0.00000  Uiso   1.00
C486   C     0.83243   0.79200   0.09242   0.00000  Uiso   1.00
C487   C     0.83418   0.87508   0.45371   0.00000  Uiso   1.00
C488   C     0.83248   0.79158   0.04629   0.00000  Uiso   1.00
C489   C     0.83339   0.83340   0.47683   0.00000  Uiso   1.00
C490   C     0.83328   0.83327   0.02317   0.00000  Uiso   1.00
C491   C     0.83270   0.79182   0.45359   0.00000  Uiso   1.00
C492   C     0.83396   0.87485   0.04640   0.00000  Uiso   1.00
C493   C     0.83487   0.91627   0.47710   0.00000  Uiso   1.00
C494   C     0.83179   0.75040   0.02290   0.00000  Uiso   1.00
N495   N     0.83333   0.95240   0.25000   0.00000  Uiso   1.00
N496   N     0.83333   0.71427   0.25000   0.00000  Uiso   1.00
O497   O     0.77226   0.87154   0.24999   0.00000  Uiso   1.00
O498   O     0.89441   0.79513   0.25000   0.00000  Uiso   1.00
O499   O     0.89441   0.87154   0.25000   0.00000  Uiso   1.00
O500   O     0.77226   0.79513   0.24999   0.00000  Uiso   1.00
O501   O     0.83333   0.87156   0.18392   0.00000  Uiso   1.00
O502   O     0.83334   0.79511   0.31607   0.00000  Uiso   1.00
O503   O     0.83334   0.87156   0.31607   0.00000  Uiso   1.00
O504   O     0.83333   0.79511   0.18392   0.00000  Uiso   1.00
Zn505  Zn    0.83333   0.88437   0.25000   0.00000  Uiso   1.00
Zn506  Zn    0.83333   0.78229   0.25000   0.00000  Uiso   1.00
H507   H     0.83223   0.76019   0.38962   0.00000  Uiso   1.00
H508   H     0.83444   0.90647   0.11038   0.00000  Uiso   1.00
H509   H     0.83485   0.90646   0.38949   0.00000  Uiso   1.00
H510   H     0.83182   0.76021   0.11051   0.00000  Uiso   1.00
F511   F     0.83566   0.95661   0.45533   0.00000  Uiso   1.00
F512   F     0.83100   0.71006   0.04467   0.00000  Uiso   1.00
H513   H     0.83530   0.94802   0.04113   0.00000  Uiso   1.00
H514   H     0.83136   0.71865   0.45887   0.00000  Uiso   1.00
H515   H     0.70420   0.76094   0.26284   0.00000  Uiso   1.00
H516   H     0.96247   0.90573   0.23716   0.00000  Uiso   1.00
H517   H     0.96255   0.76095   0.26295   0.00000  Uiso   1.00
H518   H     0.70412   0.90572   0.23705   0.00000  Uiso   1.00
F519   F     0.88469   0.71345   0.30603   0.00000  Uiso   1.00
F520   F     0.78198   0.95322   0.19397   0.00000  Uiso   1.00
F521   F     0.78197   0.71338   0.19398   0.00000  Uiso   1.00
F522   F     0.88470   0.95328   0.30601   0.00000  Uiso   1.00
C523   C     0.08661   0.16666   0.74996   0.00000  Uiso   1.00
C524   C     0.24672   0.16667   0.75004   0.00000  Uiso   1.00
C525   C     0.16809   0.24937   0.52335   0.00000  Uiso   1.00
C526   C     0.16524   0.08396   0.97665   0.00000  Uiso   1.00
C527   C     0.02132   0.12594   0.75708   0.00000  Uiso   1.00
C528   C     0.31202   0.20739   0.74292   0.00000  Uiso   1.00
C529   C     0.31206   0.12595   0.75715   0.00000  Uiso   1.00
C530   C     0.02127   0.20738   0.74285   0.00000  Uiso   1.00
C531   C     0.29086   0.16667   0.75005   0.00000  Uiso   1.00
C532   C     0.04247   0.16666   0.74995   0.00000  Uiso   1.00
C533   C     0.19232   0.02401   0.77799   0.00000  Uiso   1.00
C534   C     0.14101   0.30932   0.72201   0.00000  Uiso   1.00
C535   C     0.14101   0.02398   0.72201   0.00000  Uiso   1.00
C536   C     0.19232   0.30935   0.77799   0.00000  Uiso   1.00
C537   C     0.16660   0.16666   0.66326   0.00000  Uiso   1.00
C538   C     0.16674   0.16668   0.83674   0.00000  Uiso   1.00
C539   C     0.16611   0.12545   0.90756   0.00000  Uiso   1.00
C540   C     0.16722   0.20788   0.59244   0.00000  Uiso   1.00
C541   C     0.16682   0.16671   0.88469   0.00000  Uiso   1.00
C542   C     0.16651   0.16662   0.61531   0.00000  Uiso   1.00
C543   C     0.16757   0.20800   0.90758   0.00000  Uiso   1.00
C544   C     0.16576   0.12533   0.59242   0.00000  Uiso   1.00
C545   C     0.16752   0.20842   0.95371   0.00000  Uiso   1.00
C546   C     0.16582   0.12492   0.54629   0.00000  Uiso   1.00
C547   C     0.16672   0.16673   0.97683   0.00000  Uiso   1.00
C548   C     0.16661   0.16660   0.52317   0.00000  Uiso   1.00
C549   C     0.16604   0.12515   0.95359   0.00000  Uiso   1.00
C550   C     0.16729   0.20818   0.54640   0.00000  Uiso   1.00
C551   C     0.16821   0.24960   0.97710   0.00000  Uiso   1.00
C552   C     0.16512   0.08373   0.52290   0.00000  Uiso   1.00
N553   N     0.16667   0.28573   0.75000   0.00000  Uiso   1.00
N554   N     0.16667   0.04760   0.75000   0.00000  Uiso   1.00
O555   O     0.10559   0.20487   0.74999   0.00000  Uiso   1.00
O556   O     0.22774   0.12846   0.75000   0.00000  Uiso   1.00
O557   O     0.22774   0.20487   0.75000   0.00000  Uiso   1.00
O558   O     0.10559   0.12846   0.74999   0.00000  Uiso   1.00
O559   O     0.16666   0.20489   0.68392   0.00000  Uiso   1.00
O560   O     0.16667   0.12844   0.81607   0.00000  Uiso   1.00
O561   O     0.16667   0.20489   0.81607   0.00000  Uiso   1.00
O562   O     0.16666   0.12844   0.68392   0.00000  Uiso   1.00
Zn563  Zn    0.16667   0.21771   0.75000   0.00000  Uiso   1.00
Zn564  Zn    0.16667   0.11563   0.75000   0.00000  Uiso   1.00
H565   H     0.16556   0.09353   0.88962   0.00000  Uiso   1.00
H566   H     0.16777   0.23981   0.61038   0.00000  Uiso   1.00
H567   H     0.16818   0.23979   0.88949   0.00000  Uiso   1.00
H568   H     0.16515   0.09354   0.61051   0.00000  Uiso   1.00
F569   F     0.16899   0.28994   0.95533   0.00000  Uiso   1.00
F570   F     0.16434   0.04339   0.54467   0.00000  Uiso   1.00
H571   H     0.16863   0.28135   0.54113   0.00000  Uiso   1.00
H572   H     0.16470   0.05198   0.95887   0.00000  Uiso   1.00
H573   H     0.03753   0.09427   0.76284   0.00000  Uiso   1.00
H574   H     0.29580   0.23907   0.73716   0.00000  Uiso   1.00
H575   H     0.29588   0.09428   0.76295   0.00000  Uiso   1.00
H576   H     0.03745   0.23905   0.73705   0.00000  Uiso   1.00
F577   F     0.21802   0.04678   0.80603   0.00000  Uiso   1.00
F578   F     0.11531   0.28655   0.69397   0.00000  Uiso   1.00
F579   F     0.11531   0.04672   0.69398   0.00000  Uiso   1.00
F580   F     0.21803   0.28662   0.80601   0.00000  Uiso   1.00
C581   C     0.41995   0.16666   0.74996   0.00000  Uiso   1.00
C582   C     0.58005   0.16667   0.75004   0.00000  Uiso   1.00
C583   C     0.50142   0.24937   0.52335   0.00000  Uiso   1.00
C584   C     0.49858   0.08396   0.97665   0.00000  Uiso   1.00
C585   C     0.35465   0.12594   0.75708   0.00000  Uiso   1.00
C586   C     0.64535   0.20739   0.74292   0.00000  Uiso   1.00
C587   C     0.64539   0.12595   0.75715   0.00000  Uiso   1.00
C588   C     0.35461   0.20738   0.74285   0.00000  Uiso   1.00
C589   C     0.62420   0.16667   0.75005   0.00000  Uiso   1.00
C590   C     0.37580   0.16666   0.74995   0.00000  Uiso   1.00
C591   C     0.52566   0.02401   0.77799   0.00000  Uiso   1.00
C592   C     0.47434   0.30932   0.72201   0.00000  Uiso   1.00
C593   C     0.47434   0.02398   0.72201   0.00000  Uiso   1.00
C594   C     0.52566   0.30935   0.77799   0.00000  Uiso   1.00
C595   C     0.49993   0.16666   0.66326   0.00000  Uiso   1.00
C596   C     0.50007   0.16668   0.83674   0.00000  Uiso   1.00
C597   C     0.49945   0.12545   0.90756   0.00000  Uiso   1.00
C598   C     0.50055   0.20788   0.59244   0.00000  Uiso   1.00
C599   C     0.50016   0.16671   0.88469   0.00000  Uiso   1.00
C600   C     0.49984   0.16662   0.61531   0.00000  Uiso   1.00
C601   C     0.50090   0.20800   0.90758   0.00000  Uiso   1.00
C602   C     0.49909   0.12533   0.59242   0.00000  Uiso   1.00
C603   C     0.50085   0.20842   0.95371   0.00000  Uiso   1.00
C604   C     0.49915   0.12492   0.54629   0.00000  Uiso   1.00
C605   C     0.50006   0.16673   0.97683   0.00000  Uiso   1.00
C606   C     0.49994   0.16660   0.52317   0.00000  Uiso   1.00
C607   C     0.49937   0.12515   0.95359   0.00000  Uiso   1.00
C608   C     0.50063   0.20818   0.54640   0.00000  Uiso   1.00
C609   C     0.50154   0.24960   0.97710   0.00000  Uiso   1.00
C610   C     0.49846   0.08373   0.52290   0.00000  Uiso   1.00
N611   N     0.50000   0.28573   0.75000   0.00000  Uiso   1.00
N612   N     0.50000   0.04760   0.75000   0.00000  Uiso   1.00
O613   O     0.43892   0.20487   0.74999   0.00000  Uiso   1.00
O614   O     0.56108   0.12846   0.75000   0.00000  Uiso   1.00
O615   O     0.56108   0.20487   0.75000   0.00000  Uiso   1.00
O616   O     0.43892   0.12846   0.74999   0.00000  Uiso   1.00
O617   O     0.49999   0.20489   0.68392   0.00000  Uiso   1.00
O618   O     0.50001   0.12844   0.81607   0.00000  Uiso   1.00
O619   O     0.50001   0.20489   0.81607   0.00000  Uiso   1.00
O620   O     0.49999   0.12844   0.68392   0.00000  Uiso   1.00
Zn621  Zn    0.50000   0.21771   0.75000   0.00000  Uiso   1.00
Zn622  Zn    0.50000   0.11563   0.75000   0.00000  Uiso   1.00
H623   H     0.49889   0.09353   0.88962   0.00000  Uiso   1.00
H624   H     0.50111   0.23981   0.61038   0.00000  Uiso   1.00
H625   H     0.50152   0.23979   0.88949   0.00000  Uiso   1.00
H626   H     0.49848   0.09354   0.61051   0.00000  Uiso   1.00
F627   F     0.50233   0.28994   0.95533   0.00000  Uiso   1.00
F628   F     0.49767   0.04339   0.54467   0.00000  Uiso   1.00
H629   H     0.50197   0.28135   0.54113   0.00000  Uiso   1.00
H630   H     0.49803   0.05198   0.95887   0.00000  Uiso   1.00
H631   H     0.37087   0.09427   0.76284   0.00000  Uiso   1.00
H632   H     0.62913   0.23907   0.73716   0.00000  Uiso   1.00
H633   H     0.62922   0.09428   0.76295   0.00000  Uiso   1.00
H634   H     0.37078   0.23905   0.73705   0.00000  Uiso   1.00
F635   F     0.55135   0.04678   0.80603   0.00000  Uiso   1.00
F636   F     0.44865   0.28655   0.69397   0.00000  Uiso   1.00
F637   F     0.44864   0.04672   0.69398   0.00000  Uiso   1.00
F638   F     0.55136   0.28662   0.80601   0.00000  Uiso   1.00
C639   C     0.75328   0.16666   0.74996   0.00000  Uiso   1.00
C640   C     0.91339   0.16667   0.75004   0.00000  Uiso   1.00
C641   C     0.83476   0.24937   0.52335   0.00000  Uiso   1.00
C642   C     0.83191   0.08396   0.97665   0.00000  Uiso   1.00
C643   C     0.68798   0.12594   0.75708   0.00000  Uiso   1.00
C644   C     0.97868   0.20739   0.74292   0.00000  Uiso   1.00
C645   C     0.97873   0.12595   0.75715   0.00000  Uiso   1.00
C646   C     0.68794   0.20738   0.74285   0.00000  Uiso   1.00
C647   C     0.95753   0.16667   0.75005   0.00000  Uiso   1.00
C648   C     0.70914   0.16666   0.74995   0.00000  Uiso   1.00
C649   C     0.85899   0.02401   0.77799   0.00000  Uiso   1.00
C650   C     0.80768   0.30932   0.72201   0.00000  Uiso   1.00
C651   C     0.80768   0.02398   0.72201   0.00000  Uiso   1.00
C652   C     0.85899   0.30935   0.77799   0.00000  Uiso   1.00
C653   C     0.83326   0.16666   0.66326   0.00000  Uiso   1.00
C654   C     0.83340   0.16668   0.83674   0.00000  Uiso   1.00
C655   C     0.83278   0.12545   0.90756   0.00000  Uiso   1.00
C656   C     0.83388   0.20788   0.59244   0.00000  Uiso   1.00
C657   C     0.83349   0.16671   0.88469   0.00000  Uiso   1.00
C658   C     0.83317   0.16662   0.61531   0.00000  Uiso   1.00
C659   C     0.83424   0.20800   0.90758   0.00000  Uiso   1.00
C660   C     0.83243   0.12533   0.59242   0.00000  Uiso   1.00
C661   C     0.83418   0.20842   0.95371   0.00000  Uiso   1.00
C662   C     0.83248   0.12492   0.54629   0.00000  Uiso   1.00
C663   C     0.83339   0.16673   0.97683   0.00000  Uiso   1.00
C664   C     0.83328   0.16660   0.52317   0.00000  Uiso   1.00
C665   C     0.83270   0.12515   0.95359   0.00000  Uiso   1.00
C666   C     0.83396   0.20818   0.54640   0.00000  Uiso   1.00
C667   C     0.83487   0.24960   0.97710   0.00000  Uiso   1.00
C668   C     0.83179   0.08373   0.52290   0.00000  Uiso   1.00
N669   N     0.83333   0.28573   0.75000   0.00000  Uiso   1.00
N670   N     0.83333   0.04760   0.75000   0.00000  Uiso   1.00
O671   O     0.77226   0.20487   0.74999   0.00000  Uiso   1.00
O672   O     0.89441   0.12846   0.75000   0.00000  Uiso   1.00
O673   O     0.89441   0.20487   0.75000   0.00000  Uiso   1.00
O674   O     0.77226   0.12846   0.74999   0.00000  Uiso   1.00
O675   O     0.83333   0.20489   0.68392   0.00000  Uiso   1.00
O676   O     0.83334   0.12844   0.81607   0.00000  Uiso   1.00
O677   O     0.83334   0.20489   0.81607   0.00000  Uiso   1.00
O678   O     0.83333   0.12844   0.68392   0.00000  Uiso   1.00
Zn679  Zn    0.83333   0.21771   0.75000   0.00000  Uiso   1.00
Zn680  Zn    0.83333   0.11563   0.75000   0.00000  Uiso   1.00
H681   H     0.83223   0.09353   0.88962   0.00000  Uiso   1.00
H682   H     0.83444   0.23981   0.61038   0.00000  Uiso   1.00
H683   H     0.83485   0.23979   0.88949   0.00000  Uiso   1.00
H684   H     0.83182   0.09354   0.61051   0.00000  Uiso   1.00
F685   F     0.83566   0.28994   0.95533   0.00000  Uiso   1.00
F686   F     0.83100   0.04339   0.54467   0.00000  Uiso   1.00
H687   H     0.83530   0.28135   0.54113   0.00000  Uiso   1.00
H688   H     0.83136   0.05198   0.95887   0.00000  Uiso   1.00
H689   H     0.70420   0.09427   0.76284   0.00000  Uiso   1.00
H690   H     0.96247   0.23907   0.73716   0.00000  Uiso   1.00
H691   H     0.96255   0.09428   0.76295   0.00000  Uiso   1.00
H692   H     0.70412   0.23905   0.73705   0.00000  Uiso   1.00
F693   F     0.88469   0.04678   0.80603   0.00000  Uiso   1.00
F694   F     0.78198   0.28655   0.69397   0.00000  Uiso   1.00
F695   F     0.78197   0.04672   0.69398   0.00000  Uiso   1.00
F696   F     0.88470   0.28662   0.80601   0.00000  Uiso   1.00
C697   C     0.08661   0.50000   0.74996   0.00000  Uiso   1.00
C698   C     0.24672   0.50000   0.75004   0.00000  Uiso   1.00
C699   C     0.16809   0.58271   0.52335   0.00000  Uiso   1.00
C700   C     0.16524   0.41729   0.97665   0.00000  Uiso   1.00
C701   C     0.02132   0.45928   0.75708   0.00000  Uiso   1.00
C702   C     0.31202   0.54072   0.74292   0.00000  Uiso   1.00
C703   C     0.31206   0.45929   0.75715   0.00000  Uiso   1.00
C704   C     0.02127   0.54071   0.74285   0.00000  Uiso   1.00
C705   C     0.29086   0.50001   0.75005   0.00000  Uiso   1.00
C706   C     0.04247   0.49999   0.74995   0.00000  Uiso   1.00
C707   C     0.19232   0.35735   0.77799   0.00000  Uiso   1.00
C708   C     0.14101   0.64265   0.72201   0.00000  Uiso   1.00
C709   C     0.14101   0.35732   0.72201   0.00000  Uiso   1.00
C710   C     0.19232   0.64269   0.77799   0.00000  Uiso   1.00
C711   C     0.16660   0.49999   0.66326   0.00000  Uiso   1.00
C712   C     0.16674   0.50001   0.83674   0.00000  Uiso   1.00
C713   C     0.16611   0.45879   0.90756   0.00000  Uiso   1.00
C714   C     0.16722   0.54121   0.59244   0.00000  Uiso   1.00
C715   C     0.16682   0.50004   0.88469   0.00000  Uiso   1.00
C716   C     0.16651   0.49996   0.61531   0.00000  Uiso   1.00
C717   C     0.16757   0.54134   0.90758   0.00000  Uiso   1.00
C718   C     0.16576   0.45866   0.59242   0.00000  Uiso   1.00
C719   C     0.16752   0.54175   0.95371   0.00000  Uiso   1.00
C720   C     0.16582   0.45825   0.54629   0.00000  Uiso   1.00
C721   C     0.16672   0.50007   0.97683   0.00000  Uiso   1.00
C722   C     0.16661   0.49993   0.52317   0.00000  Uiso   1.00
C723   C     0.16604   0.45849   0.95359   0.00000  Uiso   1.00
C724   C     0.16729   0.54151   0.54640   0.00000  Uiso   1.00
C725   C     0.16821   0.58293   0.97710   0.00000  Uiso   1.00
C726   C     0.16512   0.41707   0.52290   0.00000  Uiso   1.00
N727   N     0.16667   0.61907   0.75000   0.00000  Uiso   1.00
N728   N     0.16667   0.38093   0.75000   0.00000  Uiso   1.00
O729   O     0.10559   0.53821   0.74999   0.00000  Uiso   1.00
O730   O     0.22774   0.46179   0.75000   0.00000  Uiso   1.00
O731   O     0.22774   0.53821   0.75000   0.00000  Uiso   1.00
O732   O     0.10559   0.46179   0.74999   0.00000  Uiso   1.00
O733   O     0.16666   0.53823   0.68392   0.00000  Uiso   1.00
O734   O     0.16667   0.46177   0.81607   0.00000  Uiso   1.00
O735   O     0.16667   0.53823   0.81607   0.00000  Uiso   1.00
O736   O     0.16666   0.46177   0.68392   0.00000  Uiso   1.00
Zn737  Zn    0.16667   0.55104   0.75000   0.00000  Uiso   1.00
Zn738  Zn    0.16667   0.44896   0.75000   0.00000  Uiso   1.00
H739   H     0.16556   0.42686   0.88962   0.00000  Uiso   1.00
H740   H     0.16777   0.57314   0.61038   0.00000  Uiso   1.00
H741   H     0.16818   0.57313   0.88949   0.00000  Uiso   1.00
H742   H     0.16515   0.42687   0.61051   0.00000  Uiso   1.00
F743   F     0.16899   0.62327   0.95533   0.00000  Uiso   1.00
F744   F     0.16434   0.37673   0.54467   0.00000  Uiso   1.00
H745   H     0.16863   0.61468   0.54113   0.00000  Uiso   1.00
H746   H     0.16470   0.38532   0.95887   0.00000  Uiso   1.00
H747   H     0.03753   0.42760   0.76284   0.00000  Uiso   1.00
H748   H     0.29580   0.57240   0.73716   0.00000  Uiso   1.00
H749   H     0.29588   0.42762   0.76295   0.00000  Uiso   1.00
H750   H     0.03745   0.57238   0.73705   0.00000  Uiso   1.00
F751   F     0.21802   0.38011   0.80603   0.00000  Uiso   1.00
F752   F     0.11531   0.61989   0.69397   0.00000  Uiso   1.00
F753   F     0.11531   0.38005   0.69398   0.00000  Uiso   1.00
F754   F     0.21803   0.61995   0.80601   0.00000  Uiso   1.00
C755   C     0.41995   0.50000   0.74996   0.00000  Uiso   1.00
C756   C     0.58005   0.50000   0.75004   0.00000  Uiso   1.00
C757   C     0.50142   0.58271   0.52335   0.00000  Uiso   1.00
C758   C     0.49858   0.41729   0.97665   0.00000  Uiso   1.00
C759   C     0.35465   0.45928   0.75708   0.00000  Uiso   1.00
C760   C     0.64535   0.54072   0.74292   0.00000  Uiso   1.00
C761   C     0.64539   0.45929   0.75715   0.00000  Uiso   1.00
C762   C     0.35461   0.54071   0.74285   0.00000  Uiso   1.00
C763   C     0.62420   0.50001   0.75005   0.00000  Uiso   1.00
C764   C     0.37580   0.49999   0.74995   0.00000  Uiso   1.00
C765   C     0.52566   0.35735   0.77799   0.00000  Uiso   1.00
C766   C     0.47434   0.64265   0.72201   0.00000  Uiso   1.00
C767   C     0.47434   0.35732   0.72201   0.00000  Uiso   1.00
C768   C     0.52566   0.64269   0.77799   0.00000  Uiso   1.00
C769   C     0.49993   0.49999   0.66326   0.00000  Uiso   1.00
C770   C     0.50007   0.50001   0.83674   0.00000  Uiso   1.00
C771   C     0.49945   0.45879   0.90756   0.00000  Uiso   1.00
C772   C     0.50055   0.54121   0.59244   0.00000  Uiso   1.00
C773   C     0.50016   0.50004   0.88469   0.00000  Uiso   1.00
C774   C     0.49984   0.49996   0.61531   0.00000  Uiso   1.00
C775   C     0.50090   0.54134   0.90758   0.00000  Uiso   1.00
C776   C     0.49909   0.45866   0.59242   0.00000  Uiso   1.00
C777   C     0.50085   0.54175   0.95371   0.00000  Uiso   1.00
C778   C     0.49915   0.45825   0.54629   0.00000  Uiso   1.00
C779   C     0.50006   0.50007   0.97683   0.00000  Uiso   1.00
C780   C     0.49994   0.49993   0.52317   0.00000  Uiso   1.00
C781   C     0.49937   0.45849   0.95359   0.00000  Uiso   1.00
C782   C     0.50063   0.54151   0.54640   0.00000  Uiso   1.00
C783   C     0.50154   0.58293   0.97710   0.00000  Uiso   1.00
C784   C     0.49846   0.41707   0.52290   0.00000  Uiso   1.00
N785   N     0.50000   0.61907   0.75000   0.00000  Uiso   1.00
N786   N     0.50000   0.38093   0.75000   0.00000  Uiso   1.00
O787   O     0.43892   0.53821   0.74999   0.00000  Uiso   1.00
O788   O     0.56108   0.46179   0.75000   0.00000  Uiso   1.00
O789   O     0.56108   0.53821   0.75000   0.00000  Uiso   1.00
O790   O     0.43892   0.46179   0.74999   0.00000  Uiso   1.00
O791   O     0.49999   0.53823   0.68392   0.00000  Uiso   1.00
O792   O     0.50001   0.46177   0.81607   0.00000  Uiso   1.00
O793   O     0.50001   0.53823   0.81607   0.00000  Uiso   1.00
O794   O     0.49999   0.46177   0.68392   0.00000  Uiso   1.00
Zn795  Zn    0.50000   0.55104   0.75000   0.00000  Uiso   1.00
Zn796  Zn    0.50000   0.44896   0.75000   0.00000  Uiso   1.00
H797   H     0.49889   0.42686   0.88962   0.00000  Uiso   1.00
H798   H     0.50111   0.57314   0.61038   0.00000  Uiso   1.00
H799   H     0.50152   0.57313   0.88949   0.00000  Uiso   1.00
H800   H     0.49848   0.42687   0.61051   0.00000  Uiso   1.00
F801   F     0.50233   0.62327   0.95533   0.00000  Uiso   1.00
F802   F     0.49767   0.37673   0.54467   0.00000  Uiso   1.00
H803   H     0.50197   0.61468   0.54113   0.00000  Uiso   1.00
H804   H     0.49803   0.38532   0.95887   0.00000  Uiso   1.00
H805   H     0.37087   0.42760   0.76284   0.00000  Uiso   1.00
H806   H     0.62913   0.57240   0.73716   0.00000  Uiso   1.00
H807   H     0.62922   0.42762   0.76295   0.00000  Uiso   1.00
H808   H     0.37078   0.57238   0.73705   0.00000  Uiso   1.00
F809   F     0.55135   0.38011   0.80603   0.00000  Uiso   1.00
F810   F     0.44865   0.61989   0.69397   0.00000  Uiso   1.00
F811   F     0.44864   0.38005   0.69398   0.00000  Uiso   1.00
F812   F     0.55136   0.61995   0.80601   0.00000  Uiso   1.00
C813   C     0.75328   0.50000   0.74996   0.00000  Uiso   1.00
C814   C     0.91339   0.50000   0.75004   0.00000  Uiso   1.00
C815   C     0.83476   0.58271   0.52335   0.00000  Uiso   1.00
C816   C     0.83191   0.41729   0.97665   0.00000  Uiso   1.00
C817   C     0.68798   0.45928   0.75708   0.00000  Uiso   1.00
C818   C     0.97868   0.54072   0.74292   0.00000  Uiso   1.00
C819   C     0.97873   0.45929   0.75715   0.00000  Uiso   1.00
C820   C     0.68794   0.54071   0.74285   0.00000  Uiso   1.00
C821   C     0.95753   0.50001   0.75005   0.00000  Uiso   1.00
C822   C     0.70914   0.49999   0.74995   0.00000  Uiso   1.00
C823   C     0.85899   0.35735   0.77799   0.00000  Uiso   1.00
C824   C     0.80768   0.64265   0.72201   0.00000  Uiso   1.00
C825   C     0.80768   0.35732   0.72201   0.00000  Uiso   1.00
C826   C     0.85899   0.64269   0.77799   0.00000  Uiso   1.00
C827   C     0.83326   0.49999   0.66326   0.00000  Uiso   1.00
C828   C     0.83340   0.50001   0.83674   0.00000  Uiso   1.00
C829   C     0.83278   0.45879   0.90756   0.00000  Uiso   1.00
C830   C     0.83388   0.54121   0.59244   0.00000  Uiso   1.00
C831   C     0.83349   0.50004   0.88469   0.00000  Uiso   1.00
C832   C     0.83317   0.49996   0.61531   0.00000  Uiso   1.00
C833   C     0.83424   0.54134   0.90758   0.00000  Uiso   1.00
C834   C     0.83243   0.45866   0.59242   0.00000  Uiso   1.00
C835   C     0.83418   0.54175   0.95371   0.00000  Uiso   1.00
C836   C     0.83248   0.45825   0.54629   0.00000  Uiso   1.00
C837   C     0.83339   0.50007   0.97683   0.00000  Uiso   1.00
C838   C     0.83328   0.49993   0.52317   0.00000  Uiso   1.00
C839   C     0.83270   0.45849   0.95359   0.00000  Uiso   1.00
C840   C     0.83396   0.54151   0.54640   0.00000  Uiso   1.00
C841   C     0.83487   0.58293   0.97710   0.00000  Uiso   1.00
C842   C     0.83179   0.41707   0.52290   0.00000  Uiso   1.00
N843   N     0.83333   0.61907   0.75000   0.00000  Uiso   1.00
N844   N     0.83333   0.38093   0.75000   0.00000  Uiso   1.00
O845   O     0.77226   0.53821   0.74999   0.00000  Uiso   1.00
O846   O     0.89441   0.46179   0.75000   0.00000  Uiso   1.00
O847   O     0.89441   0.53821   0.75000   0.00000  Uiso   1.00
O848   O     0.77226   0.46179   0.74999   0.00000  Uiso   1.00
O849   O     0.83333   0.53823   0.68392   0.00000  Uiso   1.00
O850   O     0.83334   0.46177   0.81607   0.00000  Uiso   1.00
O851   O     0.83334   0.53823   0.81607   0.00000  Uiso   1.00
O852   O     0.83333   0.46177   0.68392   0.00000  Uiso   1.00
Zn853  Zn    0.83333   0.55104   0.75000   0.00000  Uiso   1.00
Zn854  Zn    0.83333   0.44896   0.75000   0.00000  Uiso   1.00
H855   H     0.83223   0.42686   0.88962   0.00000  Uiso   1.00
H856   H     0.83444   0.57314   0.61038   0.00000  Uiso   1.00
H857   H     0.83485   0.57313   0.88949   0.00000  Uiso   1.00
H858   H     0.83182   0.42687   0.61051   0.00000  Uiso   1.00
F859   F     0.83566   0.62327   0.95533   0.00000  Uiso   1.00
F860   F     0.83100   0.37673   0.54467   0.00000  Uiso   1.00
H861   H     0.83530   0.61468   0.54113   0.00000  Uiso   1.00
H862   H     0.83136   0.38532   0.95887   0.00000  Uiso   1.00
H863   H     0.70420   0.42760   0.76284   0.00000  Uiso   1.00
H864   H     0.96247   0.57240   0.73716   0.00000  Uiso   1.00
H865   H     0.96255   0.42762   0.76295   0.00000  Uiso   1.00
H866   H     0.70412   0.57238   0.73705   0.00000  Uiso   1.00
F867   F     0.88469   0.38011   0.80603   0.00000  Uiso   1.00
F868   F     0.78198   0.61989   0.69397   0.00000  Uiso   1.00
F869   F     0.78197   0.38005   0.69398   0.00000  Uiso   1.00
F870   F     0.88470   0.61995   0.80601   0.00000  Uiso   1.00
C871   C     0.08661   0.83333   0.74996   0.00000  Uiso   1.00
C872   C     0.24672   0.83334   0.75004   0.00000  Uiso   1.00
C873   C     0.16809   0.91604   0.52335   0.00000  Uiso   1.00
C874   C     0.16524   0.75063   0.97665   0.00000  Uiso   1.00
C875   C     0.02132   0.79261   0.75708   0.00000  Uiso   1.00
C876   C     0.31202   0.87406   0.74292   0.00000  Uiso   1.00
C877   C     0.31206   0.79262   0.75715   0.00000  Uiso   1.00
C878   C     0.02127   0.87405   0.74285   0.00000  Uiso   1.00
C879   C     0.29086   0.83334   0.75005   0.00000  Uiso   1.00
C880   C     0.04247   0.83333   0.74995   0.00000  Uiso   1.00
C881   C     0.19232   0.69068   0.77799   0.00000  Uiso   1.00
C882   C     0.14101   0.97599   0.72201   0.00000  Uiso   1.00
C883   C     0.14101   0.69065   0.72201   0.00000  Uiso   1.00
C884   C     0.19232   0.97602   0.77799   0.00000  Uiso   1.00
C885   C     0.16660   0.83332   0.66326   0.00000  Uiso   1.00
C886   C     0.16674   0.83334   0.83674   0.00000  Uiso   1.00
C887   C     0.16611   0.79212   0.90756   0.00000  Uiso   1.00
C888   C     0.16722   0.87455   0.59244   0.00000  Uiso   1.00
C889   C     0.16682   0.83338   0.88469   0.00000  Uiso   1.00
C890   C     0.16651   0.83329   0.61531   0.00000  Uiso   1.00
C891   C     0.16757   0.87467   0.90758   0.00000  Uiso   1.00
C892   C     0.16576   0.79200   0.59242   0.00000  Uiso   1.00
C893   C     0.16752   0.87508   0.95371   0.00000  Uiso   1.00
C894   C     0.16582   0.79158   0.54629   0.00000  Uiso   1.00
C895   C     0.16672   0.83340   0.97683   0.00000  Uiso   1.00
C896   C     0.16661   0.83327   0.52317   0.00000  Uiso   1.00
C897   C     0.16604   0.79182   0.95359   0.00000  Uiso   1.00
C898   C     0.16729   0.87485   0.54640   0.00000  Uiso   1.00
C899   C     0.16821   0.91627   0.97710   0.00000  Uiso   1.00
C900   C     0.16512   0.75040   0.52290   0.00000  Uiso   1.00
N901   N     0.16667   0.95240   0.75000   0.00000  Uiso   1.00
N902   N     0.16667   0.71427   0.75000   0.00000  Uiso   1.00
O903   O     0.10559   0.87154   0.74999   0.00000  Uiso   1.00
O904   O     0.22774   0.79513   0.75000   0.00000  Uiso   1.00
O905   O     0.22774   0.87154   0.75000   0.00000  Uiso   1.00
O906   O     0.10559   0.79513   0.74999   0.00000  Uiso   1.00
O907   O     0.16666   0.87156   0.68392   0.00000  Uiso   1.00
O908   O     0.16667   0.79511   0.81607   0.00000  Uiso   1.00
O909   O     0.16667   0.87156   0.81607   0.00000  Uiso   1.00
O910   O     0.16666   0.79511   0.68392   0.00000  Uiso   1.00
Zn911  Zn    0.16667   0.88437   0.75000   0.00000  Uiso   1.00
Zn912  Zn    0.16667   0.78229   0.75000   0.00000  Uiso   1.00
H913   H     0.16556   0.76019   0.88962   0.00000  Uiso   1.00
H914   H     0.16777   0.90647   0.61038   0.00000  Uiso   1.00
H915   H     0.16818   0.90646   0.88949   0.00000  Uiso   1.00
H916   H     0.16515   0.76021   0.61051   0.00000  Uiso   1.00
F917   F     0.16899   0.95661   0.95533   0.00000  Uiso   1.00
F918   F     0.16434   0.71006   0.54467   0.00000  Uiso   1.00
H919   H     0.16863   0.94802   0.54113   0.00000  Uiso   1.00
H920   H     0.16470   0.71865   0.95887   0.00000  Uiso   1.00
H921   H     0.03753   0.76094   0.76284   0.00000  Uiso   1.00
H922   H     0.29580   0.90573   0.73716   0.00000  Uiso   1.00
H923   H     0.29588   0.76095   0.76295   0.00000  Uiso   1.00
H924   H     0.03745   0.90572   0.73705   0.00000  Uiso   1.00
F925   F     0.21802   0.71345   0.80603   0.00000  Uiso   1.00
F926   F     0.11531   0.95322   0.69397   0.00000  Uiso   1.00
F927   F     0.11531   0.71338   0.69398   0.00000  Uiso   1.00
F928   F     0.21803   0.95328   0.80601   0.00000  Uiso   1.00
C929   C     0.41995   0.83333   0.74996   0.00000  Uiso   1.00
C930   C     0.58005   0.83334   0.75004   0.00000  Uiso   1.00
C931   C     0.50142   0.91604   0.52335   0.00000  Uiso   1.00
C932   C     0.49858   0.75063   0.97665   0.00000  Uiso   1.00
C933   C     0.35465   0.79261   0.75708   0.00000  Uiso   1.00
C934   C     0.64535   0.87406   0.74292   0.00000  Uiso   1.00
C935   C     0.64539   0.79262   0.75715   0.00000  Uiso   1.00
C936   C     0.35461   0.87405   0.74285   0.00000  Uiso   1.00
C937   C     0.62420   0.83334   0.75005   0.00000  Uiso   1.00
C938   C     0.37580   0.83333   0.74995   0.00000  Uiso   1.00
C939   C     0.52566   0.69068   0.77799   0.00000  Uiso   1.00
C940   C     0.47434   0.97599   0.72201   0.00000  Uiso   1.00
C941   C     0.47434   0.69065   0.72201   0.00000  Uiso   1.00
C942   C     0.52566   0.97602   0.77799   0.00000  Uiso   1.00
C943   C     0.49993   0.83332   0.66326   0.00000  Uiso   1.00
C944   C     0.50007   0.83334   0.83674   0.00000  Uiso   1.00
C945   C     0.49945   0.79212   0.90756   0.00000  Uiso   1.00
C946   C     0.50055   0.87455   0.59244   0.00000  Uiso   1.00
C947   C     0.50016   0.83338   0.88469   0.00000  Uiso   1.00
C948   C     0.49984   0.83329   0.61531   0.00000  Uiso   1.00
C949   C     0.50090   0.87467   0.90758   0.00000  Uiso   1.00
C950   C     0.49909   0.79200   0.59242   0.00000  Uiso   1.00
C951   C     0.50085   0.87508   0.95371   0.00000  Uiso   1.00
C952   C     0.49915   0.79158   0.54629   0.00000  Uiso   1.00
C953   C     0.50006   0.83340   0.97683   0.00000  Uiso   1.00
C954   C     0.49994   0.83327   0.52317   0.00000  Uiso   1.00
C955   C     0.49937   0.79182   0.95359   0.00000  Uiso   1.00
C956   C     0.50063   0.87485   0.54640   0.00000  Uiso   1.00
C957   C     0.50154   0.91627   0.97710   0.00000  Uiso   1.00
C958   C     0.49846   0.75040   0.52290   0.00000  Uiso   1.00
N959   N     0.50000   0.95240   0.75000   0.00000  Uiso   1.00
N960   N     0.50000   0.71427   0.75000   0.00000  Uiso   1.00
O961   O     0.43892   0.87154   0.74999   0.00000  Uiso   1.00
O962   O     0.56108   0.79513   0.75000   0.00000  Uiso   1.00
O963   O     0.56108   0.87154   0.75000   0.00000  Uiso   1.00
O964   O     0.43892   0.79513   0.74999   0.00000  Uiso   1.00
O965   O     0.49999   0.87156   0.68392   0.00000  Uiso   1.00
O966   O     0.50001   0.79511   0.81607   0.00000  Uiso   1.00
O967   O     0.50001   0.87156   0.81607   0.00000  Uiso   1.00
O968   O     0.49999   0.79511   0.68392   0.00000  Uiso   1.00
Zn969  Zn    0.50000   0.88437   0.75000   0.00000  Uiso   1.00
Zn970  Zn    0.50000   0.78229   0.75000   0.00000  Uiso   1.00
H971   H     0.49889   0.76019   0.88962   0.00000  Uiso   1.00
H972   H     0.50111   0.90647   0.61038   0.00000  Uiso   1.00
H973   H     0.50152   0.90646   0.88949   0.00000  Uiso   1.00
H974   H     0.49848   0.76021   0.61051   0.00000  Uiso   1.00
F975   F     0.50233   0.95661   0.95533   0.00000  Uiso   1.00
F976   F     0.49767   0.71006   0.54467   0.00000  Uiso   1.00
H977   H     0.50197   0.94802   0.54113   0.00000  Uiso   1.00
H978   H     0.49803   0.71865   0.95887   0.00000  Uiso   1.00
H979   H     0.37087   0.76094   0.76284   0.00000  Uiso   1.00
H980   H     0.62913   0.90573   0.73716   0.00000  Uiso   1.00
H981   H     0.62922   0.76095   0.76295   0.00000  Uiso   1.00
H982   H     0.37078   0.90572   0.73705   0.00000  Uiso   1.00
F983   F     0.55135   0.71345   0.80603   0.00000  Uiso   1.00
F984   F     0.44865   0.95322   0.69397   0.00000  Uiso   1.00
F985   F     0.44864   0.71338   0.69398   0.00000  Uiso   1.00
F986   F     0.55136   0.95328   0.80601   0.00000  Uiso   1.00
C987   C     0.75328   0.83333   0.74996   0.00000  Uiso   1.00
C988   C     0.91339   0.83334   0.75004   0.00000  Uiso   1.00
C989   C     0.83476   0.91604   0.52335   0.00000  Uiso   1.00
C990   C     0.83191   0.75063   0.97665   0.00000  Uiso   1.00
C991   C     0.68798   0.79261   0.75708   0.00000  Uiso   1.00
C992   C     0.97868   0.87406   0.74292   0.00000  Uiso   1.00
C993   C     0.97873   0.79262   0.75715   0.00000  Uiso   1.00
C994   C     0.68794   0.87405   0.74285   0.00000  Uiso   1.00
C995   C     0.95753   0.83334   0.75005   0.00000  Uiso   1.00
C996   C     0.70914   0.83333   0.74995   0.00000  Uiso   1.00
C997   C     0.85899   0.69068   0.77799   0.00000  Uiso   1.00
C998   C     0.80768   0.97599   0.72201   0.00000  Uiso   1.00
C999   C     0.80768   0.69065   0.72201   0.00000  Uiso   1.00
C1000  C     0.85899   0.97602   0.77799   0.00000  Uiso   1.00
C1001  C     0.83326   0.83332   0.66326   0.00000  Uiso   1.00
C1002  C     0.83340   0.83334   0.83674   0.00000  Uiso   1.00
C1003  C     0.83278   0.79212   0.90756   0.00000  Uiso   1.00
C1004  C     0.83388   0.87455   0.59244   0.00000  Uiso   1.00
C1005  C     0.83349   0.83338   0.88469   0.00000  Uiso   1.00
C1006  C     0.83317   0.83329   0.61531   0.00000  Uiso   1.00
C1007  C     0.83424   0.87467   0.90758   0.00000  Uiso   1.00
C1008  C     0.83243   0.79200   0.59242   0.00000  Uiso   1.00
C1009  C     0.83418   0.87508   0.95371   0.00000  Uiso   1.00
C1010  C     0.83248   0.79158   0.54629   0.00000  Uiso   1.00
C1011  C     0.83339   0.83340   0.97683   0.00000  Uiso   1.00
C1012  C     0.83328   0.83327   0.52317   0.00000  Uiso   1.00
C1013  C     0.83270   0.79182   0.95359   0.00000  Uiso   1.00
C1014  C     0.83396   0.87485   0.54640   0.00000  Uiso   1.00
C1015  C     0.83487   0.91627   0.97710   0.00000  Uiso   1.00
C1016  C     0.83179   0.75040   0.52290   0.00000  Uiso   1.00
N1017  N     0.83333   0.95240   0.75000   0.00000  Uiso   1.00
N1018  N     0.83333   0.71427   0.75000   0.00000  Uiso   1.00
O1019  O     0.77226   0.87154   0.74999   0.00000  Uiso   1.00
O1020  O     0.89441   0.79513   0.75000   0.00000  Uiso   1.00
O1021  O     0.89441   0.87154   0.75000   0.00000  Uiso   1.00
O1022  O     0.77226   0.79513   0.74999   0.00000  Uiso   1.00
O1023  O     0.83333   0.87156   0.68392   0.00000  Uiso   1.00
O1024  O     0.83334   0.79511   0.81607   0.00000  Uiso   1.00
O1025  O     0.83334   0.87156   0.81607   0.00000  Uiso   1.00
O1026  O     0.83333   0.79511   0.68392   0.00000  Uiso   1.00
Zn1027 Zn    0.83333   0.88437   0.75000   0.00000  Uiso   1.00
Zn1028 Zn    0.83333   0.78229   0.75000   0.00000  Uiso   1.00
H1029  H     0.83223   0.76019   0.88962   0.00000  Uiso   1.00
H1030  H     0.83444   0.90647   0.61038   0.00000  Uiso   1.00
H1031  H     0.83485   0.90646   0.88949   0.00000  Uiso   1.00
H1032  H     0.83182   0.76021   0.61051   0.00000  Uiso   1.00
F1033  F     0.83566   0.95661   0.95533   0.00000  Uiso   1.00
F1034  F     0.83100   0.71006   0.54467   0.00000  Uiso   1.00
H1035  H     0.83530   0.94802   0.54113   0.00000  Uiso   1.00
H1036  H     0.83136   0.71865   0.95887   0.00000  Uiso   1.00
H1037  H     0.70420   0.76094   0.76284   0.00000  Uiso   1.00
H1038  H     0.96247   0.90573   0.73716   0.00000  Uiso   1.00
H1039  H     0.96255   0.76095   0.76295   0.00000  Uiso   1.00
H1040  H     0.70412   0.90572   0.73705   0.00000  Uiso   1.00
F1041  F     0.88469   0.71345   0.80603   0.00000  Uiso   1.00
F1042  F     0.78198   0.95322   0.69397   0.00000  Uiso   1.00
F1043  F     0.78197   0.71338   0.69398   0.00000  Uiso   1.00
F1044  F     0.88470   0.95328   0.80601   0.00000  Uiso   1.00
loop_
_geom_bond_atom_site_label_1
_geom_bond_atom_site_label_2
_geom_bond_distance
_geom_bond_site_symmetry_2
_ccdc_geom_bond_type
C1     O33     1.282   .     A
C1     C10     1.420   .     S
C1     O36     1.282   .     A
C2     O35     1.282   .     A
C2     O34     1.282   .     A
C2     C9      1.420   .     S
C3     H49     1.084   .     S
C3     C28     1.399   .     A
C3     C551    1.389   1_554 S
C4     H50     1.084   .     S
C4     C27     1.399   .     A
C4     C552    1.389   .     S
C5     C10     1.397   .     A
C5     H51     1.084   .     S
C5     C123    1.370   1_455 S
C6     C9      1.397   .     A
C6     H52     1.084   .     S
C6     C66     1.370   .     S
C7     C9      1.397   .     A
C7     H53     1.084   .     S
C7     C63     1.370   .     S
C8     H54     1.084   .     S
C8     C10     1.397   .     A
C8     C122    1.370   1_455 S
C11    F55     1.355   .     S
C11    N32     1.366   .     A
C11    C362    1.416   1_545 S
C12    F56     1.355   .     S
C12    N31     1.366   .     A
C12    C187    1.416   .     S
C13    N32     1.366   .     A
C13    F57     1.355   .     S
C13    C360    1.416   1_545 S
C14    N31     1.366   .     A
C14    F58     1.355   .     S
C14    C185    1.416   .     S
C15    C20     1.440   .     S
C15    O40     1.287   .     A
C15    O37     1.287   .     A
C16    C19     1.440   .     S
C16    O39     1.287   .     A
C16    O38     1.287   .     A
C17    H43     1.085   .     S
C17    C27     1.383   .     A
C17    C19     1.398   .     A
C18    H44     1.085   .     S
C18    C28     1.383   .     A
C18    C20     1.398   .     A
C19    C21     1.398   .     A
C20    C22     1.398   .     A
C21    H45     1.084   .     S
C21    C23     1.385   .     A
C22    H46     1.084   .     S
C22    C24     1.385   .     A
C23    C29     1.403   .     A
C23    C25     1.413   .     A
C24    C30     1.403   .     A
C24    C26     1.413   .     A
C25    C27     1.411   .     A
C25    C548    1.392   .     S
C26    C28     1.411   .     A
C26    C547    1.392   1_554 S
C29    F47     1.358   .     S
C29    C525    1.389   .     S
C30    F48     1.358   .     S
C30    C526    1.389   1_554 S
N31    Zn41    2.006   .     S
N32    Zn42    2.006   .     S
O33    Zn41    2.000   .     S
O34    Zn42    2.000   .     S
O35    Zn41    2.001   .     S
O36    Zn42    2.001   .     S
O37    Zn41    2.020   .     S
O38    Zn42    2.020   .     S
O39    Zn41    2.020   .     S
O40    Zn42    2.020   .     S
C59    O91     1.282   .     A
C59    C68     1.420   .     S
C59    O94     1.282   .     A
C60    O93     1.282   .     A
C60    O92     1.282   .     A
C60    C67     1.420   .     S
C61    H107    1.084   .     S
C61    C86     1.399   .     A
C61    C609    1.389   1_554 S
C62    H108    1.084   .     S
C62    C85     1.399   .     A
C62    C610    1.389   .     S
C63    C68     1.397   .     A
C63    H109    1.084   .     S
C64    C67     1.397   .     A
C64    H110    1.084   .     S
C64    C124    1.370   .     S
C65    C67     1.397   .     A
C65    H111    1.084   .     S
C65    C121    1.370   .     S
C66    H112    1.084   .     S
C66    C68     1.397   .     A
C69    F113    1.355   .     S
C69    N90     1.366   .     A
C69    C420    1.416   1_545 S
C70    F114    1.355   .     S
C70    N89     1.366   .     A
C70    C245    1.416   .     S
C71    N90     1.366   .     A
C71    F115    1.355   .     S
C71    C418    1.416   1_545 S
C72    N89     1.366   .     A
C72    F116    1.355   .     S
C72    C243    1.416   .     S
C73    C78     1.440   .     S
C73    O98     1.287   .     A
C73    O95     1.287   .     A
C74    C77     1.440   .     S
C74    O97     1.287   .     A
C74    O96     1.287   .     A
C75    H101    1.085   .     S
C75    C85     1.383   .     A
C75    C77     1.398   .     A
C76    H102    1.085   .     S
C76    C86     1.383   .     A
C76    C78     1.398   .     A
C77    C79     1.398   .     A
C78    C80     1.398   .     A
C79    H103    1.084   .     S
C79    C81     1.385   .     A
C80    H104    1.084   .     S
C80    C82     1.385   .     A
C81    C87     1.403   .     A
C81    C83     1.413   .     A
C82    C88     1.403   .     A
C82    C84     1.413   .     A
C83    C85     1.411   .     A
C83    C606    1.392   .     S
C84    C86     1.411   .     A
C84    C605    1.392   1_554 S
C87    F105    1.358   .     S
C87    C583    1.389   .     S
C88    F106    1.358   .     S
C88    C584    1.389   1_554 S
N89    Zn99    2.006   .     S
N90    Zn100   2.006   .     S
O91    Zn99    2.000   .     S
O92    Zn100   2.000   .     S
O93    Zn99    2.001   .     S
O94    Zn100   2.001   .     S
O95    Zn99    2.020   .     S
O96    Zn100   2.020   .     S
O97    Zn99    2.020   .     S
O98    Zn100   2.020   .     S
C117   O149    1.282   .     A
C117   C126    1.420   .     S
C117   O152    1.282   .     A
C118   O151    1.282   .     A
C118   O150    1.282   .     A
C118   C125    1.420   .     S
C119   H165    1.084   .     S
C119   C144    1.399   .     A
C119   C667    1.389   1_554 S
C120   H166    1.084   .     S
C120   C143    1.399   .     A
C120   C668    1.389   .     S
C121   C126    1.397   .     A
C121   H167    1.084   .     S
C122   C125    1.397   .     A
C122   H168    1.084   .     S
C122   C8      1.370   1_655 S
C123   C125    1.397   .     A
C123   H169    1.084   .     S
C123   C5      1.370   1_655 S
C124   H170    1.084   .     S
C124   C126    1.397   .     A
C127   F171    1.355   .     S
C127   N148    1.366   .     A
C127   C478    1.416   1_545 S
C128   F172    1.355   .     S
C128   N147    1.366   .     A
C128   C303    1.416   .     S
C129   N148    1.366   .     A
C129   F173    1.355   .     S
C129   C476    1.416   1_545 S
C130   N147    1.366   .     A
C130   F174    1.355   .     S
C130   C301    1.416   .     S
C131   C136    1.440   .     S
C131   O156    1.287   .     A
C131   O153    1.287   .     A
C132   C135    1.440   .     S
C132   O155    1.287   .     A
C132   O154    1.287   .     A
C133   H159    1.085   .     S
C133   C143    1.383   .     A
C133   C135    1.398   .     A
C134   H160    1.085   .     S
C134   C144    1.383   .     A
C134   C136    1.398   .     A
C135   C137    1.398   .     A
C136   C138    1.398   .     A
C137   H161    1.084   .     S
C137   C139    1.385   .     A
C138   H162    1.084   .     S
C138   C140    1.385   .     A
C139   C145    1.403   .     A
C139   C141    1.413   .     A
C140   C146    1.403   .     A
C140   C142    1.413   .     A
C141   C143    1.411   .     A
C141   C664    1.392   .     S
C142   C144    1.411   .     A
C142   C663    1.392   1_554 S
C145   F163    1.358   .     S
C145   C641    1.389   .     S
C146   F164    1.358   .     S
C146   C642    1.389   1_554 S
N147   Zn157   2.006   .     S
N148   Zn158   2.006   .     S
O149   Zn157   2.000   .     S
O150   Zn158   2.000   .     S
O151   Zn157   2.001   .     S
O152   Zn158   2.001   .     S
O153   Zn157   2.020   .     S
O154   Zn158   2.020   .     S
O155   Zn157   2.020   .     S
O156   Zn158   2.020   .     S
C175   O207    1.282   .     A
C175   C184    1.420   .     S
C175   O210    1.282   .     A
C176   O209    1.282   .     A
C176   O208    1.282   .     A
C176   C183    1.420   .     S
C177   H223    1.084   .     S
C177   C202    1.399   .     A
C177   C725    1.389   1_554 S
C178   H224    1.084   .     S
C178   C201    1.399   .     A
C178   C726    1.389   .     S
C179   C184    1.397   .     A
C179   H225    1.084   .     S
C179   C297    1.370   1_455 S
C180   C183    1.397   .     A
C180   H226    1.084   .     S
C180   C240    1.370   .     S
C181   C183    1.397   .     A
C181   H227    1.084   .     S
C181   C237    1.370   .     S
C182   H228    1.084   .     S
C182   C184    1.397   .     A
C182   C296    1.370   1_455 S
C185   F229    1.355   .     S
C185   N206    1.366   .     A
C186   F230    1.355   .     S
C186   N205    1.366   .     A
C186   C361    1.416   .     S
C187   N206    1.366   .     A
C187   F231    1.355   .     S
C188   N205    1.366   .     A
C188   F232    1.355   .     S
C188   C359    1.416   .     S
C189   C194    1.440   .     S
C189   O214    1.287   .     A
C189   O211    1.287   .     A
C190   C193    1.440   .     S
C190   O213    1.287   .     A
C190   O212    1.287   .     A
C191   H217    1.085   .     S
C191   C201    1.383   .     A
C191   C193    1.398   .     A
C192   H218    1.085   .     S
C192   C202    1.383   .     A
C192   C194    1.398   .     A
C193   C195    1.398   .     A
C194   C196    1.398   .     A
C195   H219    1.084   .     S
C195   C197    1.385   .     A
C196   H220    1.084   .     S
C196   C198    1.385   .     A
C197   C203    1.403   .     A
C197   C199    1.413   .     A
C198   C204    1.403   .     A
C198   C200    1.413   .     A
C199   C201    1.411   .     A
C199   C722    1.392   .     S
C200   C202    1.411   .     A
C200   C721    1.392   1_554 S
C203   F221    1.358   .     S
C203   C699    1.389   .     S
C204   F222    1.358   .     S
C204   C700    1.389   1_554 S
N205   Zn215   2.006   .     S
N206   Zn216   2.006   .     S
O207   Zn215   2.000   .     S
O208   Zn216   2.000   .     S
O209   Zn215   2.001   .     S
O210   Zn216   2.001   .     S
O211   Zn215   2.020   .     S
O212   Zn216   2.020   .     S
O213   Zn215   2.020   .     S
O214   Zn216   2.020   .     S
C233   O265    1.282   .     A
C233   C242    1.420   .     S
C233   O268    1.282   .     A
C234   O267    1.282   .     A
C234   O266    1.282   .     A
C234   C241    1.420   .     S
C235   H281    1.084   .     S
C235   C260    1.399   .     A
C235   C783    1.389   1_554 S
C236   H282    1.084   .     S
C236   C259    1.399   .     A
C236   C784    1.389   .     S
C237   C242    1.397   .     A
C237   H283    1.084   .     S
C238   C241    1.397   .     A
C238   H284    1.084   .     S
C238   C298    1.370   .     S
C239   C241    1.397   .     A
C239   H285    1.084   .     S
C239   C295    1.370   .     S
C240   H286    1.084   .     S
C240   C242    1.397   .     A
C243   F287    1.355   .     S
C243   N264    1.366   .     A
C244   F288    1.355   .     S
C244   N263    1.366   .     A
C244   C419    1.416   .     S
C245   N264    1.366   .     A
C245   F289    1.355   .     S
C246   N263    1.366   .     A
C246   F290    1.355   .     S
C246   C417    1.416   .     S
C247   C252    1.440   .     S
C247   O272    1.287   .     A
C247   O269    1.287   .     A
C248   C251    1.440   .     S
C248   O271    1.287   .     A
C248   O270    1.287   .     A
C249   H275    1.085   .     S
C249   C259    1.383   .     A
C249   C251    1.398   .     A
C250   H276    1.085   .     S
C250   C260    1.383   .     A
C250   C252    1.398   .     A
C251   C253    1.398   .     A
C252   C254    1.398   .     A
C253   H277    1.084   .     S
C253   C255    1.385   .     A
C254   H278    1.084   .     S
C254   C256    1.385   .     A
C255   C261    1.403   .     A
C255   C257    1.413   .     A
C256   C262    1.403   .     A
C256   C258    1.413   .     A
C257   C259    1.411   .     A
C257   C780    1.392   .     S
C258   C260    1.411   .     A
C258   C779    1.392   1_554 S
C261   F279    1.358   .     S
C261   C757    1.389   .     S
C262   F280    1.358   .     S
C262   C758    1.389   1_554 S
N263   Zn273   2.006   .     S
N264   Zn274   2.006   .     S
O265   Zn273   2.000   .     S
O266   Zn274   2.000   .     S
O267   Zn273   2.001   .     S
O268   Zn274   2.001   .     S
O269   Zn273   2.020   .     S
O270   Zn274   2.020   .     S
O271   Zn273   2.020   .     S
O272   Zn274   2.020   .     S
C291   O323    1.282   .     A
C291   C300    1.420   .     S
C291   O326    1.282   .     A
C292   O325    1.282   .     A
C292   O324    1.282   .     A
C292   C299    1.420   .     S
C293   H339    1.084   .     S
C293   C318    1.399   .     A
C293   C841    1.389   1_554 S
C294   H340    1.084   .     S
C294   C317    1.399   .     A
C294   C842    1.389   .     S
C295   C300    1.397   .     A
C295   H341    1.084   .     S
C296   C299    1.397   .     A
C296   H342    1.084   .     S
C296   C182    1.370   1_655 S
C297   C299    1.397   .     A
C297   H343    1.084   .     S
C297   C179    1.370   1_655 S
C298   H344    1.084   .     S
C298   C300    1.397   .     A
C301   F345    1.355   .     S
C301   N322    1.366   .     A
C302   F346    1.355   .     S
C302   N321    1.366   .     A
C302   C477    1.416   .     S
C303   N322    1.366   .     A
C303   F347    1.355   .     S
C304   N321    1.366   .     A
C304   F348    1.355   .     S
C304   C475    1.416   .     S
C305   C310    1.440   .     S
C305   O330    1.287   .     A
C305   O327    1.287   .     A
C306   C309    1.440   .     S
C306   O329    1.287   .     A
C306   O328    1.287   .     A
C307   H333    1.085   .     S
C307   C317    1.383   .     A
C307   C309    1.398   .     A
C308   H334    1.085   .     S
C308   C318    1.383   .     A
C308   C310    1.398   .     A
C309   C311    1.398   .     A
C310   C312    1.398   .     A
C311   H335    1.084   .     S
C311   C313    1.385   .     A
C312   H336    1.084   .     S
C312   C314    1.385   .     A
C313   C319    1.403   .     A
C313   C315    1.413   .     A
C314   C320    1.403   .     A
C314   C316    1.413   .     A
C315   C317    1.411   .     A
C315   C838    1.392   .     S
C316   C318    1.411   .     A
C316   C837    1.392   1_554 S
C319   F337    1.358   .     S
C319   C815    1.389   .     S
C320   F338    1.358   .     S
C320   C816    1.389   1_554 S
N321   Zn331   2.006   .     S
N322   Zn332   2.006   .     S
O323   Zn331   2.000   .     S
O324   Zn332   2.000   .     S
O325   Zn331   2.001   .     S
O326   Zn332   2.001   .     S
O327   Zn331   2.020   .     S
O328   Zn332   2.020   .     S
O329   Zn331   2.020   .     S
O330   Zn332   2.020   .     S
C349   O381    1.282   .     A
C349   C358    1.420   .     S
C349   O384    1.282   .     A
C350   O383    1.282   .     A
C350   O382    1.282   .     A
C350   C357    1.420   .     S
C351   H397    1.084   .     S
C351   C376    1.399   .     A
C351   C899    1.389   1_554 S
C352   H398    1.084   .     S
C352   C375    1.399   .     A
C352   C900    1.389   .     S
C353   C358    1.397   .     A
C353   H399    1.084   .     S
C353   C471    1.370   1_455 S
C354   C357    1.397   .     A
C354   H400    1.084   .     S
C354   C414    1.370   .     S
C355   C357    1.397   .     A
C355   H401    1.084   .     S
C355   C411    1.370   .     S
C356   H402    1.084   .     S
C356   C358    1.397   .     A
C356   C470    1.370   1_455 S
C359   F403    1.355   .     S
C359   N380    1.366   .     A
C360   F404    1.355   .     S
C360   N379    1.366   .     A
C360   C13     1.416   1_565 S
C361   N380    1.366   .     A
C361   F405    1.355   .     S
C362   N379    1.366   .     A
C362   F406    1.355   .     S
C362   C11     1.416   1_565 S
C363   C368    1.440   .     S
C363   O388    1.287   .     A
C363   O385    1.287   .     A
C364   C367    1.440   .     S
C364   O387    1.287   .     A
C364   O386    1.287   .     A
C365   H391    1.085   .     S
C365   C375    1.383   .     A
C365   C367    1.398   .     A
C366   H392    1.085   .     S
C366   C376    1.383   .     A
C366   C368    1.398   .     A
C367   C369    1.398   .     A
C368   C370    1.398   .     A
C369   H393    1.084   .     S
C369   C371    1.385   .     A
C370   H394    1.084   .     S
C370   C372    1.385   .     A
C371   C377    1.403   .     A
C371   C373    1.413   .     A
C372   C378    1.403   .     A
C372   C374    1.413   .     A
C373   C375    1.411   .     A
C373   C896    1.392   .     S
C374   C376    1.411   .     A
C374   C895    1.392   1_554 S
C377   F395    1.358   .     S
C377   C873    1.389   .     S
C378   F396    1.358   .     S
C378   C874    1.389   1_554 S
N379   Zn389   2.006   .     S
N380   Zn390   2.006   .     S
O381   Zn389   2.000   .     S
O382   Zn390   2.000   .     S
O383   Zn389   2.001   .     S
O384   Zn390   2.001   .     S
O385   Zn389   2.020   .     S
O386   Zn390   2.020   .     S
O387   Zn389   2.020   .     S
O388   Zn390   2.020   .     S
C407   O439    1.282   .     A
C407   C416    1.420   .     S
C407   O442    1.282   .     A
C408   O441    1.282   .     A
C408   O440    1.282   .     A
C408   C415    1.420   .     S
C409   H455    1.084   .     S
C409   C434    1.399   .     A
C409   C957    1.389   1_554 S
C410   H456    1.084   .     S
C410   C433    1.399   .     A
C410   C958    1.389   .     S
C411   C416    1.397   .     A
C411   H457    1.084   .     S
C412   C415    1.397   .     A
C412   H458    1.084   .     S
C412   C472    1.370   .     S
C413   C415    1.397   .     A
C413   H459    1.084   .     S
C413   C469    1.370   .     S
C414   H460    1.084   .     S
C414   C416    1.397   .     A
C417   F461    1.355   .     S
C417   N438    1.366   .     A
C418   F462    1.355   .     S
C418   N437    1.366   .     A
C418   C71     1.416   1_565 S
C419   N438    1.366   .     A
C419   F463    1.355   .     S
C420   N437    1.366   .     A
C420   F464    1.355   .     S
C420   C69     1.416   1_565 S
C421   C426    1.440   .     S
C421   O446    1.287   .     A
C421   O443    1.287   .     A
C422   C425    1.440   .     S
C422   O445    1.287   .     A
C422   O444    1.287   .     A
C423   H449    1.085   .     S
C423   C433    1.383   .     A
C423   C425    1.398   .     A
C424   H450    1.085   .     S
C424   C434    1.383   .     A
C424   C426    1.398   .     A
C425   C427    1.398   .     A
C426   C428    1.398   .     A
C427   H451    1.084   .     S
C427   C429    1.385   .     A
C428   H452    1.084   .     S
C428   C430    1.385   .     A
C429   C435    1.403   .     A
C429   C431    1.413   .     A
C430   C436    1.403   .     A
C430   C432    1.413   .     A
C431   C433    1.411   .     A
C431   C954    1.392   .     S
C432   C434    1.411   .     A
C432   C953    1.392   1_554 S
C435   F453    1.358   .     S
C435   C931    1.389   .     S
C436   F454    1.358   .     S
C436   C932    1.389   1_554 S
N437   Zn447   2.006   .     S
N438   Zn448   2.006   .     S
O439   Zn447   2.000   .     S
O440   Zn448   2.000   .     S
O441   Zn447   2.001   .     S
O442   Zn448   2.001   .     S
O443   Zn447   2.020   .     S
O444   Zn448   2.020   .     S
O445   Zn447   2.020   .     S
O446   Zn448   2.020   .     S
C465   O497    1.282   .     A
C465   C474    1.420   .     S
C465   O500    1.282   .     A
C466   O499    1.282   .     A
C466   O498    1.282   .     A
C466   C473    1.420   .     S
C467   H513    1.084   .     S
C467   C492    1.399   .     A
C467   C1015   1.389   1_554 S
C468   H514    1.084   .     S
C468   C491    1.399   .     A
C468   C1016   1.389   .     S
C469   C474    1.397   .     A
C469   H515    1.084   .     S
C470   C473    1.397   .     A
C470   H516    1.084   .     S
C470   C356    1.370   1_655 S
C471   C473    1.397   .     A
C471   H517    1.084   .     S
C471   C353    1.370   1_655 S
C472   H518    1.084   .     S
C472   C474    1.397   .     A
C475   F519    1.355   .     S
C475   N496    1.366   .     A
C476   F520    1.355   .     S
C476   N495    1.366   .     A
C476   C129    1.416   1_565 S
C477   N496    1.366   .     A
C477   F521    1.355   .     S
C478   N495    1.366   .     A
C478   F522    1.355   .     S
C478   C127    1.416   1_565 S
C479   C484    1.440   .     S
C479   O504    1.287   .     A
C479   O501    1.287   .     A
C480   C483    1.440   .     S
C480   O503    1.287   .     A
C480   O502    1.287   .     A
C481   H507    1.085   .     S
C481   C491    1.383   .     A
C481   C483    1.398   .     A
C482   H508    1.085   .     S
C482   C492    1.383   .     A
C482   C484    1.398   .     A
C483   C485    1.398   .     A
C484   C486    1.398   .     A
C485   H509    1.084   .     S
C485   C487    1.385   .     A
C486   H510    1.084   .     S
C486   C488    1.385   .     A
C487   C493    1.403   .     A
C487   C489    1.413   .     A
C488   C494    1.403   .     A
C488   C490    1.413   .     A
C489   C491    1.411   .     A
C489   C1012   1.392   .     S
C490   C492    1.411   .     A
C490   C1011   1.392   1_554 S
C493   F511    1.358   .     S
C493   C989    1.389   .     S
C494   F512    1.358   .     S
C494   C990    1.389   1_554 S
N495   Zn505   2.006   .     S
N496   Zn506   2.006   .     S
O497   Zn505   2.000   .     S
O498   Zn506   2.000   .     S
O499   Zn505   2.001   .     S
O500   Zn506   2.001   .     S
O501   Zn505   2.020   .     S
O502   Zn506   2.020   .     S
O503   Zn505   2.020   .     S
O504   Zn506   2.020   .     S
C523   O555    1.282   .     A
C523   C532    1.420   .     S
C523   O558    1.282   .     A
C524   O557    1.282   .     A
C524   O556    1.282   .     A
C524   C531    1.420   .     S
C525   H571    1.084   .     S
C525   C550    1.399   .     A
C526   H572    1.084   .     S
C526   C549    1.399   .     A
C526   C30     1.389   1_556 S
C527   C532    1.397   .     A
C527   H573    1.084   .     S
C527   C645    1.370   1_455 S
C528   C531    1.397   .     A
C528   H574    1.084   .     S
C528   C588    1.370   .     S
C529   C531    1.397   .     A
C529   H575    1.084   .     S
C529   C585    1.370   .     S
C530   H576    1.084   .     S
C530   C532    1.397   .     A
C530   C644    1.370   1_455 S
C533   F577    1.355   .     S
C533   N554    1.366   .     A
C533   C884    1.416   1_545 S
C534   F578    1.355   .     S
C534   N553    1.366   .     A
C534   C709    1.416   .     S
C535   N554    1.366   .     A
C535   F579    1.355   .     S
C535   C882    1.416   1_545 S
C536   N553    1.366   .     A
C536   F580    1.355   .     S
C536   C707    1.416   .     S
C537   C542    1.440   .     S
C537   O562    1.287   .     A
C537   O559    1.287   .     A
C538   C541    1.440   .     S
C538   O561    1.287   .     A
C538   O560    1.287   .     A
C539   H565    1.085   .     S
C539   C549    1.383   .     A
C539   C541    1.398   .     A
C540   H566    1.085   .     S
C540   C550    1.383   .     A
C540   C542    1.398   .     A
C541   C543    1.398   .     A
C542   C544    1.398   .     A
C543   H567    1.084   .     S
C543   C545    1.385   .     A
C544   H568    1.084   .     S
C544   C546    1.385   .     A
C545   C551    1.403   .     A
C545   C547    1.413   .     A
C546   C552    1.403   .     A
C546   C548    1.413   .     A
C547   C549    1.411   .     A
C547   C26     1.392   1_556 S
C548   C550    1.411   .     A
C551   F569    1.358   .     S
C551   C3      1.389   1_556 S
C552   F570    1.358   .     S
N553   Zn563   2.006   .     S
N554   Zn564   2.006   .     S
O555   Zn563   2.000   .     S
O556   Zn564   2.000   .     S
O557   Zn563   2.001   .     S
O558   Zn564   2.001   .     S
O559   Zn563   2.020   .     S
O560   Zn564   2.020   .     S
O561   Zn563   2.020   .     S
O562   Zn564   2.020   .     S
C581   O613    1.282   .     A
C581   C590    1.420   .     S
C581   O616    1.282   .     A
C582   O615    1.282   .     A
C582   O614    1.282   .     A
C582   C589    1.420   .     S
C583   H629    1.084   .     S
C583   C608    1.399   .     A
C584   H630    1.084   .     S
C584   C607    1.399   .     A
C584   C88     1.389   1_556 S
C585   C590    1.397   .     A
C585   H631    1.084   .     S
C586   C589    1.397   .     A
C586   H632    1.084   .     S
C586   C646    1.370   .     S
C587   C589    1.397   .     A
C587   H633    1.084   .     S
C587   C643    1.370   .     S
C588   H634    1.084   .     S
C588   C590    1.397   .     A
C591   F635    1.355   .     S
C591   N612    1.366   .     A
C591   C942    1.416   1_545 S
C592   F636    1.355   .     S
C592   N611    1.366   .     A
C592   C767    1.416   .     S
C593   N612    1.366   .     A
C593   F637    1.355   .     S
C593   C940    1.416   1_545 S
C594   N611    1.366   .     A
C594   F638    1.355   .     S
C594   C765    1.416   .     S
C595   C600    1.440   .     S
C595   O620    1.287   .     A
C595   O617    1.287   .     A
C596   C599    1.440   .     S
C596   O619    1.287   .     A
C596   O618    1.287   .     A
C597   H623    1.085   .     S
C597   C607    1.383   .     A
C597   C599    1.398   .     A
C598   H624    1.085   .     S
C598   C608    1.383   .     A
C598   C600    1.398   .     A
C599   C601    1.398   .     A
C600   C602    1.398   .     A
C601   H625    1.084   .     S
C601   C603    1.385   .     A
C602   H626    1.084   .     S
C602   C604    1.385   .     A
C603   C609    1.403   .     A
C603   C605    1.413   .     A
C604   C610    1.403   .     A
C604   C606    1.413   .     A
C605   C607    1.411   .     A
C605   C84     1.392   1_556 S
C606   C608    1.411   .     A
C609   F627    1.358   .     S
C609   C61     1.389   1_556 S
C610   F628    1.358   .     S
N611   Zn621   2.006   .     S
N612   Zn622   2.006   .     S
O613   Zn621   2.000   .     S
O614   Zn622   2.000   .     S
O615   Zn621   2.001   .     S
O616   Zn622   2.001   .     S
O617   Zn621   2.020   .     S
O618   Zn622   2.020   .     S
O619   Zn621   2.020   .     S
O620   Zn622   2.020   .     S
C639   O671    1.282   .     A
C639   C648    1.420   .     S
C639   O674    1.282   .     A
C640   O673    1.282   .     A
C640   O672    1.282   .     A
C640   C647    1.420   .     S
C641   H687    1.084   .     S
C641   C666    1.399   .     A
C642   H688    1.084   .     S
C642   C665    1.399   .     A
C642   C146    1.389   1_556 S
C643   C648    1.397   .     A
C643   H689    1.084   .     S
C644   C647    1.397   .     A
C644   H690    1.084   .     S
C644   C530    1.370   1_655 S
C645   C647    1.397   .     A
C645   H691    1.084   .     S
C645   C527    1.370   1_655 S
C646   H692    1.084   .     S
C646   C648    1.397   .     A
C649   F693    1.355   .     S
C649   N670    1.366   .     A
C649   C1000   1.416   1_545 S
C650   F694    1.355   .     S
C650   N669    1.366   .     A
C650   C825    1.416   .     S
C651   N670    1.366   .     A
C651   F695    1.355   .     S
C651   C998    1.416   1_545 S
C652   N669    1.366   .     A
C652   F696    1.355   .     S
C652   C823    1.416   .     S
C653   C658    1.440   .     S
C653   O678    1.287   .     A
C653   O675    1.287   .     A
C654   C657    1.440   .     S
C654   O677    1.287   .     A
C654   O676    1.287   .     A
C655   H681    1.085   .     S
C655   C665    1.383   .     A
C655   C657    1.398   .     A
C656   H682    1.085   .     S
C656   C666    1.383   .     A
C656   C658    1.398   .     A
C657   C659    1.398   .     A
C658   C660    1.398   .     A
C659   H683    1.084   .     S
C659   C661    1.385   .     A
C660   H684    1.084   .     S
C660   C662    1.385   .     A
C661   C667    1.403   .     A
C661   C663    1.413   .     A
C662   C668    1.403   .     A
C662   C664    1.413   .     A
C663   C665    1.411   .     A
C663   C142    1.392   1_556 S
C664   C666    1.411   .     A
C667   F685    1.358   .     S
C667   C119    1.389   1_556 S
C668   F686    1.358   .     S
N669   Zn679   2.006   .     S
N670   Zn680   2.006   .     S
O671   Zn679   2.000   .     S
O672   Zn680   2.000   .     S
O673   Zn679   2.001   .     S
O674   Zn680   2.001   .     S
O675   Zn679   2.020   .     S
O676   Zn680   2.020   .     S
O677   Zn679   2.020   .     S
O678   Zn680   2.020   .     S
C697   O729    1.282   .     A
C697   C706    1.420   .     S
C697   O732    1.282   .     A
C698   O731    1.282   .     A
C698   O730    1.282   .     A
C698   C705    1.420   .     S
C699   H745    1.084   .     S
C699   C724    1.399   .     A
C700   H746    1.084   .     S
C700   C723    1.399   .     A
C700   C204    1.389   1_556 S
C701   C706    1.397   .     A
C701   H747    1.084   .     S
C701   C819    1.370   1_455 S
C702   C705    1.397   .     A
C702   H748    1.084   .     S
C702   C762    1.370   .     S
C703   C705    1.397   .     A
C703   H749    1.084   .     S
C703   C759    1.370   .     S
C704   H750    1.084   .     S
C704   C706    1.397   .     A
C704   C818    1.370   1_455 S
C707   F751    1.355   .     S
C707   N728    1.366   .     A
C708   F752    1.355   .     S
C708   N727    1.366   .     A
C708   C883    1.416   .     S
C709   N728    1.366   .     A
C709   F753    1.355   .     S
C710   N727    1.366   .     A
C710   F754    1.355   .     S
C710   C881    1.416   .     S
C711   C716    1.440   .     S
C711   O736    1.287   .     A
C711   O733    1.287   .     A
C712   C715    1.440   .     S
C712   O735    1.287   .     A
C712   O734    1.287   .     A
C713   H739    1.085   .     S
C713   C723    1.383   .     A
C713   C715    1.398   .     A
C714   H740    1.085   .     S
C714   C724    1.383   .     A
C714   C716    1.398   .     A
C715   C717    1.398   .     A
C716   C718    1.398   .     A
C717   H741    1.084   .     S
C717   C719    1.385   .     A
C718   H742    1.084   .     S
C718   C720    1.385   .     A
C719   C725    1.403   .     A
C719   C721    1.413   .     A
C720   C726    1.403   .     A
C720   C722    1.413   .     A
C721   C723    1.411   .     A
C721   C200    1.392   1_556 S
C722   C724    1.411   .     A
C725   F743    1.358   .     S
C725   C177    1.389   1_556 S
C726   F744    1.358   .     S
N727   Zn737   2.006   .     S
N728   Zn738   2.006   .     S
O729   Zn737   2.000   .     S
O730   Zn738   2.000   .     S
O731   Zn737   2.001   .     S
O732   Zn738   2.001   .     S
O733   Zn737   2.020   .     S
O734   Zn738   2.020   .     S
O735   Zn737   2.020   .     S
O736   Zn738   2.020   .     S
C755   O787    1.282   .     A
C755   C764    1.420   .     S
C755   O790    1.282   .     A
C756   O789    1.282   .     A
C756   O788    1.282   .     A
C756   C763    1.420   .     S
C757   H803    1.084   .     S
C757   C782    1.399   .     A
C758   H804    1.084   .     S
C758   C781    1.399   .     A
C758   C262    1.389   1_556 S
C759   C764    1.397   .     A
C759   H805    1.084   .     S
C760   C763    1.397   .     A
C760   H806    1.084   .     S
C760   C820    1.370   .     S
C761   C763    1.397   .     A
C761   H807    1.084   .     S
C761   C817    1.370   .     S
C762   H808    1.084   .     S
C762   C764    1.397   .     A
C765   F809    1.355   .     S
C765   N786    1.366   .     A
C766   F810    1.355   .     S
C766   N785    1.366   .     A
C766   C941    1.416   .     S
C767   N786    1.366   .     A
C767   F811    1.355   .     S
C768   N785    1.366   .     A
C768   F812    1.355   .     S
C768   C939    1.416   .     S
C769   C774    1.440   .     S
C769   O794    1.287   .     A
C769   O791    1.287   .     A
C770   C773    1.440   .     S
C770   O793    1.287   .     A
C770   O792    1.287   .     A
C771   H797    1.085   .     S
C771   C781    1.383   .     A
C771   C773    1.398   .     A
C772   H798    1.085   .     S
C772   C782    1.383   .     A
C772   C774    1.398   .     A
C773   C775    1.398   .     A
C774   C776    1.398   .     A
C775   H799    1.084   .     S
C775   C777    1.385   .     A
C776   H800    1.084   .     S
C776   C778    1.385   .     A
C777   C783    1.403   .     A
C777   C779    1.413   .     A
C778   C784    1.403   .     A
C778   C780    1.413   .     A
C779   C781    1.411   .     A
C779   C258    1.392   1_556 S
C780   C782    1.411   .     A
C783   F801    1.358   .     S
C783   C235    1.389   1_556 S
C784   F802    1.358   .     S
N785   Zn795   2.006   .     S
N786   Zn796   2.006   .     S
O787   Zn795   2.000   .     S
O788   Zn796   2.000   .     S
O789   Zn795   2.001   .     S
O790   Zn796   2.001   .     S
O791   Zn795   2.020   .     S
O792   Zn796   2.020   .     S
O793   Zn795   2.020   .     S
O794   Zn796   2.020   .     S
C813   O845    1.282   .     A
C813   C822    1.420   .     S
C813   O848    1.282   .     A
C814   O847    1.282   .     A
C814   O846    1.282   .     A
C814   C821    1.420   .     S
C815   H861    1.084   .     S
C815   C840    1.399   .     A
C816   H862    1.084   .     S
C816   C839    1.399   .     A
C816   C320    1.389   1_556 S
C817   C822    1.397   .     A
C817   H863    1.084   .     S
C818   C821    1.397   .     A
C818   H864    1.084   .     S
C818   C704    1.370   1_655 S
C819   C821    1.397   .     A
C819   H865    1.084   .     S
C819   C701    1.370   1_655 S
C820   H866    1.084   .     S
C820   C822    1.397   .     A
C823   F867    1.355   .     S
C823   N844    1.366   .     A
C824   F868    1.355   .     S
C824   N843    1.366   .     A
C824   C999    1.416   .     S
C825   N844    1.366   .     A
C825   F869    1.355   .     S
C826   N843    1.366   .     A
C826   F870    1.355   .     S
C826   C997    1.416   .     S
C827   C832    1.440   .     S
C827   O852    1.287   .     A
C827   O849    1.287   .     A
C828   C831    1.440   .     S
C828   O851    1.287   .     A
C828   O850    1.287   .     A
C829   H855    1.085   .     S
C829   C839    1.383   .     A
C829   C831    1.398   .     A
C830   H856    1.085   .     S
C830   C840    1.383   .     A
C830   C832    1.398   .     A
C831   C833    1.398   .     A
C832   C834    1.398   .     A
C833   H857    1.084   .     S
C833   C835    1.385   .     A
C834   H858    1.084   .     S
C834   C836    1.385   .     A
C835   C841    1.403   .     A
C835   C837    1.413   .     A
C836   C842    1.403   .     A
C836   C838    1.413   .     A
C837   C839    1.411   .     A
C837   C316    1.392   1_556 S
C838   C840    1.411   .     A
C841   F859    1.358   .     S
C841   C293    1.389   1_556 S
C842   F860    1.358   .     S
N843   Zn853   2.006   .     S
N844   Zn854   2.006   .     S
O845   Zn853   2.000   .     S
O846   Zn854   2.000   .     S
O847   Zn853   2.001   .     S
O848   Zn854   2.001   .     S
O849   Zn853   2.020   .     S
O850   Zn854   2.020   .     S
O851   Zn853   2.020   .     S
O852   Zn854   2.020   .     S
C871   O903    1.282   .     A
C871   C880    1.420   .     S
C871   O906    1.282   .     A
C872   O905    1.282   .     A
C872   O904    1.282   .     A
C872   C879    1.420   .     S
C873   H919    1.084   .     S
C873   C898    1.399   .     A
C874   H920    1.084   .     S
C874   C897    1.399   .     A
C874   C378    1.389   1_556 S
C875   C880    1.397   .     A
C875   H921    1.084   .     S
C875   C993    1.370   1_455 S
C876   C879    1.397   .     A
C876   H922    1.084   .     S
C876   C936    1.370   .     S
C877   C879    1.397   .     A
C877   H923    1.084   .     S
C877   C933    1.370   .     S
C878   H924    1.084   .     S
C878   C880    1.397   .     A
C878   C992    1.370   1_455 S
C881   F925    1.355   .     S
C881   N902    1.366   .     A
C882   F926    1.355   .     S
C882   N901    1.366   .     A
C882   C535    1.416   1_565 S
C883   N902    1.366   .     A
C883   F927    1.355   .     S
C884   N901    1.366   .     A
C884   F928    1.355   .     S
C884   C533    1.416   1_565 S
C885   C890    1.440   .     S
C885   O910    1.287   .     A
C885   O907    1.287   .     A
C886   C889    1.440   .     S
C886   O909    1.287   .     A
C886   O908    1.287   .     A
C887   H913    1.085   .     S
C887   C897    1.383   .     A
C887   C889    1.398   .     A
C888   H914    1.085   .     S
C888   C898    1.383   .     A
C888   C890    1.398   .     A
C889   C891    1.398   .     A
C890   C892    1.398   .     A
C891   H915    1.084   .     S
C891   C893    1.385   .     A
C892   H916    1.084   .     S
C892   C894    1.385   .     A
C893   C899    1.403   .     A
C893   C895    1.413   .     A
C894   C900    1.403   .     A
C894   C896    1.413   .     A
C895   C897    1.411   .     A
C895   C374    1.392   1_556 S
C896   C898    1.411   .     A
C899   F917    1.358   .     S
C899   C351    1.389   1_556 S
C900   F918    1.358   .     S
N901   Zn911   2.006   .     S
N902   Zn912   2.006   .     S
O903   Zn911   2.000   .     S
O904   Zn912   2.000   .     S
O905   Zn911   2.001   .     S
O906   Zn912   2.001   .     S
O907   Zn911   2.020   .     S
O908   Zn912   2.020   .     S
O909   Zn911   2.020   .     S
O910   Zn912   2.020   .     S
C929   O961    1.282   .     A
C929   C938    1.420   .     S
C929   O964    1.282   .     A
C930   O963    1.282   .     A
C930   O962    1.282   .     A
C930   C937    1.420   .     S
C931   H977    1.084   .     S
C931   C956    1.399   .     A
C932   H978    1.084   .     S
C932   C955    1.399   .     A
C932   C436    1.389   1_556 S
C933   C938    1.397   .     A
C933   H979    1.084   .     S
C934   C937    1.397   .     A
C934   H980    1.084   .     S
C934   C994    1.370   .     S
C935   C937    1.397   .     A
C935   H981    1.084   .     S
C935   C991    1.370   .     S
C936   H982    1.084   .     S
C936   C938    1.397   .     A
C939   F983    1.355   .     S
C939   N960    1.366   .     A
C940   F984    1.355   .     S
C940   N959    1.366   .     A
C940   C593    1.416   1_565 S
C941   N960    1.366   .     A
C941   F985    1.355   .     S
C942   N959    1.366   .     A
C942   F986    1.355   .     S
C942   C591    1.416   1_565 S
C943   C948    1.440   .     S
C943   O968    1.287   .     A
C943   O965    1.287   .     A
C944   C947    1.440   .     S
C944   O967    1.287   .     A
C944   O966    1.287   .     A
C945   H971    1.085   .     S
C945   C955    1.383   .     A
C945   C947    1.398   .     A
C946   H972    1.085   .     S
C946   C956    1.383   .     A
C946   C948    1.398   .     A
C947   C949    1.398   .     A
C948   C950    1.398   .     A
C949   H973    1.084   .     S
C949   C951    1.385   .     A
C950   H974    1.084   .     S
C950   C952    1.385   .     A
C951   C957    1.403   .     A
C951   C953    1.413   .     A
C952   C958    1.403   .     A
C952   C954    1.413   .     A
C953   C955    1.411   .     A
C953   C432    1.392   1_556 S
C954   C956    1.411   .     A
C957   F975    1.358   .     S
C957   C409    1.389   1_556 S
C958   F976    1.358   .     S
N959   Zn969   2.006   .     S
N960   Zn970   2.006   .     S
O961   Zn969   2.000   .     S
O962   Zn970   2.000   .     S
O963   Zn969   2.001   .     S
O964   Zn970   2.001   .     S
O965   Zn969   2.020   .     S
O966   Zn970   2.020   .     S
O967   Zn969   2.020   .     S
O968   Zn970   2.020   .     S
C987   O1019   1.282   .     A
C987   C996    1.420   .     S
C987   O1022   1.282   .     A
C988   O1021   1.282   .     A
C988   O1020   1.282   .     A
C988   C995    1.420   .     S
C989   H1035   1.084   .     S
C989   C1014   1.399   .     A
C990   H1036   1.084   .     S
C990   C1013   1.399   .     A
C990   C494    1.389   1_556 S
C991   C996    1.397   .     A
C991   H1037   1.084   .     S
C992   C995    1.397   .     A
C992   H1038   1.084   .     S
C992   C878    1.370   1_655 S
C993   C995    1.397   .     A
C993   H1039   1.084   .     S
C993   C875    1.370   1_655 S
C994   H1040   1.084   .     S
C994   C996    1.397   .     A
C997   F1041   1.355   .     S
C997   N1018   1.366   .     A
C998   F1042   1.355   .     S
C998   N1017   1.366   .     A
C998   C651    1.416   1_565 S
C999   N1018   1.366   .     A
C999   F1043   1.355   .     S
C1000  N1017   1.366   .     A
C1000  F1044   1.355   .     S
C1000  C649    1.416   1_565 S
C1001  C1006   1.440   .     S
C1001  O1026   1.287   .     A
C1001  O1023   1.287   .     A
C1002  C1005   1.440   .     S
C1002  O1025   1.287   .     A
C1002  O1024   1.287   .     A
C1003  H1029   1.085   .     S
C1003  C1013   1.383   .     A
C1003  C1005   1.398   .     A
C1004  H1030   1.085   .     S
C1004  C1014   1.383   .     A
C1004  C1006   1.398   .     A
C1005  C1007   1.398   .     A
C1006  C1008   1.398   .     A
C1007  H1031   1.084   .     S
C1007  C1009   1.385   .     A
C1008  H1032   1.084   .     S
C1008  C1010   1.385   .     A
C1009  C1015   1.403   .     A
C1009  C1011   1.413   .     A
C1010  C1016   1.403   .     A
C1010  C1012   1.413   .     A
C1011  C1013   1.411   .     A
C1011  C490    1.392   1_556 S
C1012  C1014   1.411   .     A
C1015  F1033   1.358   .     S
C1015  C467    1.389   1_556 S
C1016  F1034   1.358   .     S
N1017  Zn1027  2.006   .     S
N1018  Zn1028  2.006   .     S
O1019  Zn1027  2.000   .     S
O1020  Zn1028  2.000   .     S
O1021  Zn1027  2.001   .     S
O1022  Zn1028  2.001   .     S
O1023  Zn1027  2.020   .     S
O1024  Zn1028  2.020   .     S
O1025  Zn1027  2.020   .     S
O1026  Zn1028  2.020   .     S
