data_str_m3_o5_o17_pcu_sym.47
_audit_creation_date              2020-01-03
_audit_creation_method            'Materials Studio'
_symmetry_space_group_name_H-M    'P1'
_symmetry_Int_Tables_number       1
_symmetry_cell_setting            triclinic
loop_
_symmetry_equiv_pos_as_xyz
  x,y,z
_cell_length_a                    29.8684
_cell_length_b                    26.8681
_cell_length_c                    24.2267
_cell_angle_alpha                 90.4829
_cell_angle_beta                  90.0039
_cell_angle_gamma                 90.0034
loop_
_atom_site_label
_atom_site_type_symbol
_atom_site_fract_x
_atom_site_fract_y
_atom_site_fract_z
_atom_site_U_iso_or_equiv
_atom_site_adp_type
_atom_site_occupancy
O1     O     0.25000   0.09512   0.21228   0.00000  Uiso   1.00
O2     O     0.25000   0.23822   0.12105   0.00000  Uiso   1.00
O3     O     0.25000   0.23822   0.21228   0.00000  Uiso   1.00
O4     O     0.25000   0.09512   0.12105   0.00000  Uiso   1.00
C5     C     0.25003   0.07261   0.16652   0.00000  Uiso   1.00
C6     C     0.25003   0.26072   0.16681   0.00000  Uiso   1.00
O7     O     0.18392   0.16667   0.21230   0.00000  Uiso   1.00
O8     O     0.31607   0.16667   0.12104   0.00000  Uiso   1.00
O9     O     0.31607   0.16667   0.21230   0.00000  Uiso   1.00
O10    O     0.18392   0.16667   0.12104   0.00000  Uiso   1.00
C11    C     0.16317   0.16668   0.16667   0.00000  Uiso   1.00
C12    C     0.33680   0.16666   0.16667   0.00000  Uiso   1.00
Zn13   Zn    0.25000   0.16667   0.22759   0.00000  Uiso   1.00
Zn14   Zn    0.25000   0.16667   0.10574   0.00000  Uiso   1.00
N15    N     0.25000   0.16667   0.02455   0.00000  Uiso   1.00
N16    N     0.25000   0.16667   0.30879   0.00000  Uiso   1.00
C17    C     0.40749   0.21167   0.15911   0.00000  Uiso   1.00
C18    C     0.09251   0.12410   0.14786   0.00000  Uiso   1.00
C19    C     0.40749   0.12166   0.17426   0.00000  Uiso   1.00
C20    C     0.09252   0.20926   0.18550   0.00000  Uiso   1.00
C21    C     0.38450   0.16666   0.16668   0.00000  Uiso   1.00
C22    C     0.11542   0.16668   0.16667   0.00000  Uiso   1.00
C23    C     0.45347   0.12112   0.16532   0.00000  Uiso   1.00
C24    C     0.04640   0.21131   0.17793   0.00000  Uiso   1.00
C25    C     0.45347   0.21222   0.16808   0.00000  Uiso   1.00
C26    C     0.04640   0.12204   0.15546   0.00000  Uiso   1.00
C27    C     0.47672   0.16667   0.16670   0.00000  Uiso   1.00
C28    C     0.02321   0.16667   0.16670   0.00000  Uiso   1.00
C29    C     0.47675   0.07637   0.15762   0.00000  Uiso   1.00
C30    C     0.02292   0.25637   0.18260   0.00000  Uiso   1.00
C31    C     0.47675   0.25697   0.17578   0.00000  Uiso   1.00
C32    C     0.02292   0.07697   0.15080   0.00000  Uiso   1.00
C33    C     0.25006   0.02170   0.16646   0.00000  Uiso   1.00
C34    C     0.25006   0.31163   0.16688   0.00000  Uiso   1.00
H35    H     0.45911   0.04131   0.15513   0.00000  Uiso   1.00
H36    H     0.04023   0.29118   0.19015   0.00000  Uiso   1.00
H37    H     0.45911   0.29202   0.17826   0.00000  Uiso   1.00
H38    H     0.04023   0.04217   0.14323   0.00000  Uiso   1.00
O39    O     0.38547   0.25488   0.14385   0.00000  Uiso   1.00
C40    C     0.37945   0.25476   0.08560   0.00000  Uiso   1.00
H41    H     0.35337   0.28284   0.07589   0.00000  Uiso   1.00
H42    H     0.36677   0.21854   0.06955   0.00000  Uiso   1.00
C43    C     0.42245   0.26841   0.05426   0.00000  Uiso   1.00
H44    H     0.43349   0.30629   0.06680   0.00000  Uiso   1.00
H45    H     0.44969   0.24185   0.06398   0.00000  Uiso   1.00
C46    C     0.41512   0.26607   0.32522   0.00000  Uiso   1.00
H47    H     0.40651   0.22750   0.31211   0.00000  Uiso   1.00
H48    H     0.44636   0.27714   0.30374   0.00000  Uiso   1.00
H49    H     0.38761   0.29140   0.31281   0.00000  Uiso   1.00
O50    O     0.11525   0.08364   0.12554   0.00000  Uiso   1.00
C51    C     0.12154   0.09085   0.06799   0.00000  Uiso   1.00
H52    H     0.15170   0.06932   0.05551   0.00000  Uiso   1.00
H53    H     0.12830   0.13035   0.05703   0.00000  Uiso   1.00
C54    C     0.08143   0.07199   0.03416   0.00000  Uiso   1.00
H55    H     0.07395   0.03286   0.04522   0.00000  Uiso   1.00
H56    H     0.05151   0.09513   0.04340   0.00000  Uiso   1.00
C57    C     0.09066   0.07499   0.30558   0.00000  Uiso   1.00
H58    H     0.09782   0.11402   0.29360   0.00000  Uiso   1.00
H59    H     0.06079   0.06197   0.28225   0.00000  Uiso   1.00
H60    H     0.11964   0.05109   0.29423   0.00000  Uiso   1.00
O61    O     0.38546   0.07845   0.18951   0.00000  Uiso   1.00
C62    C     0.37943   0.07857   0.24775   0.00000  Uiso   1.00
H63    H     0.35335   0.05048   0.25745   0.00000  Uiso   1.00
H64    H     0.36675   0.11478   0.26380   0.00000  Uiso   1.00
C65    C     0.42243   0.06492   0.27911   0.00000  Uiso   1.00
H66    H     0.43347   0.02705   0.26657   0.00000  Uiso   1.00
H67    H     0.44966   0.09149   0.26940   0.00000  Uiso   1.00
C68    C     0.41508   0.06725   0.00815   0.00000  Uiso   1.00
H69    H     0.40646   0.10581   0.02125   0.00000  Uiso   1.00
H70    H     0.44633   0.05620   0.02965   0.00000  Uiso   1.00
H71    H     0.38758   0.04191   0.02055   0.00000  Uiso   1.00
O72    O     0.11527   0.24974   0.20775   0.00000  Uiso   1.00
C73    C     0.12162   0.24260   0.26530   0.00000  Uiso   1.00
H74    H     0.15172   0.26425   0.27775   0.00000  Uiso   1.00
H75    H     0.12849   0.20313   0.27628   0.00000  Uiso   1.00
C76    C     0.08147   0.26132   0.29915   0.00000  Uiso   1.00
H77    H     0.07381   0.30040   0.28801   0.00000  Uiso   1.00
H78    H     0.05164   0.23799   0.29002   0.00000  Uiso   1.00
C79    C     0.09080   0.25850   0.02772   0.00000  Uiso   1.00
H80    H     0.09834   0.21956   0.03976   0.00000  Uiso   1.00
H81    H     0.06085   0.27122   0.05108   0.00000  Uiso   1.00
H82    H     0.11959   0.28275   0.03898   0.00000  Uiso   1.00
O83    O     0.75000   0.09512   0.21228   0.00000  Uiso   1.00
O84    O     0.75000   0.23822   0.12105   0.00000  Uiso   1.00
O85    O     0.75000   0.23822   0.21228   0.00000  Uiso   1.00
O86    O     0.75000   0.09512   0.12105   0.00000  Uiso   1.00
C87    C     0.75003   0.07261   0.16652   0.00000  Uiso   1.00
C88    C     0.75003   0.26072   0.16681   0.00000  Uiso   1.00
O89    O     0.68392   0.16667   0.21230   0.00000  Uiso   1.00
O90    O     0.81607   0.16667   0.12104   0.00000  Uiso   1.00
O91    O     0.81607   0.16667   0.21230   0.00000  Uiso   1.00
O92    O     0.68392   0.16667   0.12104   0.00000  Uiso   1.00
C93    C     0.66317   0.16668   0.16667   0.00000  Uiso   1.00
C94    C     0.83680   0.16666   0.16667   0.00000  Uiso   1.00
Zn95   Zn    0.75000   0.16667   0.22759   0.00000  Uiso   1.00
Zn96   Zn    0.75000   0.16667   0.10574   0.00000  Uiso   1.00
N97    N     0.75000   0.16667   0.02455   0.00000  Uiso   1.00
N98    N     0.75000   0.16667   0.30879   0.00000  Uiso   1.00
C99    C     0.90749   0.21167   0.15911   0.00000  Uiso   1.00
C100   C     0.59251   0.12410   0.14786   0.00000  Uiso   1.00
C101   C     0.90749   0.12166   0.17426   0.00000  Uiso   1.00
C102   C     0.59252   0.20926   0.18550   0.00000  Uiso   1.00
C103   C     0.88450   0.16666   0.16668   0.00000  Uiso   1.00
C104   C     0.61542   0.16668   0.16667   0.00000  Uiso   1.00
C105   C     0.95347   0.12112   0.16532   0.00000  Uiso   1.00
C106   C     0.54640   0.21131   0.17793   0.00000  Uiso   1.00
C107   C     0.95347   0.21222   0.16808   0.00000  Uiso   1.00
C108   C     0.54640   0.12204   0.15546   0.00000  Uiso   1.00
C109   C     0.97672   0.16667   0.16670   0.00000  Uiso   1.00
C110   C     0.52321   0.16667   0.16670   0.00000  Uiso   1.00
C111   C     0.97675   0.07637   0.15762   0.00000  Uiso   1.00
C112   C     0.52292   0.25637   0.18260   0.00000  Uiso   1.00
C113   C     0.97675   0.25697   0.17578   0.00000  Uiso   1.00
C114   C     0.52292   0.07697   0.15080   0.00000  Uiso   1.00
C115   C     0.75006   0.02170   0.16646   0.00000  Uiso   1.00
C116   C     0.75006   0.31163   0.16688   0.00000  Uiso   1.00
H117   H     0.95911   0.04131   0.15513   0.00000  Uiso   1.00
H118   H     0.54023   0.29118   0.19015   0.00000  Uiso   1.00
H119   H     0.95911   0.29202   0.17826   0.00000  Uiso   1.00
H120   H     0.54023   0.04217   0.14323   0.00000  Uiso   1.00
O121   O     0.88547   0.25488   0.14385   0.00000  Uiso   1.00
C122   C     0.87945   0.25476   0.08560   0.00000  Uiso   1.00
H123   H     0.85337   0.28284   0.07589   0.00000  Uiso   1.00
H124   H     0.86677   0.21854   0.06955   0.00000  Uiso   1.00
C125   C     0.92245   0.26841   0.05426   0.00000  Uiso   1.00
H126   H     0.93349   0.30629   0.06680   0.00000  Uiso   1.00
H127   H     0.94969   0.24185   0.06398   0.00000  Uiso   1.00
C128   C     0.91512   0.26607   0.32522   0.00000  Uiso   1.00
H129   H     0.90651   0.22750   0.31211   0.00000  Uiso   1.00
H130   H     0.94636   0.27714   0.30374   0.00000  Uiso   1.00
H131   H     0.88761   0.29140   0.31281   0.00000  Uiso   1.00
O132   O     0.61525   0.08364   0.12554   0.00000  Uiso   1.00
C133   C     0.62154   0.09085   0.06799   0.00000  Uiso   1.00
H134   H     0.65170   0.06932   0.05551   0.00000  Uiso   1.00
H135   H     0.62830   0.13035   0.05703   0.00000  Uiso   1.00
C136   C     0.58143   0.07199   0.03416   0.00000  Uiso   1.00
H137   H     0.57395   0.03286   0.04522   0.00000  Uiso   1.00
H138   H     0.55151   0.09513   0.04340   0.00000  Uiso   1.00
C139   C     0.59066   0.07499   0.30558   0.00000  Uiso   1.00
H140   H     0.59782   0.11402   0.29360   0.00000  Uiso   1.00
H141   H     0.56079   0.06197   0.28225   0.00000  Uiso   1.00
H142   H     0.61964   0.05109   0.29423   0.00000  Uiso   1.00
O143   O     0.88546   0.07845   0.18951   0.00000  Uiso   1.00
C144   C     0.87943   0.07857   0.24775   0.00000  Uiso   1.00
H145   H     0.85335   0.05048   0.25745   0.00000  Uiso   1.00
H146   H     0.86675   0.11478   0.26380   0.00000  Uiso   1.00
C147   C     0.92243   0.06492   0.27911   0.00000  Uiso   1.00
H148   H     0.93347   0.02705   0.26657   0.00000  Uiso   1.00
H149   H     0.94966   0.09149   0.26940   0.00000  Uiso   1.00
C150   C     0.91508   0.06725   0.00815   0.00000  Uiso   1.00
H151   H     0.90646   0.10581   0.02125   0.00000  Uiso   1.00
H152   H     0.94633   0.05620   0.02965   0.00000  Uiso   1.00
H153   H     0.88758   0.04191   0.02055   0.00000  Uiso   1.00
O154   O     0.61527   0.24974   0.20775   0.00000  Uiso   1.00
C155   C     0.62162   0.24260   0.26530   0.00000  Uiso   1.00
H156   H     0.65172   0.26425   0.27775   0.00000  Uiso   1.00
H157   H     0.62849   0.20313   0.27628   0.00000  Uiso   1.00
C158   C     0.58147   0.26132   0.29915   0.00000  Uiso   1.00
H159   H     0.57381   0.30040   0.28801   0.00000  Uiso   1.00
H160   H     0.55164   0.23799   0.29002   0.00000  Uiso   1.00
C161   C     0.59080   0.25850   0.02772   0.00000  Uiso   1.00
H162   H     0.59834   0.21956   0.03976   0.00000  Uiso   1.00
H163   H     0.56085   0.27122   0.05108   0.00000  Uiso   1.00
H164   H     0.61959   0.28275   0.03898   0.00000  Uiso   1.00
O165   O     0.25000   0.42845   0.21228   0.00000  Uiso   1.00
O166   O     0.25000   0.57155   0.12105   0.00000  Uiso   1.00
O167   O     0.25000   0.57155   0.21228   0.00000  Uiso   1.00
O168   O     0.25000   0.42845   0.12105   0.00000  Uiso   1.00
C169   C     0.25003   0.40594   0.16652   0.00000  Uiso   1.00
C170   C     0.25003   0.59406   0.16681   0.00000  Uiso   1.00
O171   O     0.18392   0.50000   0.21230   0.00000  Uiso   1.00
O172   O     0.31607   0.50000   0.12104   0.00000  Uiso   1.00
O173   O     0.31607   0.50000   0.21230   0.00000  Uiso   1.00
O174   O     0.18392   0.50000   0.12104   0.00000  Uiso   1.00
C175   C     0.16317   0.50001   0.16667   0.00000  Uiso   1.00
C176   C     0.33680   0.50000   0.16667   0.00000  Uiso   1.00
Zn177  Zn    0.25000   0.50000   0.22759   0.00000  Uiso   1.00
Zn178  Zn    0.25000   0.50000   0.10574   0.00000  Uiso   1.00
N179   N     0.25000   0.50000   0.02455   0.00000  Uiso   1.00
N180   N     0.25000   0.50000   0.30879   0.00000  Uiso   1.00
C181   C     0.40749   0.54500   0.15911   0.00000  Uiso   1.00
C182   C     0.09251   0.45743   0.14786   0.00000  Uiso   1.00
C183   C     0.40749   0.45500   0.17426   0.00000  Uiso   1.00
C184   C     0.09252   0.54259   0.18550   0.00000  Uiso   1.00
C185   C     0.38450   0.50000   0.16668   0.00000  Uiso   1.00
C186   C     0.11542   0.50001   0.16667   0.00000  Uiso   1.00
C187   C     0.45347   0.45445   0.16532   0.00000  Uiso   1.00
C188   C     0.04640   0.54464   0.17793   0.00000  Uiso   1.00
C189   C     0.45347   0.54555   0.16808   0.00000  Uiso   1.00
C190   C     0.04640   0.45537   0.15546   0.00000  Uiso   1.00
C191   C     0.47672   0.50000   0.16670   0.00000  Uiso   1.00
C192   C     0.02321   0.50000   0.16670   0.00000  Uiso   1.00
C193   C     0.47675   0.40970   0.15762   0.00000  Uiso   1.00
C194   C     0.02292   0.58971   0.18260   0.00000  Uiso   1.00
C195   C     0.47675   0.59030   0.17578   0.00000  Uiso   1.00
C196   C     0.02292   0.41030   0.15080   0.00000  Uiso   1.00
C197   C     0.25006   0.35504   0.16646   0.00000  Uiso   1.00
C198   C     0.25006   0.64496   0.16688   0.00000  Uiso   1.00
H199   H     0.45911   0.37465   0.15513   0.00000  Uiso   1.00
H200   H     0.04023   0.62451   0.19015   0.00000  Uiso   1.00
H201   H     0.45911   0.62536   0.17826   0.00000  Uiso   1.00
H202   H     0.04023   0.37550   0.14323   0.00000  Uiso   1.00
O203   O     0.38547   0.58821   0.14385   0.00000  Uiso   1.00
C204   C     0.37945   0.58809   0.08560   0.00000  Uiso   1.00
H205   H     0.35337   0.61617   0.07589   0.00000  Uiso   1.00
H206   H     0.36677   0.55187   0.06955   0.00000  Uiso   1.00
C207   C     0.42245   0.60175   0.05426   0.00000  Uiso   1.00
H208   H     0.43349   0.63962   0.06680   0.00000  Uiso   1.00
H209   H     0.44969   0.57519   0.06398   0.00000  Uiso   1.00
C210   C     0.41512   0.59940   0.32522   0.00000  Uiso   1.00
H211   H     0.40651   0.56084   0.31211   0.00000  Uiso   1.00
H212   H     0.44636   0.61048   0.30374   0.00000  Uiso   1.00
H213   H     0.38761   0.62473   0.31281   0.00000  Uiso   1.00
O214   O     0.11525   0.41698   0.12554   0.00000  Uiso   1.00
C215   C     0.12154   0.42418   0.06799   0.00000  Uiso   1.00
H216   H     0.15170   0.40265   0.05551   0.00000  Uiso   1.00
H217   H     0.12830   0.46368   0.05703   0.00000  Uiso   1.00
C218   C     0.08143   0.40533   0.03416   0.00000  Uiso   1.00
H219   H     0.07395   0.36619   0.04522   0.00000  Uiso   1.00
H220   H     0.05151   0.42847   0.04340   0.00000  Uiso   1.00
C221   C     0.09066   0.40832   0.30558   0.00000  Uiso   1.00
H222   H     0.09782   0.44735   0.29360   0.00000  Uiso   1.00
H223   H     0.06079   0.39530   0.28225   0.00000  Uiso   1.00
H224   H     0.11964   0.38443   0.29423   0.00000  Uiso   1.00
O225   O     0.38546   0.41179   0.18951   0.00000  Uiso   1.00
C226   C     0.37943   0.41190   0.24775   0.00000  Uiso   1.00
H227   H     0.35335   0.38381   0.25745   0.00000  Uiso   1.00
H228   H     0.36675   0.44812   0.26380   0.00000  Uiso   1.00
C229   C     0.42243   0.39825   0.27911   0.00000  Uiso   1.00
H230   H     0.43347   0.36038   0.26657   0.00000  Uiso   1.00
H231   H     0.44966   0.42482   0.26940   0.00000  Uiso   1.00
C232   C     0.41508   0.40059   0.00815   0.00000  Uiso   1.00
H233   H     0.40646   0.43915   0.02125   0.00000  Uiso   1.00
H234   H     0.44633   0.38953   0.02965   0.00000  Uiso   1.00
H235   H     0.38758   0.37524   0.02055   0.00000  Uiso   1.00
O236   O     0.11527   0.58308   0.20775   0.00000  Uiso   1.00
C237   C     0.12162   0.57593   0.26530   0.00000  Uiso   1.00
H238   H     0.15172   0.59758   0.27775   0.00000  Uiso   1.00
H239   H     0.12849   0.53646   0.27628   0.00000  Uiso   1.00
C240   C     0.08147   0.59465   0.29915   0.00000  Uiso   1.00
H241   H     0.07381   0.63373   0.28801   0.00000  Uiso   1.00
H242   H     0.05164   0.57132   0.29002   0.00000  Uiso   1.00
C243   C     0.09080   0.59183   0.02772   0.00000  Uiso   1.00
H244   H     0.09834   0.55289   0.03976   0.00000  Uiso   1.00
H245   H     0.06085   0.60455   0.05108   0.00000  Uiso   1.00
H246   H     0.11959   0.61608   0.03898   0.00000  Uiso   1.00
O247   O     0.75000   0.42845   0.21228   0.00000  Uiso   1.00
O248   O     0.75000   0.57155   0.12105   0.00000  Uiso   1.00
O249   O     0.75000   0.57155   0.21228   0.00000  Uiso   1.00
O250   O     0.75000   0.42845   0.12105   0.00000  Uiso   1.00
C251   C     0.75003   0.40594   0.16652   0.00000  Uiso   1.00
C252   C     0.75003   0.59406   0.16681   0.00000  Uiso   1.00
O253   O     0.68392   0.50000   0.21230   0.00000  Uiso   1.00
O254   O     0.81607   0.50000   0.12104   0.00000  Uiso   1.00
O255   O     0.81607   0.50000   0.21230   0.00000  Uiso   1.00
O256   O     0.68392   0.50000   0.12104   0.00000  Uiso   1.00
C257   C     0.66317   0.50001   0.16667   0.00000  Uiso   1.00
C258   C     0.83680   0.50000   0.16667   0.00000  Uiso   1.00
Zn259  Zn    0.75000   0.50000   0.22759   0.00000  Uiso   1.00
Zn260  Zn    0.75000   0.50000   0.10574   0.00000  Uiso   1.00
N261   N     0.75000   0.50000   0.02455   0.00000  Uiso   1.00
N262   N     0.75000   0.50000   0.30879   0.00000  Uiso   1.00
C263   C     0.90749   0.54500   0.15911   0.00000  Uiso   1.00
C264   C     0.59251   0.45743   0.14786   0.00000  Uiso   1.00
C265   C     0.90749   0.45500   0.17426   0.00000  Uiso   1.00
C266   C     0.59252   0.54259   0.18550   0.00000  Uiso   1.00
C267   C     0.88450   0.50000   0.16668   0.00000  Uiso   1.00
C268   C     0.61542   0.50001   0.16667   0.00000  Uiso   1.00
C269   C     0.95347   0.45445   0.16532   0.00000  Uiso   1.00
C270   C     0.54640   0.54464   0.17793   0.00000  Uiso   1.00
C271   C     0.95347   0.54555   0.16808   0.00000  Uiso   1.00
C272   C     0.54640   0.45537   0.15546   0.00000  Uiso   1.00
C273   C     0.97672   0.50000   0.16670   0.00000  Uiso   1.00
C274   C     0.52321   0.50000   0.16670   0.00000  Uiso   1.00
C275   C     0.97675   0.40970   0.15762   0.00000  Uiso   1.00
C276   C     0.52292   0.58971   0.18260   0.00000  Uiso   1.00
C277   C     0.97675   0.59030   0.17578   0.00000  Uiso   1.00
C278   C     0.52292   0.41030   0.15080   0.00000  Uiso   1.00
C279   C     0.75006   0.35504   0.16646   0.00000  Uiso   1.00
C280   C     0.75006   0.64496   0.16688   0.00000  Uiso   1.00
H281   H     0.95911   0.37465   0.15513   0.00000  Uiso   1.00
H282   H     0.54023   0.62451   0.19015   0.00000  Uiso   1.00
H283   H     0.95911   0.62536   0.17826   0.00000  Uiso   1.00
H284   H     0.54023   0.37550   0.14323   0.00000  Uiso   1.00
O285   O     0.88547   0.58821   0.14385   0.00000  Uiso   1.00
C286   C     0.87945   0.58809   0.08560   0.00000  Uiso   1.00
H287   H     0.85337   0.61617   0.07589   0.00000  Uiso   1.00
H288   H     0.86677   0.55187   0.06955   0.00000  Uiso   1.00
C289   C     0.92245   0.60175   0.05426   0.00000  Uiso   1.00
H290   H     0.93349   0.63962   0.06680   0.00000  Uiso   1.00
H291   H     0.94969   0.57519   0.06398   0.00000  Uiso   1.00
C292   C     0.91512   0.59940   0.32522   0.00000  Uiso   1.00
H293   H     0.90651   0.56084   0.31211   0.00000  Uiso   1.00
H294   H     0.94636   0.61048   0.30374   0.00000  Uiso   1.00
H295   H     0.88761   0.62473   0.31281   0.00000  Uiso   1.00
O296   O     0.61525   0.41698   0.12554   0.00000  Uiso   1.00
C297   C     0.62154   0.42418   0.06799   0.00000  Uiso   1.00
H298   H     0.65170   0.40265   0.05551   0.00000  Uiso   1.00
H299   H     0.62830   0.46368   0.05703   0.00000  Uiso   1.00
C300   C     0.58143   0.40533   0.03416   0.00000  Uiso   1.00
H301   H     0.57395   0.36619   0.04522   0.00000  Uiso   1.00
H302   H     0.55151   0.42847   0.04340   0.00000  Uiso   1.00
C303   C     0.59066   0.40832   0.30558   0.00000  Uiso   1.00
H304   H     0.59782   0.44735   0.29360   0.00000  Uiso   1.00
H305   H     0.56079   0.39530   0.28225   0.00000  Uiso   1.00
H306   H     0.61964   0.38443   0.29423   0.00000  Uiso   1.00
O307   O     0.88546   0.41179   0.18951   0.00000  Uiso   1.00
C308   C     0.87943   0.41190   0.24775   0.00000  Uiso   1.00
H309   H     0.85335   0.38381   0.25745   0.00000  Uiso   1.00
H310   H     0.86675   0.44812   0.26380   0.00000  Uiso   1.00
C311   C     0.92243   0.39825   0.27911   0.00000  Uiso   1.00
H312   H     0.93347   0.36038   0.26657   0.00000  Uiso   1.00
H313   H     0.94966   0.42482   0.26940   0.00000  Uiso   1.00
C314   C     0.91508   0.40059   0.00815   0.00000  Uiso   1.00
H315   H     0.90646   0.43915   0.02125   0.00000  Uiso   1.00
H316   H     0.94633   0.38953   0.02965   0.00000  Uiso   1.00
H317   H     0.88758   0.37524   0.02055   0.00000  Uiso   1.00
O318   O     0.61527   0.58308   0.20775   0.00000  Uiso   1.00
C319   C     0.62162   0.57593   0.26530   0.00000  Uiso   1.00
H320   H     0.65172   0.59758   0.27775   0.00000  Uiso   1.00
H321   H     0.62849   0.53646   0.27628   0.00000  Uiso   1.00
C322   C     0.58147   0.59465   0.29915   0.00000  Uiso   1.00
H323   H     0.57381   0.63373   0.28801   0.00000  Uiso   1.00
H324   H     0.55164   0.57132   0.29002   0.00000  Uiso   1.00
C325   C     0.59080   0.59183   0.02772   0.00000  Uiso   1.00
H326   H     0.59834   0.55289   0.03976   0.00000  Uiso   1.00
H327   H     0.56085   0.60455   0.05108   0.00000  Uiso   1.00
H328   H     0.61959   0.61608   0.03898   0.00000  Uiso   1.00
O329   O     0.25000   0.76178   0.21228   0.00000  Uiso   1.00
O330   O     0.25000   0.90488   0.12105   0.00000  Uiso   1.00
O331   O     0.25000   0.90488   0.21228   0.00000  Uiso   1.00
O332   O     0.25000   0.76178   0.12105   0.00000  Uiso   1.00
C333   C     0.25003   0.73927   0.16652   0.00000  Uiso   1.00
C334   C     0.25003   0.92739   0.16681   0.00000  Uiso   1.00
O335   O     0.18392   0.83333   0.21230   0.00000  Uiso   1.00
O336   O     0.31607   0.83333   0.12104   0.00000  Uiso   1.00
O337   O     0.31607   0.83333   0.21230   0.00000  Uiso   1.00
O338   O     0.18392   0.83333   0.12104   0.00000  Uiso   1.00
C339   C     0.16317   0.83334   0.16667   0.00000  Uiso   1.00
C340   C     0.33680   0.83333   0.16667   0.00000  Uiso   1.00
Zn341  Zn    0.25000   0.83333   0.22759   0.00000  Uiso   1.00
Zn342  Zn    0.25000   0.83333   0.10574   0.00000  Uiso   1.00
N343   N     0.25000   0.83333   0.02455   0.00000  Uiso   1.00
N344   N     0.25000   0.83333   0.30879   0.00000  Uiso   1.00
C345   C     0.40749   0.87833   0.15911   0.00000  Uiso   1.00
C346   C     0.09251   0.79077   0.14786   0.00000  Uiso   1.00
C347   C     0.40749   0.78833   0.17426   0.00000  Uiso   1.00
C348   C     0.09252   0.87593   0.18550   0.00000  Uiso   1.00
C349   C     0.38450   0.83333   0.16668   0.00000  Uiso   1.00
C350   C     0.11542   0.83335   0.16667   0.00000  Uiso   1.00
C351   C     0.45347   0.78779   0.16532   0.00000  Uiso   1.00
C352   C     0.04640   0.87797   0.17793   0.00000  Uiso   1.00
C353   C     0.45347   0.87888   0.16808   0.00000  Uiso   1.00
C354   C     0.04640   0.78871   0.15546   0.00000  Uiso   1.00
C355   C     0.47672   0.83334   0.16670   0.00000  Uiso   1.00
C356   C     0.02321   0.83334   0.16670   0.00000  Uiso   1.00
C357   C     0.47675   0.74303   0.15762   0.00000  Uiso   1.00
C358   C     0.02292   0.92304   0.18260   0.00000  Uiso   1.00
C359   C     0.47675   0.92364   0.17578   0.00000  Uiso   1.00
C360   C     0.02292   0.74364   0.15080   0.00000  Uiso   1.00
C361   C     0.25006   0.68837   0.16646   0.00000  Uiso   1.00
C362   C     0.25006   0.97830   0.16688   0.00000  Uiso   1.00
H363   H     0.45911   0.70798   0.15513   0.00000  Uiso   1.00
H364   H     0.04023   0.95785   0.19015   0.00000  Uiso   1.00
H365   H     0.45911   0.95869   0.17826   0.00000  Uiso   1.00
H366   H     0.04023   0.70884   0.14323   0.00000  Uiso   1.00
O367   O     0.38547   0.92154   0.14385   0.00000  Uiso   1.00
C368   C     0.37945   0.92143   0.08560   0.00000  Uiso   1.00
H369   H     0.35337   0.94951   0.07589   0.00000  Uiso   1.00
H370   H     0.36677   0.88521   0.06955   0.00000  Uiso   1.00
C371   C     0.42245   0.93508   0.05426   0.00000  Uiso   1.00
H372   H     0.43349   0.97296   0.06680   0.00000  Uiso   1.00
H373   H     0.44969   0.90852   0.06398   0.00000  Uiso   1.00
C374   C     0.41512   0.93274   0.32522   0.00000  Uiso   1.00
H375   H     0.40651   0.89417   0.31211   0.00000  Uiso   1.00
H376   H     0.44636   0.94381   0.30374   0.00000  Uiso   1.00
H377   H     0.38761   0.95806   0.31281   0.00000  Uiso   1.00
O378   O     0.11525   0.75031   0.12554   0.00000  Uiso   1.00
C379   C     0.12154   0.75752   0.06799   0.00000  Uiso   1.00
H380   H     0.15170   0.73599   0.05551   0.00000  Uiso   1.00
H381   H     0.12830   0.79702   0.05703   0.00000  Uiso   1.00
C382   C     0.08143   0.73866   0.03416   0.00000  Uiso   1.00
H383   H     0.07395   0.69952   0.04522   0.00000  Uiso   1.00
H384   H     0.05151   0.76180   0.04340   0.00000  Uiso   1.00
C385   C     0.09066   0.74166   0.30558   0.00000  Uiso   1.00
H386   H     0.09782   0.78069   0.29360   0.00000  Uiso   1.00
H387   H     0.06079   0.72863   0.28225   0.00000  Uiso   1.00
H388   H     0.11964   0.71776   0.29423   0.00000  Uiso   1.00
O389   O     0.38546   0.74512   0.18951   0.00000  Uiso   1.00
C390   C     0.37943   0.74523   0.24775   0.00000  Uiso   1.00
H391   H     0.35335   0.71715   0.25745   0.00000  Uiso   1.00
H392   H     0.36675   0.78145   0.26380   0.00000  Uiso   1.00
C393   C     0.42243   0.73159   0.27911   0.00000  Uiso   1.00
H394   H     0.43347   0.69371   0.26657   0.00000  Uiso   1.00
H395   H     0.44966   0.75815   0.26940   0.00000  Uiso   1.00
C396   C     0.41508   0.73392   0.00815   0.00000  Uiso   1.00
H397   H     0.40646   0.77248   0.02125   0.00000  Uiso   1.00
H398   H     0.44633   0.72286   0.02965   0.00000  Uiso   1.00
H399   H     0.38758   0.70858   0.02055   0.00000  Uiso   1.00
O400   O     0.11527   0.91641   0.20775   0.00000  Uiso   1.00
C401   C     0.12162   0.90926   0.26530   0.00000  Uiso   1.00
H402   H     0.15172   0.93091   0.27775   0.00000  Uiso   1.00
H403   H     0.12849   0.86979   0.27628   0.00000  Uiso   1.00
C404   C     0.08147   0.92798   0.29915   0.00000  Uiso   1.00
H405   H     0.07381   0.96706   0.28801   0.00000  Uiso   1.00
H406   H     0.05164   0.90465   0.29002   0.00000  Uiso   1.00
C407   C     0.09080   0.92516   0.02772   0.00000  Uiso   1.00
H408   H     0.09834   0.88623   0.03976   0.00000  Uiso   1.00
H409   H     0.06085   0.93789   0.05108   0.00000  Uiso   1.00
H410   H     0.11959   0.94941   0.03898   0.00000  Uiso   1.00
O411   O     0.75000   0.76178   0.21228   0.00000  Uiso   1.00
O412   O     0.75000   0.90488   0.12105   0.00000  Uiso   1.00
O413   O     0.75000   0.90488   0.21228   0.00000  Uiso   1.00
O414   O     0.75000   0.76178   0.12105   0.00000  Uiso   1.00
C415   C     0.75003   0.73927   0.16652   0.00000  Uiso   1.00
C416   C     0.75003   0.92739   0.16681   0.00000  Uiso   1.00
O417   O     0.68392   0.83333   0.21230   0.00000  Uiso   1.00
O418   O     0.81607   0.83333   0.12104   0.00000  Uiso   1.00
O419   O     0.81607   0.83333   0.21230   0.00000  Uiso   1.00
O420   O     0.68392   0.83333   0.12104   0.00000  Uiso   1.00
C421   C     0.66317   0.83334   0.16667   0.00000  Uiso   1.00
C422   C     0.83680   0.83333   0.16667   0.00000  Uiso   1.00
Zn423  Zn    0.75000   0.83333   0.22759   0.00000  Uiso   1.00
Zn424  Zn    0.75000   0.83333   0.10574   0.00000  Uiso   1.00
N425   N     0.75000   0.83333   0.02455   0.00000  Uiso   1.00
N426   N     0.75000   0.83333   0.30879   0.00000  Uiso   1.00
C427   C     0.90749   0.87833   0.15911   0.00000  Uiso   1.00
C428   C     0.59251   0.79077   0.14786   0.00000  Uiso   1.00
C429   C     0.90749   0.78833   0.17426   0.00000  Uiso   1.00
C430   C     0.59252   0.87593   0.18550   0.00000  Uiso   1.00
C431   C     0.88450   0.83333   0.16668   0.00000  Uiso   1.00
C432   C     0.61542   0.83335   0.16667   0.00000  Uiso   1.00
C433   C     0.95347   0.78779   0.16532   0.00000  Uiso   1.00
C434   C     0.54640   0.87797   0.17793   0.00000  Uiso   1.00
C435   C     0.95347   0.87888   0.16808   0.00000  Uiso   1.00
C436   C     0.54640   0.78871   0.15546   0.00000  Uiso   1.00
C437   C     0.97672   0.83334   0.16670   0.00000  Uiso   1.00
C438   C     0.52321   0.83334   0.16670   0.00000  Uiso   1.00
C439   C     0.97675   0.74303   0.15762   0.00000  Uiso   1.00
C440   C     0.52292   0.92304   0.18260   0.00000  Uiso   1.00
C441   C     0.97675   0.92364   0.17578   0.00000  Uiso   1.00
C442   C     0.52292   0.74364   0.15080   0.00000  Uiso   1.00
C443   C     0.75006   0.68837   0.16646   0.00000  Uiso   1.00
C444   C     0.75006   0.97830   0.16688   0.00000  Uiso   1.00
H445   H     0.95911   0.70798   0.15513   0.00000  Uiso   1.00
H446   H     0.54023   0.95785   0.19015   0.00000  Uiso   1.00
H447   H     0.95911   0.95869   0.17826   0.00000  Uiso   1.00
H448   H     0.54023   0.70884   0.14323   0.00000  Uiso   1.00
O449   O     0.88547   0.92154   0.14385   0.00000  Uiso   1.00
C450   C     0.87945   0.92143   0.08560   0.00000  Uiso   1.00
H451   H     0.85337   0.94951   0.07589   0.00000  Uiso   1.00
H452   H     0.86677   0.88521   0.06955   0.00000  Uiso   1.00
C453   C     0.92245   0.93508   0.05426   0.00000  Uiso   1.00
H454   H     0.93349   0.97296   0.06680   0.00000  Uiso   1.00
H455   H     0.94969   0.90852   0.06398   0.00000  Uiso   1.00
C456   C     0.91512   0.93274   0.32522   0.00000  Uiso   1.00
H457   H     0.90651   0.89417   0.31211   0.00000  Uiso   1.00
H458   H     0.94636   0.94381   0.30374   0.00000  Uiso   1.00
H459   H     0.88761   0.95806   0.31281   0.00000  Uiso   1.00
O460   O     0.61525   0.75031   0.12554   0.00000  Uiso   1.00
C461   C     0.62154   0.75752   0.06799   0.00000  Uiso   1.00
H462   H     0.65170   0.73599   0.05551   0.00000  Uiso   1.00
H463   H     0.62830   0.79702   0.05703   0.00000  Uiso   1.00
C464   C     0.58143   0.73866   0.03416   0.00000  Uiso   1.00
H465   H     0.57395   0.69952   0.04522   0.00000  Uiso   1.00
H466   H     0.55151   0.76180   0.04340   0.00000  Uiso   1.00
C467   C     0.59066   0.74166   0.30558   0.00000  Uiso   1.00
H468   H     0.59782   0.78069   0.29360   0.00000  Uiso   1.00
H469   H     0.56079   0.72863   0.28225   0.00000  Uiso   1.00
H470   H     0.61964   0.71776   0.29423   0.00000  Uiso   1.00
O471   O     0.88546   0.74512   0.18951   0.00000  Uiso   1.00
C472   C     0.87943   0.74523   0.24775   0.00000  Uiso   1.00
H473   H     0.85335   0.71715   0.25745   0.00000  Uiso   1.00
H474   H     0.86675   0.78145   0.26380   0.00000  Uiso   1.00
C475   C     0.92243   0.73159   0.27911   0.00000  Uiso   1.00
H476   H     0.93347   0.69371   0.26657   0.00000  Uiso   1.00
H477   H     0.94966   0.75815   0.26940   0.00000  Uiso   1.00
C478   C     0.91508   0.73392   0.00815   0.00000  Uiso   1.00
H479   H     0.90646   0.77248   0.02125   0.00000  Uiso   1.00
H480   H     0.94633   0.72286   0.02965   0.00000  Uiso   1.00
H481   H     0.88758   0.70858   0.02055   0.00000  Uiso   1.00
O482   O     0.61527   0.91641   0.20775   0.00000  Uiso   1.00
C483   C     0.62162   0.90926   0.26530   0.00000  Uiso   1.00
H484   H     0.65172   0.93091   0.27775   0.00000  Uiso   1.00
H485   H     0.62849   0.86979   0.27628   0.00000  Uiso   1.00
C486   C     0.58147   0.92798   0.29915   0.00000  Uiso   1.00
H487   H     0.57381   0.96706   0.28801   0.00000  Uiso   1.00
H488   H     0.55164   0.90465   0.29002   0.00000  Uiso   1.00
C489   C     0.59080   0.92516   0.02772   0.00000  Uiso   1.00
H490   H     0.59834   0.88623   0.03976   0.00000  Uiso   1.00
H491   H     0.56085   0.93789   0.05108   0.00000  Uiso   1.00
H492   H     0.61959   0.94941   0.03898   0.00000  Uiso   1.00
O493   O     0.25000   0.09512   0.54562   0.00000  Uiso   1.00
O494   O     0.25000   0.23822   0.45438   0.00000  Uiso   1.00
O495   O     0.25000   0.23822   0.54562   0.00000  Uiso   1.00
O496   O     0.25000   0.09512   0.45438   0.00000  Uiso   1.00
C497   C     0.25003   0.07261   0.49985   0.00000  Uiso   1.00
C498   C     0.25003   0.26072   0.50015   0.00000  Uiso   1.00
O499   O     0.18392   0.16667   0.54563   0.00000  Uiso   1.00
O500   O     0.31607   0.16667   0.45437   0.00000  Uiso   1.00
O501   O     0.31607   0.16667   0.54563   0.00000  Uiso   1.00
O502   O     0.18392   0.16667   0.45437   0.00000  Uiso   1.00
C503   C     0.16317   0.16668   0.50000   0.00000  Uiso   1.00
C504   C     0.33680   0.16666   0.50000   0.00000  Uiso   1.00
Zn505  Zn    0.25000   0.16667   0.56093   0.00000  Uiso   1.00
Zn506  Zn    0.25000   0.16667   0.43907   0.00000  Uiso   1.00
N507   N     0.25000   0.16667   0.35788   0.00000  Uiso   1.00
N508   N     0.25000   0.16667   0.64212   0.00000  Uiso   1.00
C509   C     0.40749   0.21167   0.49244   0.00000  Uiso   1.00
C510   C     0.09251   0.12410   0.48119   0.00000  Uiso   1.00
C511   C     0.40749   0.12166   0.50760   0.00000  Uiso   1.00
C512   C     0.09252   0.20926   0.51883   0.00000  Uiso   1.00
C513   C     0.38450   0.16666   0.50001   0.00000  Uiso   1.00
C514   C     0.11542   0.16668   0.50000   0.00000  Uiso   1.00
C515   C     0.45347   0.12112   0.49865   0.00000  Uiso   1.00
C516   C     0.04640   0.21131   0.51127   0.00000  Uiso   1.00
C517   C     0.45347   0.21222   0.50141   0.00000  Uiso   1.00
C518   C     0.04640   0.12204   0.48879   0.00000  Uiso   1.00
C519   C     0.47672   0.16667   0.50003   0.00000  Uiso   1.00
C520   C     0.02321   0.16667   0.50003   0.00000  Uiso   1.00
C521   C     0.47675   0.07637   0.49095   0.00000  Uiso   1.00
C522   C     0.02292   0.25637   0.51593   0.00000  Uiso   1.00
C523   C     0.47675   0.25697   0.50911   0.00000  Uiso   1.00
C524   C     0.02292   0.07697   0.48413   0.00000  Uiso   1.00
C525   C     0.25006   0.02170   0.49979   0.00000  Uiso   1.00
C526   C     0.25006   0.31163   0.50021   0.00000  Uiso   1.00
H527   H     0.45911   0.04131   0.48846   0.00000  Uiso   1.00
H528   H     0.04023   0.29118   0.52348   0.00000  Uiso   1.00
H529   H     0.45911   0.29202   0.51159   0.00000  Uiso   1.00
H530   H     0.04023   0.04217   0.47656   0.00000  Uiso   1.00
O531   O     0.38547   0.25488   0.47718   0.00000  Uiso   1.00
C532   C     0.37945   0.25476   0.41893   0.00000  Uiso   1.00
H533   H     0.35337   0.28284   0.40922   0.00000  Uiso   1.00
H534   H     0.36677   0.21854   0.40289   0.00000  Uiso   1.00
C535   C     0.42245   0.26841   0.38759   0.00000  Uiso   1.00
H536   H     0.43349   0.30629   0.40013   0.00000  Uiso   1.00
H537   H     0.44969   0.24185   0.39732   0.00000  Uiso   1.00
C538   C     0.41512   0.26607   0.65855   0.00000  Uiso   1.00
H539   H     0.40651   0.22750   0.64545   0.00000  Uiso   1.00
H540   H     0.44636   0.27714   0.63707   0.00000  Uiso   1.00
H541   H     0.38761   0.29140   0.64614   0.00000  Uiso   1.00
O542   O     0.11525   0.08364   0.45888   0.00000  Uiso   1.00
C543   C     0.12154   0.09085   0.40133   0.00000  Uiso   1.00
H544   H     0.15170   0.06932   0.38884   0.00000  Uiso   1.00
H545   H     0.12830   0.13035   0.39036   0.00000  Uiso   1.00
C546   C     0.08143   0.07199   0.36750   0.00000  Uiso   1.00
H547   H     0.07395   0.03286   0.37856   0.00000  Uiso   1.00
H548   H     0.05151   0.09513   0.37674   0.00000  Uiso   1.00
C549   C     0.09066   0.07499   0.63892   0.00000  Uiso   1.00
H550   H     0.09782   0.11402   0.62694   0.00000  Uiso   1.00
H551   H     0.06079   0.06197   0.61559   0.00000  Uiso   1.00
H552   H     0.11964   0.05109   0.62756   0.00000  Uiso   1.00
O553   O     0.38546   0.07845   0.52284   0.00000  Uiso   1.00
C554   C     0.37943   0.07857   0.58109   0.00000  Uiso   1.00
H555   H     0.35335   0.05048   0.59078   0.00000  Uiso   1.00
H556   H     0.36675   0.11478   0.59713   0.00000  Uiso   1.00
C557   C     0.42243   0.06492   0.61245   0.00000  Uiso   1.00
H558   H     0.43347   0.02705   0.59991   0.00000  Uiso   1.00
H559   H     0.44966   0.09149   0.60274   0.00000  Uiso   1.00
C560   C     0.41508   0.06725   0.34148   0.00000  Uiso   1.00
H561   H     0.40646   0.10581   0.35459   0.00000  Uiso   1.00
H562   H     0.44633   0.05620   0.36298   0.00000  Uiso   1.00
H563   H     0.38758   0.04191   0.35388   0.00000  Uiso   1.00
O564   O     0.11527   0.24974   0.54108   0.00000  Uiso   1.00
C565   C     0.12162   0.24260   0.59863   0.00000  Uiso   1.00
H566   H     0.15172   0.26425   0.61108   0.00000  Uiso   1.00
H567   H     0.12849   0.20313   0.60961   0.00000  Uiso   1.00
C568   C     0.08147   0.26132   0.63249   0.00000  Uiso   1.00
H569   H     0.07381   0.30040   0.62134   0.00000  Uiso   1.00
H570   H     0.05164   0.23799   0.62336   0.00000  Uiso   1.00
C571   C     0.09080   0.25850   0.36106   0.00000  Uiso   1.00
H572   H     0.09834   0.21956   0.37310   0.00000  Uiso   1.00
H573   H     0.06085   0.27122   0.38441   0.00000  Uiso   1.00
H574   H     0.11959   0.28275   0.37232   0.00000  Uiso   1.00
O575   O     0.75000   0.09512   0.54562   0.00000  Uiso   1.00
O576   O     0.75000   0.23822   0.45438   0.00000  Uiso   1.00
O577   O     0.75000   0.23822   0.54562   0.00000  Uiso   1.00
O578   O     0.75000   0.09512   0.45438   0.00000  Uiso   1.00
C579   C     0.75003   0.07261   0.49985   0.00000  Uiso   1.00
C580   C     0.75003   0.26072   0.50015   0.00000  Uiso   1.00
O581   O     0.68392   0.16667   0.54563   0.00000  Uiso   1.00
O582   O     0.81607   0.16667   0.45437   0.00000  Uiso   1.00
O583   O     0.81607   0.16667   0.54563   0.00000  Uiso   1.00
O584   O     0.68392   0.16667   0.45437   0.00000  Uiso   1.00
C585   C     0.66317   0.16668   0.50000   0.00000  Uiso   1.00
C586   C     0.83680   0.16666   0.50000   0.00000  Uiso   1.00
Zn587  Zn    0.75000   0.16667   0.56093   0.00000  Uiso   1.00
Zn588  Zn    0.75000   0.16667   0.43907   0.00000  Uiso   1.00
N589   N     0.75000   0.16667   0.35788   0.00000  Uiso   1.00
N590   N     0.75000   0.16667   0.64212   0.00000  Uiso   1.00
C591   C     0.90749   0.21167   0.49244   0.00000  Uiso   1.00
C592   C     0.59251   0.12410   0.48119   0.00000  Uiso   1.00
C593   C     0.90749   0.12166   0.50760   0.00000  Uiso   1.00
C594   C     0.59252   0.20926   0.51883   0.00000  Uiso   1.00
C595   C     0.88450   0.16666   0.50001   0.00000  Uiso   1.00
C596   C     0.61542   0.16668   0.50000   0.00000  Uiso   1.00
C597   C     0.95347   0.12112   0.49865   0.00000  Uiso   1.00
C598   C     0.54640   0.21131   0.51127   0.00000  Uiso   1.00
C599   C     0.95347   0.21222   0.50141   0.00000  Uiso   1.00
C600   C     0.54640   0.12204   0.48879   0.00000  Uiso   1.00
C601   C     0.97672   0.16667   0.50003   0.00000  Uiso   1.00
C602   C     0.52321   0.16667   0.50003   0.00000  Uiso   1.00
C603   C     0.97675   0.07637   0.49095   0.00000  Uiso   1.00
C604   C     0.52292   0.25637   0.51593   0.00000  Uiso   1.00
C605   C     0.97675   0.25697   0.50911   0.00000  Uiso   1.00
C606   C     0.52292   0.07697   0.48413   0.00000  Uiso   1.00
C607   C     0.75006   0.02170   0.49979   0.00000  Uiso   1.00
C608   C     0.75006   0.31163   0.50021   0.00000  Uiso   1.00
H609   H     0.95911   0.04131   0.48846   0.00000  Uiso   1.00
H610   H     0.54023   0.29118   0.52348   0.00000  Uiso   1.00
H611   H     0.95911   0.29202   0.51159   0.00000  Uiso   1.00
H612   H     0.54023   0.04217   0.47656   0.00000  Uiso   1.00
O613   O     0.88547   0.25488   0.47718   0.00000  Uiso   1.00
C614   C     0.87945   0.25476   0.41893   0.00000  Uiso   1.00
H615   H     0.85337   0.28284   0.40922   0.00000  Uiso   1.00
H616   H     0.86677   0.21854   0.40289   0.00000  Uiso   1.00
C617   C     0.92245   0.26841   0.38759   0.00000  Uiso   1.00
H618   H     0.93349   0.30629   0.40013   0.00000  Uiso   1.00
H619   H     0.94969   0.24185   0.39732   0.00000  Uiso   1.00
C620   C     0.91512   0.26607   0.65855   0.00000  Uiso   1.00
H621   H     0.90651   0.22750   0.64545   0.00000  Uiso   1.00
H622   H     0.94636   0.27714   0.63707   0.00000  Uiso   1.00
H623   H     0.88761   0.29140   0.64614   0.00000  Uiso   1.00
O624   O     0.61525   0.08364   0.45888   0.00000  Uiso   1.00
C625   C     0.62154   0.09085   0.40133   0.00000  Uiso   1.00
H626   H     0.65170   0.06932   0.38884   0.00000  Uiso   1.00
H627   H     0.62830   0.13035   0.39036   0.00000  Uiso   1.00
C628   C     0.58143   0.07199   0.36750   0.00000  Uiso   1.00
H629   H     0.57395   0.03286   0.37856   0.00000  Uiso   1.00
H630   H     0.55151   0.09513   0.37674   0.00000  Uiso   1.00
C631   C     0.59066   0.07499   0.63892   0.00000  Uiso   1.00
H632   H     0.59782   0.11402   0.62694   0.00000  Uiso   1.00
H633   H     0.56079   0.06197   0.61559   0.00000  Uiso   1.00
H634   H     0.61964   0.05109   0.62756   0.00000  Uiso   1.00
O635   O     0.88546   0.07845   0.52284   0.00000  Uiso   1.00
C636   C     0.87943   0.07857   0.58109   0.00000  Uiso   1.00
H637   H     0.85335   0.05048   0.59078   0.00000  Uiso   1.00
H638   H     0.86675   0.11478   0.59713   0.00000  Uiso   1.00
C639   C     0.92243   0.06492   0.61245   0.00000  Uiso   1.00
H640   H     0.93347   0.02705   0.59991   0.00000  Uiso   1.00
H641   H     0.94966   0.09149   0.60274   0.00000  Uiso   1.00
C642   C     0.91508   0.06725   0.34148   0.00000  Uiso   1.00
H643   H     0.90646   0.10581   0.35459   0.00000  Uiso   1.00
H644   H     0.94633   0.05620   0.36298   0.00000  Uiso   1.00
H645   H     0.88758   0.04191   0.35388   0.00000  Uiso   1.00
O646   O     0.61527   0.24974   0.54108   0.00000  Uiso   1.00
C647   C     0.62162   0.24260   0.59863   0.00000  Uiso   1.00
H648   H     0.65172   0.26425   0.61108   0.00000  Uiso   1.00
H649   H     0.62849   0.20313   0.60961   0.00000  Uiso   1.00
C650   C     0.58147   0.26132   0.63249   0.00000  Uiso   1.00
H651   H     0.57381   0.30040   0.62134   0.00000  Uiso   1.00
H652   H     0.55164   0.23799   0.62336   0.00000  Uiso   1.00
C653   C     0.59080   0.25850   0.36106   0.00000  Uiso   1.00
H654   H     0.59834   0.21956   0.37310   0.00000  Uiso   1.00
H655   H     0.56085   0.27122   0.38441   0.00000  Uiso   1.00
H656   H     0.61959   0.28275   0.37232   0.00000  Uiso   1.00
O657   O     0.25000   0.42845   0.54562   0.00000  Uiso   1.00
O658   O     0.25000   0.57155   0.45438   0.00000  Uiso   1.00
O659   O     0.25000   0.57155   0.54562   0.00000  Uiso   1.00
O660   O     0.25000   0.42845   0.45438   0.00000  Uiso   1.00
C661   C     0.25003   0.40594   0.49985   0.00000  Uiso   1.00
C662   C     0.25003   0.59406   0.50015   0.00000  Uiso   1.00
O663   O     0.18392   0.50000   0.54563   0.00000  Uiso   1.00
O664   O     0.31607   0.50000   0.45437   0.00000  Uiso   1.00
O665   O     0.31607   0.50000   0.54563   0.00000  Uiso   1.00
O666   O     0.18392   0.50000   0.45437   0.00000  Uiso   1.00
C667   C     0.16317   0.50001   0.50000   0.00000  Uiso   1.00
C668   C     0.33680   0.50000   0.50000   0.00000  Uiso   1.00
Zn669  Zn    0.25000   0.50000   0.56093   0.00000  Uiso   1.00
Zn670  Zn    0.25000   0.50000   0.43907   0.00000  Uiso   1.00
N671   N     0.25000   0.50000   0.35788   0.00000  Uiso   1.00
N672   N     0.25000   0.50000   0.64212   0.00000  Uiso   1.00
C673   C     0.40749   0.54500   0.49244   0.00000  Uiso   1.00
C674   C     0.09251   0.45743   0.48119   0.00000  Uiso   1.00
C675   C     0.40749   0.45500   0.50760   0.00000  Uiso   1.00
C676   C     0.09252   0.54259   0.51883   0.00000  Uiso   1.00
C677   C     0.38450   0.50000   0.50001   0.00000  Uiso   1.00
C678   C     0.11542   0.50001   0.50000   0.00000  Uiso   1.00
C679   C     0.45347   0.45445   0.49865   0.00000  Uiso   1.00
C680   C     0.04640   0.54464   0.51127   0.00000  Uiso   1.00
C681   C     0.45347   0.54555   0.50141   0.00000  Uiso   1.00
C682   C     0.04640   0.45537   0.48879   0.00000  Uiso   1.00
C683   C     0.47672   0.50000   0.50003   0.00000  Uiso   1.00
C684   C     0.02321   0.50000   0.50003   0.00000  Uiso   1.00
C685   C     0.47675   0.40970   0.49095   0.00000  Uiso   1.00
C686   C     0.02292   0.58971   0.51593   0.00000  Uiso   1.00
C687   C     0.47675   0.59030   0.50911   0.00000  Uiso   1.00
C688   C     0.02292   0.41030   0.48413   0.00000  Uiso   1.00
C689   C     0.25006   0.35504   0.49979   0.00000  Uiso   1.00
C690   C     0.25006   0.64496   0.50021   0.00000  Uiso   1.00
H691   H     0.45911   0.37465   0.48846   0.00000  Uiso   1.00
H692   H     0.04023   0.62451   0.52348   0.00000  Uiso   1.00
H693   H     0.45911   0.62536   0.51159   0.00000  Uiso   1.00
H694   H     0.04023   0.37550   0.47656   0.00000  Uiso   1.00
O695   O     0.38547   0.58821   0.47718   0.00000  Uiso   1.00
C696   C     0.37945   0.58809   0.41893   0.00000  Uiso   1.00
H697   H     0.35337   0.61617   0.40922   0.00000  Uiso   1.00
H698   H     0.36677   0.55187   0.40289   0.00000  Uiso   1.00
C699   C     0.42245   0.60175   0.38759   0.00000  Uiso   1.00
H700   H     0.43349   0.63962   0.40013   0.00000  Uiso   1.00
H701   H     0.44969   0.57519   0.39732   0.00000  Uiso   1.00
C702   C     0.41512   0.59940   0.65855   0.00000  Uiso   1.00
H703   H     0.40651   0.56084   0.64545   0.00000  Uiso   1.00
H704   H     0.44636   0.61048   0.63707   0.00000  Uiso   1.00
H705   H     0.38761   0.62473   0.64614   0.00000  Uiso   1.00
O706   O     0.11525   0.41698   0.45888   0.00000  Uiso   1.00
C707   C     0.12154   0.42418   0.40133   0.00000  Uiso   1.00
H708   H     0.15170   0.40265   0.38884   0.00000  Uiso   1.00
H709   H     0.12830   0.46368   0.39036   0.00000  Uiso   1.00
C710   C     0.08143   0.40533   0.36750   0.00000  Uiso   1.00
H711   H     0.07395   0.36619   0.37856   0.00000  Uiso   1.00
H712   H     0.05151   0.42847   0.37674   0.00000  Uiso   1.00
C713   C     0.09066   0.40832   0.63892   0.00000  Uiso   1.00
H714   H     0.09782   0.44735   0.62694   0.00000  Uiso   1.00
H715   H     0.06079   0.39530   0.61559   0.00000  Uiso   1.00
H716   H     0.11964   0.38443   0.62756   0.00000  Uiso   1.00
O717   O     0.38546   0.41179   0.52284   0.00000  Uiso   1.00
C718   C     0.37943   0.41190   0.58109   0.00000  Uiso   1.00
H719   H     0.35335   0.38381   0.59078   0.00000  Uiso   1.00
H720   H     0.36675   0.44812   0.59713   0.00000  Uiso   1.00
C721   C     0.42243   0.39825   0.61245   0.00000  Uiso   1.00
H722   H     0.43347   0.36038   0.59991   0.00000  Uiso   1.00
H723   H     0.44966   0.42482   0.60274   0.00000  Uiso   1.00
C724   C     0.41508   0.40059   0.34148   0.00000  Uiso   1.00
H725   H     0.40646   0.43915   0.35459   0.00000  Uiso   1.00
H726   H     0.44633   0.38953   0.36298   0.00000  Uiso   1.00
H727   H     0.38758   0.37524   0.35388   0.00000  Uiso   1.00
O728   O     0.11527   0.58308   0.54108   0.00000  Uiso   1.00
C729   C     0.12162   0.57593   0.59863   0.00000  Uiso   1.00
H730   H     0.15172   0.59758   0.61108   0.00000  Uiso   1.00
H731   H     0.12849   0.53646   0.60961   0.00000  Uiso   1.00
C732   C     0.08147   0.59465   0.63249   0.00000  Uiso   1.00
H733   H     0.07381   0.63373   0.62134   0.00000  Uiso   1.00
H734   H     0.05164   0.57132   0.62336   0.00000  Uiso   1.00
C735   C     0.09080   0.59183   0.36106   0.00000  Uiso   1.00
H736   H     0.09834   0.55289   0.37310   0.00000  Uiso   1.00
H737   H     0.06085   0.60455   0.38441   0.00000  Uiso   1.00
H738   H     0.11959   0.61608   0.37232   0.00000  Uiso   1.00
O739   O     0.75000   0.42845   0.54562   0.00000  Uiso   1.00
O740   O     0.75000   0.57155   0.45438   0.00000  Uiso   1.00
O741   O     0.75000   0.57155   0.54562   0.00000  Uiso   1.00
O742   O     0.75000   0.42845   0.45438   0.00000  Uiso   1.00
C743   C     0.75003   0.40594   0.49985   0.00000  Uiso   1.00
C744   C     0.75003   0.59406   0.50015   0.00000  Uiso   1.00
O745   O     0.68392   0.50000   0.54563   0.00000  Uiso   1.00
O746   O     0.81607   0.50000   0.45437   0.00000  Uiso   1.00
O747   O     0.81607   0.50000   0.54563   0.00000  Uiso   1.00
O748   O     0.68392   0.50000   0.45437   0.00000  Uiso   1.00
C749   C     0.66317   0.50001   0.50000   0.00000  Uiso   1.00
C750   C     0.83680   0.50000   0.50000   0.00000  Uiso   1.00
Zn751  Zn    0.75000   0.50000   0.56093   0.00000  Uiso   1.00
Zn752  Zn    0.75000   0.50000   0.43907   0.00000  Uiso   1.00
N753   N     0.75000   0.50000   0.35788   0.00000  Uiso   1.00
N754   N     0.75000   0.50000   0.64212   0.00000  Uiso   1.00
C755   C     0.90749   0.54500   0.49244   0.00000  Uiso   1.00
C756   C     0.59251   0.45743   0.48119   0.00000  Uiso   1.00
C757   C     0.90749   0.45500   0.50760   0.00000  Uiso   1.00
C758   C     0.59252   0.54259   0.51883   0.00000  Uiso   1.00
C759   C     0.88450   0.50000   0.50001   0.00000  Uiso   1.00
C760   C     0.61542   0.50001   0.50000   0.00000  Uiso   1.00
C761   C     0.95347   0.45445   0.49865   0.00000  Uiso   1.00
C762   C     0.54640   0.54464   0.51127   0.00000  Uiso   1.00
C763   C     0.95347   0.54555   0.50141   0.00000  Uiso   1.00
C764   C     0.54640   0.45537   0.48879   0.00000  Uiso   1.00
C765   C     0.97672   0.50000   0.50003   0.00000  Uiso   1.00
C766   C     0.52321   0.50000   0.50003   0.00000  Uiso   1.00
C767   C     0.97675   0.40970   0.49095   0.00000  Uiso   1.00
C768   C     0.52292   0.58971   0.51593   0.00000  Uiso   1.00
C769   C     0.97675   0.59030   0.50911   0.00000  Uiso   1.00
C770   C     0.52292   0.41030   0.48413   0.00000  Uiso   1.00
C771   C     0.75006   0.35504   0.49979   0.00000  Uiso   1.00
C772   C     0.75006   0.64496   0.50021   0.00000  Uiso   1.00
H773   H     0.95911   0.37465   0.48846   0.00000  Uiso   1.00
H774   H     0.54023   0.62451   0.52348   0.00000  Uiso   1.00
H775   H     0.95911   0.62536   0.51159   0.00000  Uiso   1.00
H776   H     0.54023   0.37550   0.47656   0.00000  Uiso   1.00
O777   O     0.88547   0.58821   0.47718   0.00000  Uiso   1.00
C778   C     0.87945   0.58809   0.41893   0.00000  Uiso   1.00
H779   H     0.85337   0.61617   0.40922   0.00000  Uiso   1.00
H780   H     0.86677   0.55187   0.40289   0.00000  Uiso   1.00
C781   C     0.92245   0.60175   0.38759   0.00000  Uiso   1.00
H782   H     0.93349   0.63962   0.40013   0.00000  Uiso   1.00
H783   H     0.94969   0.57519   0.39732   0.00000  Uiso   1.00
C784   C     0.91512   0.59940   0.65855   0.00000  Uiso   1.00
H785   H     0.90651   0.56084   0.64545   0.00000  Uiso   1.00
H786   H     0.94636   0.61048   0.63707   0.00000  Uiso   1.00
H787   H     0.88761   0.62473   0.64614   0.00000  Uiso   1.00
O788   O     0.61525   0.41698   0.45888   0.00000  Uiso   1.00
C789   C     0.62154   0.42418   0.40133   0.00000  Uiso   1.00
H790   H     0.65170   0.40265   0.38884   0.00000  Uiso   1.00
H791   H     0.62830   0.46368   0.39036   0.00000  Uiso   1.00
C792   C     0.58143   0.40533   0.36750   0.00000  Uiso   1.00
H793   H     0.57395   0.36619   0.37856   0.00000  Uiso   1.00
H794   H     0.55151   0.42847   0.37674   0.00000  Uiso   1.00
C795   C     0.59066   0.40832   0.63892   0.00000  Uiso   1.00
H796   H     0.59782   0.44735   0.62694   0.00000  Uiso   1.00
H797   H     0.56079   0.39530   0.61559   0.00000  Uiso   1.00
H798   H     0.61964   0.38443   0.62756   0.00000  Uiso   1.00
O799   O     0.88546   0.41179   0.52284   0.00000  Uiso   1.00
C800   C     0.87943   0.41190   0.58109   0.00000  Uiso   1.00
H801   H     0.85335   0.38381   0.59078   0.00000  Uiso   1.00
H802   H     0.86675   0.44812   0.59713   0.00000  Uiso   1.00
C803   C     0.92243   0.39825   0.61245   0.00000  Uiso   1.00
H804   H     0.93347   0.36038   0.59991   0.00000  Uiso   1.00
H805   H     0.94966   0.42482   0.60274   0.00000  Uiso   1.00
C806   C     0.91508   0.40059   0.34148   0.00000  Uiso   1.00
H807   H     0.90646   0.43915   0.35459   0.00000  Uiso   1.00
H808   H     0.94633   0.38953   0.36298   0.00000  Uiso   1.00
H809   H     0.88758   0.37524   0.35388   0.00000  Uiso   1.00
O810   O     0.61527   0.58308   0.54108   0.00000  Uiso   1.00
C811   C     0.62162   0.57593   0.59863   0.00000  Uiso   1.00
H812   H     0.65172   0.59758   0.61108   0.00000  Uiso   1.00
H813   H     0.62849   0.53646   0.60961   0.00000  Uiso   1.00
C814   C     0.58147   0.59465   0.63249   0.00000  Uiso   1.00
H815   H     0.57381   0.63373   0.62134   0.00000  Uiso   1.00
H816   H     0.55164   0.57132   0.62336   0.00000  Uiso   1.00
C817   C     0.59080   0.59183   0.36106   0.00000  Uiso   1.00
H818   H     0.59834   0.55289   0.37310   0.00000  Uiso   1.00
H819   H     0.56085   0.60455   0.38441   0.00000  Uiso   1.00
H820   H     0.61959   0.61608   0.37232   0.00000  Uiso   1.00
O821   O     0.25000   0.76178   0.54562   0.00000  Uiso   1.00
O822   O     0.25000   0.90488   0.45438   0.00000  Uiso   1.00
O823   O     0.25000   0.90488   0.54562   0.00000  Uiso   1.00
O824   O     0.25000   0.76178   0.45438   0.00000  Uiso   1.00
C825   C     0.25003   0.73927   0.49985   0.00000  Uiso   1.00
C826   C     0.25003   0.92739   0.50015   0.00000  Uiso   1.00
O827   O     0.18392   0.83333   0.54563   0.00000  Uiso   1.00
O828   O     0.31607   0.83333   0.45437   0.00000  Uiso   1.00
O829   O     0.31607   0.83333   0.54563   0.00000  Uiso   1.00
O830   O     0.18392   0.83333   0.45437   0.00000  Uiso   1.00
C831   C     0.16317   0.83334   0.50000   0.00000  Uiso   1.00
C832   C     0.33680   0.83333   0.50000   0.00000  Uiso   1.00
Zn833  Zn    0.25000   0.83333   0.56093   0.00000  Uiso   1.00
Zn834  Zn    0.25000   0.83333   0.43907   0.00000  Uiso   1.00
N835   N     0.25000   0.83333   0.35788   0.00000  Uiso   1.00
N836   N     0.25000   0.83333   0.64212   0.00000  Uiso   1.00
C837   C     0.40749   0.87833   0.49244   0.00000  Uiso   1.00
C838   C     0.09251   0.79077   0.48119   0.00000  Uiso   1.00
C839   C     0.40749   0.78833   0.50760   0.00000  Uiso   1.00
C840   C     0.09252   0.87593   0.51883   0.00000  Uiso   1.00
C841   C     0.38450   0.83333   0.50001   0.00000  Uiso   1.00
C842   C     0.11542   0.83335   0.50000   0.00000  Uiso   1.00
C843   C     0.45347   0.78779   0.49865   0.00000  Uiso   1.00
C844   C     0.04640   0.87797   0.51127   0.00000  Uiso   1.00
C845   C     0.45347   0.87888   0.50141   0.00000  Uiso   1.00
C846   C     0.04640   0.78871   0.48879   0.00000  Uiso   1.00
C847   C     0.47672   0.83334   0.50003   0.00000  Uiso   1.00
C848   C     0.02321   0.83334   0.50003   0.00000  Uiso   1.00
C849   C     0.47675   0.74303   0.49095   0.00000  Uiso   1.00
C850   C     0.02292   0.92304   0.51593   0.00000  Uiso   1.00
C851   C     0.47675   0.92364   0.50911   0.00000  Uiso   1.00
C852   C     0.02292   0.74364   0.48413   0.00000  Uiso   1.00
C853   C     0.25006   0.68837   0.49979   0.00000  Uiso   1.00
C854   C     0.25006   0.97830   0.50021   0.00000  Uiso   1.00
H855   H     0.45911   0.70798   0.48846   0.00000  Uiso   1.00
H856   H     0.04023   0.95785   0.52348   0.00000  Uiso   1.00
H857   H     0.45911   0.95869   0.51159   0.00000  Uiso   1.00
H858   H     0.04023   0.70884   0.47656   0.00000  Uiso   1.00
O859   O     0.38547   0.92154   0.47718   0.00000  Uiso   1.00
C860   C     0.37945   0.92143   0.41893   0.00000  Uiso   1.00
H861   H     0.35337   0.94951   0.40922   0.00000  Uiso   1.00
H862   H     0.36677   0.88521   0.40289   0.00000  Uiso   1.00
C863   C     0.42245   0.93508   0.38759   0.00000  Uiso   1.00
H864   H     0.43349   0.97296   0.40013   0.00000  Uiso   1.00
H865   H     0.44969   0.90852   0.39732   0.00000  Uiso   1.00
C866   C     0.41512   0.93274   0.65855   0.00000  Uiso   1.00
H867   H     0.40651   0.89417   0.64545   0.00000  Uiso   1.00
H868   H     0.44636   0.94381   0.63707   0.00000  Uiso   1.00
H869   H     0.38761   0.95806   0.64614   0.00000  Uiso   1.00
O870   O     0.11525   0.75031   0.45888   0.00000  Uiso   1.00
C871   C     0.12154   0.75752   0.40133   0.00000  Uiso   1.00
H872   H     0.15170   0.73599   0.38884   0.00000  Uiso   1.00
H873   H     0.12830   0.79702   0.39036   0.00000  Uiso   1.00
C874   C     0.08143   0.73866   0.36750   0.00000  Uiso   1.00
H875   H     0.07395   0.69952   0.37856   0.00000  Uiso   1.00
H876   H     0.05151   0.76180   0.37674   0.00000  Uiso   1.00
C877   C     0.09066   0.74166   0.63892   0.00000  Uiso   1.00
H878   H     0.09782   0.78069   0.62694   0.00000  Uiso   1.00
H879   H     0.06079   0.72863   0.61559   0.00000  Uiso   1.00
H880   H     0.11964   0.71776   0.62756   0.00000  Uiso   1.00
O881   O     0.38546   0.74512   0.52284   0.00000  Uiso   1.00
C882   C     0.37943   0.74523   0.58109   0.00000  Uiso   1.00
H883   H     0.35335   0.71715   0.59078   0.00000  Uiso   1.00
H884   H     0.36675   0.78145   0.59713   0.00000  Uiso   1.00
C885   C     0.42243   0.73159   0.61245   0.00000  Uiso   1.00
H886   H     0.43347   0.69371   0.59991   0.00000  Uiso   1.00
H887   H     0.44966   0.75815   0.60274   0.00000  Uiso   1.00
C888   C     0.41508   0.73392   0.34148   0.00000  Uiso   1.00
H889   H     0.40646   0.77248   0.35459   0.00000  Uiso   1.00
H890   H     0.44633   0.72286   0.36298   0.00000  Uiso   1.00
H891   H     0.38758   0.70858   0.35388   0.00000  Uiso   1.00
O892   O     0.11527   0.91641   0.54108   0.00000  Uiso   1.00
C893   C     0.12162   0.90926   0.59863   0.00000  Uiso   1.00
H894   H     0.15172   0.93091   0.61108   0.00000  Uiso   1.00
H895   H     0.12849   0.86979   0.60961   0.00000  Uiso   1.00
C896   C     0.08147   0.92798   0.63249   0.00000  Uiso   1.00
H897   H     0.07381   0.96706   0.62134   0.00000  Uiso   1.00
H898   H     0.05164   0.90465   0.62336   0.00000  Uiso   1.00
C899   C     0.09080   0.92516   0.36106   0.00000  Uiso   1.00
H900   H     0.09834   0.88623   0.37310   0.00000  Uiso   1.00
H901   H     0.06085   0.93789   0.38441   0.00000  Uiso   1.00
H902   H     0.11959   0.94941   0.37232   0.00000  Uiso   1.00
O903   O     0.75000   0.76178   0.54562   0.00000  Uiso   1.00
O904   O     0.75000   0.90488   0.45438   0.00000  Uiso   1.00
O905   O     0.75000   0.90488   0.54562   0.00000  Uiso   1.00
O906   O     0.75000   0.76178   0.45438   0.00000  Uiso   1.00
C907   C     0.75003   0.73927   0.49985   0.00000  Uiso   1.00
C908   C     0.75003   0.92739   0.50015   0.00000  Uiso   1.00
O909   O     0.68392   0.83333   0.54563   0.00000  Uiso   1.00
O910   O     0.81607   0.83333   0.45437   0.00000  Uiso   1.00
O911   O     0.81607   0.83333   0.54563   0.00000  Uiso   1.00
O912   O     0.68392   0.83333   0.45437   0.00000  Uiso   1.00
C913   C     0.66317   0.83334   0.50000   0.00000  Uiso   1.00
C914   C     0.83680   0.83333   0.50000   0.00000  Uiso   1.00
Zn915  Zn    0.75000   0.83333   0.56093   0.00000  Uiso   1.00
Zn916  Zn    0.75000   0.83333   0.43907   0.00000  Uiso   1.00
N917   N     0.75000   0.83333   0.35788   0.00000  Uiso   1.00
N918   N     0.75000   0.83333   0.64212   0.00000  Uiso   1.00
C919   C     0.90749   0.87833   0.49244   0.00000  Uiso   1.00
C920   C     0.59251   0.79077   0.48119   0.00000  Uiso   1.00
C921   C     0.90749   0.78833   0.50760   0.00000  Uiso   1.00
C922   C     0.59252   0.87593   0.51883   0.00000  Uiso   1.00
C923   C     0.88450   0.83333   0.50001   0.00000  Uiso   1.00
C924   C     0.61542   0.83335   0.50000   0.00000  Uiso   1.00
C925   C     0.95347   0.78779   0.49865   0.00000  Uiso   1.00
C926   C     0.54640   0.87797   0.51127   0.00000  Uiso   1.00
C927   C     0.95347   0.87888   0.50141   0.00000  Uiso   1.00
C928   C     0.54640   0.78871   0.48879   0.00000  Uiso   1.00
C929   C     0.97672   0.83334   0.50003   0.00000  Uiso   1.00
C930   C     0.52321   0.83334   0.50003   0.00000  Uiso   1.00
C931   C     0.97675   0.74303   0.49095   0.00000  Uiso   1.00
C932   C     0.52292   0.92304   0.51593   0.00000  Uiso   1.00
C933   C     0.97675   0.92364   0.50911   0.00000  Uiso   1.00
C934   C     0.52292   0.74364   0.48413   0.00000  Uiso   1.00
C935   C     0.75006   0.68837   0.49979   0.00000  Uiso   1.00
C936   C     0.75006   0.97830   0.50021   0.00000  Uiso   1.00
H937   H     0.95911   0.70798   0.48846   0.00000  Uiso   1.00
H938   H     0.54023   0.95785   0.52348   0.00000  Uiso   1.00
H939   H     0.95911   0.95869   0.51159   0.00000  Uiso   1.00
H940   H     0.54023   0.70884   0.47656   0.00000  Uiso   1.00
O941   O     0.88547   0.92154   0.47718   0.00000  Uiso   1.00
C942   C     0.87945   0.92143   0.41893   0.00000  Uiso   1.00
H943   H     0.85337   0.94951   0.40922   0.00000  Uiso   1.00
H944   H     0.86677   0.88521   0.40289   0.00000  Uiso   1.00
C945   C     0.92245   0.93508   0.38759   0.00000  Uiso   1.00
H946   H     0.93349   0.97296   0.40013   0.00000  Uiso   1.00
H947   H     0.94969   0.90852   0.39732   0.00000  Uiso   1.00
C948   C     0.91512   0.93274   0.65855   0.00000  Uiso   1.00
H949   H     0.90651   0.89417   0.64545   0.00000  Uiso   1.00
H950   H     0.94636   0.94381   0.63707   0.00000  Uiso   1.00
H951   H     0.88761   0.95806   0.64614   0.00000  Uiso   1.00
O952   O     0.61525   0.75031   0.45888   0.00000  Uiso   1.00
C953   C     0.62154   0.75752   0.40133   0.00000  Uiso   1.00
H954   H     0.65170   0.73599   0.38884   0.00000  Uiso   1.00
H955   H     0.62830   0.79702   0.39036   0.00000  Uiso   1.00
C956   C     0.58143   0.73866   0.36750   0.00000  Uiso   1.00
H957   H     0.57395   0.69952   0.37856   0.00000  Uiso   1.00
H958   H     0.55151   0.76180   0.37674   0.00000  Uiso   1.00
C959   C     0.59066   0.74166   0.63892   0.00000  Uiso   1.00
H960   H     0.59782   0.78069   0.62694   0.00000  Uiso   1.00
H961   H     0.56079   0.72863   0.61559   0.00000  Uiso   1.00
H962   H     0.61964   0.71776   0.62756   0.00000  Uiso   1.00
O963   O     0.88546   0.74512   0.52284   0.00000  Uiso   1.00
C964   C     0.87943   0.74523   0.58109   0.00000  Uiso   1.00
H965   H     0.85335   0.71715   0.59078   0.00000  Uiso   1.00
H966   H     0.86675   0.78145   0.59713   0.00000  Uiso   1.00
C967   C     0.92243   0.73159   0.61245   0.00000  Uiso   1.00
H968   H     0.93347   0.69371   0.59991   0.00000  Uiso   1.00
H969   H     0.94966   0.75815   0.60274   0.00000  Uiso   1.00
C970   C     0.91508   0.73392   0.34148   0.00000  Uiso   1.00
H971   H     0.90646   0.77248   0.35459   0.00000  Uiso   1.00
H972   H     0.94633   0.72286   0.36298   0.00000  Uiso   1.00
H973   H     0.88758   0.70858   0.35388   0.00000  Uiso   1.00
O974   O     0.61527   0.91641   0.54108   0.00000  Uiso   1.00
C975   C     0.62162   0.90926   0.59863   0.00000  Uiso   1.00
H976   H     0.65172   0.93091   0.61108   0.00000  Uiso   1.00
H977   H     0.62849   0.86979   0.60961   0.00000  Uiso   1.00
C978   C     0.58147   0.92798   0.63249   0.00000  Uiso   1.00
H979   H     0.57381   0.96706   0.62134   0.00000  Uiso   1.00
H980   H     0.55164   0.90465   0.62336   0.00000  Uiso   1.00
C981   C     0.59080   0.92516   0.36106   0.00000  Uiso   1.00
H982   H     0.59834   0.88623   0.37310   0.00000  Uiso   1.00
H983   H     0.56085   0.93789   0.38441   0.00000  Uiso   1.00
H984   H     0.61959   0.94941   0.37232   0.00000  Uiso   1.00
O985   O     0.25000   0.09512   0.87895   0.00000  Uiso   1.00
O986   O     0.25000   0.23822   0.78772   0.00000  Uiso   1.00
O987   O     0.25000   0.23822   0.87895   0.00000  Uiso   1.00
O988   O     0.25000   0.09512   0.78772   0.00000  Uiso   1.00
C989   C     0.25003   0.07261   0.83319   0.00000  Uiso   1.00
C990   C     0.25003   0.26072   0.83348   0.00000  Uiso   1.00
O991   O     0.18392   0.16667   0.87896   0.00000  Uiso   1.00
O992   O     0.31607   0.16667   0.78770   0.00000  Uiso   1.00
O993   O     0.31607   0.16667   0.87896   0.00000  Uiso   1.00
O994   O     0.18392   0.16667   0.78770   0.00000  Uiso   1.00
C995   C     0.16317   0.16668   0.83333   0.00000  Uiso   1.00
C996   C     0.33680   0.16666   0.83334   0.00000  Uiso   1.00
Zn997  Zn    0.25000   0.16667   0.89426   0.00000  Uiso   1.00
Zn998  Zn    0.25000   0.16667   0.77241   0.00000  Uiso   1.00
N999   N     0.25000   0.16667   0.69121   0.00000  Uiso   1.00
N1000  N     0.25000   0.16667   0.97545   0.00000  Uiso   1.00
C1001  C     0.40749   0.21167   0.82577   0.00000  Uiso   1.00
C1002  C     0.09251   0.12410   0.81452   0.00000  Uiso   1.00
C1003  C     0.40749   0.12166   0.84093   0.00000  Uiso   1.00
C1004  C     0.09252   0.20926   0.85217   0.00000  Uiso   1.00
C1005  C     0.38450   0.16666   0.83334   0.00000  Uiso   1.00
C1006  C     0.11542   0.16668   0.83334   0.00000  Uiso   1.00
C1007  C     0.45347   0.12112   0.83198   0.00000  Uiso   1.00
C1008  C     0.04640   0.21131   0.84460   0.00000  Uiso   1.00
C1009  C     0.45347   0.21222   0.83474   0.00000  Uiso   1.00
C1010  C     0.04640   0.12204   0.82212   0.00000  Uiso   1.00
C1011  C     0.47672   0.16667   0.83337   0.00000  Uiso   1.00
C1012  C     0.02321   0.16667   0.83337   0.00000  Uiso   1.00
C1013  C     0.47675   0.07637   0.82429   0.00000  Uiso   1.00
C1014  C     0.02292   0.25637   0.84926   0.00000  Uiso   1.00
C1015  C     0.47675   0.25697   0.84244   0.00000  Uiso   1.00
C1016  C     0.02292   0.07697   0.81746   0.00000  Uiso   1.00
C1017  C     0.25006   0.02170   0.83312   0.00000  Uiso   1.00
C1018  C     0.25006   0.31163   0.83354   0.00000  Uiso   1.00
H1019  H     0.45911   0.04131   0.82180   0.00000  Uiso   1.00
H1020  H     0.04023   0.29118   0.85682   0.00000  Uiso   1.00
H1021  H     0.45911   0.29202   0.84493   0.00000  Uiso   1.00
H1022  H     0.04023   0.04217   0.80989   0.00000  Uiso   1.00
O1023  O     0.38547   0.25488   0.81052   0.00000  Uiso   1.00
C1024  C     0.37945   0.25476   0.75227   0.00000  Uiso   1.00
H1025  H     0.35337   0.28284   0.74256   0.00000  Uiso   1.00
H1026  H     0.36677   0.21854   0.73622   0.00000  Uiso   1.00
C1027  C     0.42245   0.26841   0.72093   0.00000  Uiso   1.00
H1028  H     0.43349   0.30629   0.73346   0.00000  Uiso   1.00
H1029  H     0.44969   0.24185   0.73065   0.00000  Uiso   1.00
C1030  C     0.41512   0.26607   0.99189   0.00000  Uiso   1.00
H1031  H     0.40651   0.22750   0.97878   0.00000  Uiso   1.00
H1032  H     0.44636   0.27714   0.97040   0.00000  Uiso   1.00
H1033  H     0.38761   0.29140   0.97947   0.00000  Uiso   1.00
O1034  O     0.11525   0.08364   0.79221   0.00000  Uiso   1.00
C1035  C     0.12154   0.09085   0.73466   0.00000  Uiso   1.00
H1036  H     0.15170   0.06932   0.72217   0.00000  Uiso   1.00
H1037  H     0.12830   0.13035   0.72370   0.00000  Uiso   1.00
C1038  C     0.08143   0.07199   0.70083   0.00000  Uiso   1.00
H1039  H     0.07395   0.03286   0.71189   0.00000  Uiso   1.00
H1040  H     0.05151   0.09513   0.71007   0.00000  Uiso   1.00
C1041  C     0.09066   0.07499   0.97225   0.00000  Uiso   1.00
H1042  H     0.09782   0.11402   0.96027   0.00000  Uiso   1.00
H1043  H     0.06079   0.06197   0.94892   0.00000  Uiso   1.00
H1044  H     0.11964   0.05109   0.96090   0.00000  Uiso   1.00
O1045  O     0.38546   0.07845   0.85617   0.00000  Uiso   1.00
C1046  C     0.37943   0.07857   0.91442   0.00000  Uiso   1.00
H1047  H     0.35335   0.05048   0.92412   0.00000  Uiso   1.00
H1048  H     0.36675   0.11478   0.93046   0.00000  Uiso   1.00
C1049  C     0.42243   0.06492   0.94578   0.00000  Uiso   1.00
H1050  H     0.43347   0.02705   0.93324   0.00000  Uiso   1.00
H1051  H     0.44966   0.09149   0.93607   0.00000  Uiso   1.00
C1052  C     0.41508   0.06725   0.67482   0.00000  Uiso   1.00
H1053  H     0.40646   0.10581   0.68792   0.00000  Uiso   1.00
H1054  H     0.44633   0.05620   0.69631   0.00000  Uiso   1.00
H1055  H     0.38758   0.04191   0.68721   0.00000  Uiso   1.00
O1056  O     0.11527   0.24974   0.87441   0.00000  Uiso   1.00
C1057  C     0.12162   0.24260   0.93196   0.00000  Uiso   1.00
H1058  H     0.15172   0.26425   0.94441   0.00000  Uiso   1.00
H1059  H     0.12849   0.20313   0.94294   0.00000  Uiso   1.00
C1060  C     0.08147   0.26132   0.96582   0.00000  Uiso   1.00
H1061  H     0.07381   0.30040   0.95468   0.00000  Uiso   1.00
H1062  H     0.05164   0.23799   0.95669   0.00000  Uiso   1.00
C1063  C     0.09080   0.25850   0.69439   0.00000  Uiso   1.00
H1064  H     0.09834   0.21956   0.70643   0.00000  Uiso   1.00
H1065  H     0.06085   0.27122   0.71775   0.00000  Uiso   1.00
H1066  H     0.11959   0.28275   0.70565   0.00000  Uiso   1.00
O1067  O     0.75000   0.09512   0.87895   0.00000  Uiso   1.00
O1068  O     0.75000   0.23822   0.78772   0.00000  Uiso   1.00
O1069  O     0.75000   0.23822   0.87895   0.00000  Uiso   1.00
O1070  O     0.75000   0.09512   0.78772   0.00000  Uiso   1.00
C1071  C     0.75003   0.07261   0.83319   0.00000  Uiso   1.00
C1072  C     0.75003   0.26072   0.83348   0.00000  Uiso   1.00
O1073  O     0.68392   0.16667   0.87896   0.00000  Uiso   1.00
O1074  O     0.81607   0.16667   0.78770   0.00000  Uiso   1.00
O1075  O     0.81607   0.16667   0.87896   0.00000  Uiso   1.00
O1076  O     0.68392   0.16667   0.78770   0.00000  Uiso   1.00
C1077  C     0.66317   0.16668   0.83333   0.00000  Uiso   1.00
C1078  C     0.83680   0.16666   0.83334   0.00000  Uiso   1.00
Zn1079 Zn    0.75000   0.16667   0.89426   0.00000  Uiso   1.00
Zn1080 Zn    0.75000   0.16667   0.77241   0.00000  Uiso   1.00
N1081  N     0.75000   0.16667   0.69121   0.00000  Uiso   1.00
N1082  N     0.75000   0.16667   0.97545   0.00000  Uiso   1.00
C1083  C     0.90749   0.21167   0.82577   0.00000  Uiso   1.00
C1084  C     0.59251   0.12410   0.81452   0.00000  Uiso   1.00
C1085  C     0.90749   0.12166   0.84093   0.00000  Uiso   1.00
C1086  C     0.59252   0.20926   0.85217   0.00000  Uiso   1.00
C1087  C     0.88450   0.16666   0.83334   0.00000  Uiso   1.00
C1088  C     0.61542   0.16668   0.83334   0.00000  Uiso   1.00
C1089  C     0.95347   0.12112   0.83198   0.00000  Uiso   1.00
C1090  C     0.54640   0.21131   0.84460   0.00000  Uiso   1.00
C1091  C     0.95347   0.21222   0.83474   0.00000  Uiso   1.00
C1092  C     0.54640   0.12204   0.82212   0.00000  Uiso   1.00
C1093  C     0.97672   0.16667   0.83337   0.00000  Uiso   1.00
C1094  C     0.52321   0.16667   0.83337   0.00000  Uiso   1.00
C1095  C     0.97675   0.07637   0.82429   0.00000  Uiso   1.00
C1096  C     0.52292   0.25637   0.84926   0.00000  Uiso   1.00
C1097  C     0.97675   0.25697   0.84244   0.00000  Uiso   1.00
C1098  C     0.52292   0.07697   0.81746   0.00000  Uiso   1.00
C1099  C     0.75006   0.02170   0.83312   0.00000  Uiso   1.00
C1100  C     0.75006   0.31163   0.83354   0.00000  Uiso   1.00
H1101  H     0.95911   0.04131   0.82180   0.00000  Uiso   1.00
H1102  H     0.54023   0.29118   0.85682   0.00000  Uiso   1.00
H1103  H     0.95911   0.29202   0.84493   0.00000  Uiso   1.00
H1104  H     0.54023   0.04217   0.80989   0.00000  Uiso   1.00
O1105  O     0.88547   0.25488   0.81052   0.00000  Uiso   1.00
C1106  C     0.87945   0.25476   0.75227   0.00000  Uiso   1.00
H1107  H     0.85337   0.28284   0.74256   0.00000  Uiso   1.00
H1108  H     0.86677   0.21854   0.73622   0.00000  Uiso   1.00
C1109  C     0.92245   0.26841   0.72093   0.00000  Uiso   1.00
H1110  H     0.93349   0.30629   0.73346   0.00000  Uiso   1.00
H1111  H     0.94969   0.24185   0.73065   0.00000  Uiso   1.00
C1112  C     0.91512   0.26607   0.99189   0.00000  Uiso   1.00
H1113  H     0.90651   0.22750   0.97878   0.00000  Uiso   1.00
H1114  H     0.94636   0.27714   0.97040   0.00000  Uiso   1.00
H1115  H     0.88761   0.29140   0.97947   0.00000  Uiso   1.00
O1116  O     0.61525   0.08364   0.79221   0.00000  Uiso   1.00
C1117  C     0.62154   0.09085   0.73466   0.00000  Uiso   1.00
H1118  H     0.65170   0.06932   0.72217   0.00000  Uiso   1.00
H1119  H     0.62830   0.13035   0.72370   0.00000  Uiso   1.00
C1120  C     0.58143   0.07199   0.70083   0.00000  Uiso   1.00
H1121  H     0.57395   0.03286   0.71189   0.00000  Uiso   1.00
H1122  H     0.55151   0.09513   0.71007   0.00000  Uiso   1.00
C1123  C     0.59066   0.07499   0.97225   0.00000  Uiso   1.00
H1124  H     0.59782   0.11402   0.96027   0.00000  Uiso   1.00
H1125  H     0.56079   0.06197   0.94892   0.00000  Uiso   1.00
H1126  H     0.61964   0.05109   0.96090   0.00000  Uiso   1.00
O1127  O     0.88546   0.07845   0.85617   0.00000  Uiso   1.00
C1128  C     0.87943   0.07857   0.91442   0.00000  Uiso   1.00
H1129  H     0.85335   0.05048   0.92412   0.00000  Uiso   1.00
H1130  H     0.86675   0.11478   0.93046   0.00000  Uiso   1.00
C1131  C     0.92243   0.06492   0.94578   0.00000  Uiso   1.00
H1132  H     0.93347   0.02705   0.93324   0.00000  Uiso   1.00
H1133  H     0.94966   0.09149   0.93607   0.00000  Uiso   1.00
C1134  C     0.91508   0.06725   0.67482   0.00000  Uiso   1.00
H1135  H     0.90646   0.10581   0.68792   0.00000  Uiso   1.00
H1136  H     0.94633   0.05620   0.69631   0.00000  Uiso   1.00
H1137  H     0.88758   0.04191   0.68721   0.00000  Uiso   1.00
O1138  O     0.61527   0.24974   0.87441   0.00000  Uiso   1.00
C1139  C     0.62162   0.24260   0.93196   0.00000  Uiso   1.00
H1140  H     0.65172   0.26425   0.94441   0.00000  Uiso   1.00
H1141  H     0.62849   0.20313   0.94294   0.00000  Uiso   1.00
C1142  C     0.58147   0.26132   0.96582   0.00000  Uiso   1.00
H1143  H     0.57381   0.30040   0.95468   0.00000  Uiso   1.00
H1144  H     0.55164   0.23799   0.95669   0.00000  Uiso   1.00
C1145  C     0.59080   0.25850   0.69439   0.00000  Uiso   1.00
H1146  H     0.59834   0.21956   0.70643   0.00000  Uiso   1.00
H1147  H     0.56085   0.27122   0.71775   0.00000  Uiso   1.00
H1148  H     0.61959   0.28275   0.70565   0.00000  Uiso   1.00
O1149  O     0.25000   0.42845   0.87895   0.00000  Uiso   1.00
O1150  O     0.25000   0.57155   0.78772   0.00000  Uiso   1.00
O1151  O     0.25000   0.57155   0.87895   0.00000  Uiso   1.00
O1152  O     0.25000   0.42845   0.78772   0.00000  Uiso   1.00
C1153  C     0.25003   0.40594   0.83319   0.00000  Uiso   1.00
C1154  C     0.25003   0.59406   0.83348   0.00000  Uiso   1.00
O1155  O     0.18392   0.50000   0.87896   0.00000  Uiso   1.00
O1156  O     0.31607   0.50000   0.78770   0.00000  Uiso   1.00
O1157  O     0.31607   0.50000   0.87896   0.00000  Uiso   1.00
O1158  O     0.18392   0.50000   0.78770   0.00000  Uiso   1.00
C1159  C     0.16317   0.50001   0.83333   0.00000  Uiso   1.00
C1160  C     0.33680   0.50000   0.83334   0.00000  Uiso   1.00
Zn1161 Zn    0.25000   0.50000   0.89426   0.00000  Uiso   1.00
Zn1162 Zn    0.25000   0.50000   0.77241   0.00000  Uiso   1.00
N1163  N     0.25000   0.50000   0.69121   0.00000  Uiso   1.00
N1164  N     0.25000   0.50000   0.97545   0.00000  Uiso   1.00
C1165  C     0.40749   0.54500   0.82577   0.00000  Uiso   1.00
C1166  C     0.09251   0.45743   0.81452   0.00000  Uiso   1.00
C1167  C     0.40749   0.45500   0.84093   0.00000  Uiso   1.00
C1168  C     0.09252   0.54259   0.85217   0.00000  Uiso   1.00
C1169  C     0.38450   0.50000   0.83334   0.00000  Uiso   1.00
C1170  C     0.11542   0.50001   0.83334   0.00000  Uiso   1.00
C1171  C     0.45347   0.45445   0.83198   0.00000  Uiso   1.00
C1172  C     0.04640   0.54464   0.84460   0.00000  Uiso   1.00
C1173  C     0.45347   0.54555   0.83474   0.00000  Uiso   1.00
C1174  C     0.04640   0.45537   0.82212   0.00000  Uiso   1.00
C1175  C     0.47672   0.50000   0.83337   0.00000  Uiso   1.00
C1176  C     0.02321   0.50000   0.83337   0.00000  Uiso   1.00
C1177  C     0.47675   0.40970   0.82429   0.00000  Uiso   1.00
C1178  C     0.02292   0.58971   0.84926   0.00000  Uiso   1.00
C1179  C     0.47675   0.59030   0.84244   0.00000  Uiso   1.00
C1180  C     0.02292   0.41030   0.81746   0.00000  Uiso   1.00
C1181  C     0.25006   0.35504   0.83312   0.00000  Uiso   1.00
C1182  C     0.25006   0.64496   0.83354   0.00000  Uiso   1.00
H1183  H     0.45911   0.37465   0.82180   0.00000  Uiso   1.00
H1184  H     0.04023   0.62451   0.85682   0.00000  Uiso   1.00
H1185  H     0.45911   0.62536   0.84493   0.00000  Uiso   1.00
H1186  H     0.04023   0.37550   0.80989   0.00000  Uiso   1.00
O1187  O     0.38547   0.58821   0.81052   0.00000  Uiso   1.00
C1188  C     0.37945   0.58809   0.75227   0.00000  Uiso   1.00
H1189  H     0.35337   0.61617   0.74256   0.00000  Uiso   1.00
H1190  H     0.36677   0.55187   0.73622   0.00000  Uiso   1.00
C1191  C     0.42245   0.60175   0.72093   0.00000  Uiso   1.00
H1192  H     0.43349   0.63962   0.73346   0.00000  Uiso   1.00
H1193  H     0.44969   0.57519   0.73065   0.00000  Uiso   1.00
C1194  C     0.41512   0.59940   0.99189   0.00000  Uiso   1.00
H1195  H     0.40651   0.56084   0.97878   0.00000  Uiso   1.00
H1196  H     0.44636   0.61048   0.97040   0.00000  Uiso   1.00
H1197  H     0.38761   0.62473   0.97947   0.00000  Uiso   1.00
O1198  O     0.11525   0.41698   0.79221   0.00000  Uiso   1.00
C1199  C     0.12154   0.42418   0.73466   0.00000  Uiso   1.00
H1200  H     0.15170   0.40265   0.72217   0.00000  Uiso   1.00
H1201  H     0.12830   0.46368   0.72370   0.00000  Uiso   1.00
C1202  C     0.08143   0.40533   0.70083   0.00000  Uiso   1.00
H1203  H     0.07395   0.36619   0.71189   0.00000  Uiso   1.00
H1204  H     0.05151   0.42847   0.71007   0.00000  Uiso   1.00
C1205  C     0.09066   0.40832   0.97225   0.00000  Uiso   1.00
H1206  H     0.09782   0.44735   0.96027   0.00000  Uiso   1.00
H1207  H     0.06079   0.39530   0.94892   0.00000  Uiso   1.00
H1208  H     0.11964   0.38443   0.96090   0.00000  Uiso   1.00
O1209  O     0.38546   0.41179   0.85617   0.00000  Uiso   1.00
C1210  C     0.37943   0.41190   0.91442   0.00000  Uiso   1.00
H1211  H     0.35335   0.38381   0.92412   0.00000  Uiso   1.00
H1212  H     0.36675   0.44812   0.93046   0.00000  Uiso   1.00
C1213  C     0.42243   0.39825   0.94578   0.00000  Uiso   1.00
H1214  H     0.43347   0.36038   0.93324   0.00000  Uiso   1.00
H1215  H     0.44966   0.42482   0.93607   0.00000  Uiso   1.00
C1216  C     0.41508   0.40059   0.67482   0.00000  Uiso   1.00
H1217  H     0.40646   0.43915   0.68792   0.00000  Uiso   1.00
H1218  H     0.44633   0.38953   0.69631   0.00000  Uiso   1.00
H1219  H     0.38758   0.37524   0.68721   0.00000  Uiso   1.00
O1220  O     0.11527   0.58308   0.87441   0.00000  Uiso   1.00
C1221  C     0.12162   0.57593   0.93196   0.00000  Uiso   1.00
H1222  H     0.15172   0.59758   0.94441   0.00000  Uiso   1.00
H1223  H     0.12849   0.53646   0.94294   0.00000  Uiso   1.00
C1224  C     0.08147   0.59465   0.96582   0.00000  Uiso   1.00
H1225  H     0.07381   0.63373   0.95468   0.00000  Uiso   1.00
H1226  H     0.05164   0.57132   0.95669   0.00000  Uiso   1.00
C1227  C     0.09080   0.59183   0.69439   0.00000  Uiso   1.00
H1228  H     0.09834   0.55289   0.70643   0.00000  Uiso   1.00
H1229  H     0.06085   0.60455   0.71775   0.00000  Uiso   1.00
H1230  H     0.11959   0.61608   0.70565   0.00000  Uiso   1.00
O1231  O     0.75000   0.42845   0.87895   0.00000  Uiso   1.00
O1232  O     0.75000   0.57155   0.78772   0.00000  Uiso   1.00
O1233  O     0.75000   0.57155   0.87895   0.00000  Uiso   1.00
O1234  O     0.75000   0.42845   0.78772   0.00000  Uiso   1.00
C1235  C     0.75003   0.40594   0.83319   0.00000  Uiso   1.00
C1236  C     0.75003   0.59406   0.83348   0.00000  Uiso   1.00
O1237  O     0.68392   0.50000   0.87896   0.00000  Uiso   1.00
O1238  O     0.81607   0.50000   0.78770   0.00000  Uiso   1.00
O1239  O     0.81607   0.50000   0.87896   0.00000  Uiso   1.00
O1240  O     0.68392   0.50000   0.78770   0.00000  Uiso   1.00
C1241  C     0.66317   0.50001   0.83333   0.00000  Uiso   1.00
C1242  C     0.83680   0.50000   0.83334   0.00000  Uiso   1.00
Zn1243 Zn    0.75000   0.50000   0.89426   0.00000  Uiso   1.00
Zn1244 Zn    0.75000   0.50000   0.77241   0.00000  Uiso   1.00
N1245  N     0.75000   0.50000   0.69121   0.00000  Uiso   1.00
N1246  N     0.75000   0.50000   0.97545   0.00000  Uiso   1.00
C1247  C     0.90749   0.54500   0.82577   0.00000  Uiso   1.00
C1248  C     0.59251   0.45743   0.81452   0.00000  Uiso   1.00
C1249  C     0.90749   0.45500   0.84093   0.00000  Uiso   1.00
C1250  C     0.59252   0.54259   0.85217   0.00000  Uiso   1.00
C1251  C     0.88450   0.50000   0.83334   0.00000  Uiso   1.00
C1252  C     0.61542   0.50001   0.83334   0.00000  Uiso   1.00
C1253  C     0.95347   0.45445   0.83198   0.00000  Uiso   1.00
C1254  C     0.54640   0.54464   0.84460   0.00000  Uiso   1.00
C1255  C     0.95347   0.54555   0.83474   0.00000  Uiso   1.00
C1256  C     0.54640   0.45537   0.82212   0.00000  Uiso   1.00
C1257  C     0.97672   0.50000   0.83337   0.00000  Uiso   1.00
C1258  C     0.52321   0.50000   0.83337   0.00000  Uiso   1.00
C1259  C     0.97675   0.40970   0.82429   0.00000  Uiso   1.00
C1260  C     0.52292   0.58971   0.84926   0.00000  Uiso   1.00
C1261  C     0.97675   0.59030   0.84244   0.00000  Uiso   1.00
C1262  C     0.52292   0.41030   0.81746   0.00000  Uiso   1.00
C1263  C     0.75006   0.35504   0.83312   0.00000  Uiso   1.00
C1264  C     0.75006   0.64496   0.83354   0.00000  Uiso   1.00
H1265  H     0.95911   0.37465   0.82180   0.00000  Uiso   1.00
H1266  H     0.54023   0.62451   0.85682   0.00000  Uiso   1.00
H1267  H     0.95911   0.62536   0.84493   0.00000  Uiso   1.00
H1268  H     0.54023   0.37550   0.80989   0.00000  Uiso   1.00
O1269  O     0.88547   0.58821   0.81052   0.00000  Uiso   1.00
C1270  C     0.87945   0.58809   0.75227   0.00000  Uiso   1.00
H1271  H     0.85337   0.61617   0.74256   0.00000  Uiso   1.00
H1272  H     0.86677   0.55187   0.73622   0.00000  Uiso   1.00
C1273  C     0.92245   0.60175   0.72093   0.00000  Uiso   1.00
H1274  H     0.93349   0.63962   0.73346   0.00000  Uiso   1.00
H1275  H     0.94969   0.57519   0.73065   0.00000  Uiso   1.00
C1276  C     0.91512   0.59940   0.99189   0.00000  Uiso   1.00
H1277  H     0.90651   0.56084   0.97878   0.00000  Uiso   1.00
H1278  H     0.94636   0.61048   0.97040   0.00000  Uiso   1.00
H1279  H     0.88761   0.62473   0.97947   0.00000  Uiso   1.00
O1280  O     0.61525   0.41698   0.79221   0.00000  Uiso   1.00
C1281  C     0.62154   0.42418   0.73466   0.00000  Uiso   1.00
H1282  H     0.65170   0.40265   0.72217   0.00000  Uiso   1.00
H1283  H     0.62830   0.46368   0.72370   0.00000  Uiso   1.00
C1284  C     0.58143   0.40533   0.70083   0.00000  Uiso   1.00
H1285  H     0.57395   0.36619   0.71189   0.00000  Uiso   1.00
H1286  H     0.55151   0.42847   0.71007   0.00000  Uiso   1.00
C1287  C     0.59066   0.40832   0.97225   0.00000  Uiso   1.00
H1288  H     0.59782   0.44735   0.96027   0.00000  Uiso   1.00
H1289  H     0.56079   0.39530   0.94892   0.00000  Uiso   1.00
H1290  H     0.61964   0.38443   0.96090   0.00000  Uiso   1.00
O1291  O     0.88546   0.41179   0.85617   0.00000  Uiso   1.00
C1292  C     0.87943   0.41190   0.91442   0.00000  Uiso   1.00
H1293  H     0.85335   0.38381   0.92412   0.00000  Uiso   1.00
H1294  H     0.86675   0.44812   0.93046   0.00000  Uiso   1.00
C1295  C     0.92243   0.39825   0.94578   0.00000  Uiso   1.00
H1296  H     0.93347   0.36038   0.93324   0.00000  Uiso   1.00
H1297  H     0.94966   0.42482   0.93607   0.00000  Uiso   1.00
C1298  C     0.91508   0.40059   0.67482   0.00000  Uiso   1.00
H1299  H     0.90646   0.43915   0.68792   0.00000  Uiso   1.00
H1300  H     0.94633   0.38953   0.69631   0.00000  Uiso   1.00
H1301  H     0.88758   0.37524   0.68721   0.00000  Uiso   1.00
O1302  O     0.61527   0.58308   0.87441   0.00000  Uiso   1.00
C1303  C     0.62162   0.57593   0.93196   0.00000  Uiso   1.00
H1304  H     0.65172   0.59758   0.94441   0.00000  Uiso   1.00
H1305  H     0.62849   0.53646   0.94294   0.00000  Uiso   1.00
C1306  C     0.58147   0.59465   0.96582   0.00000  Uiso   1.00
H1307  H     0.57381   0.63373   0.95468   0.00000  Uiso   1.00
H1308  H     0.55164   0.57132   0.95669   0.00000  Uiso   1.00
C1309  C     0.59080   0.59183   0.69439   0.00000  Uiso   1.00
H1310  H     0.59834   0.55289   0.70643   0.00000  Uiso   1.00
H1311  H     0.56085   0.60455   0.71775   0.00000  Uiso   1.00
H1312  H     0.61959   0.61608   0.70565   0.00000  Uiso   1.00
O1313  O     0.25000   0.76178   0.87895   0.00000  Uiso   1.00
O1314  O     0.25000   0.90488   0.78772   0.00000  Uiso   1.00
O1315  O     0.25000   0.90488   0.87895   0.00000  Uiso   1.00
O1316  O     0.25000   0.76178   0.78772   0.00000  Uiso   1.00
C1317  C     0.25003   0.73927   0.83319   0.00000  Uiso   1.00
C1318  C     0.25003   0.92739   0.83348   0.00000  Uiso   1.00
O1319  O     0.18392   0.83333   0.87896   0.00000  Uiso   1.00
O1320  O     0.31607   0.83333   0.78770   0.00000  Uiso   1.00
O1321  O     0.31607   0.83333   0.87896   0.00000  Uiso   1.00
O1322  O     0.18392   0.83333   0.78770   0.00000  Uiso   1.00
C1323  C     0.16317   0.83334   0.83333   0.00000  Uiso   1.00
C1324  C     0.33680   0.83333   0.83334   0.00000  Uiso   1.00
Zn1325 Zn    0.25000   0.83333   0.89426   0.00000  Uiso   1.00
Zn1326 Zn    0.25000   0.83333   0.77241   0.00000  Uiso   1.00
N1327  N     0.25000   0.83333   0.69121   0.00000  Uiso   1.00
N1328  N     0.25000   0.83333   0.97545   0.00000  Uiso   1.00
C1329  C     0.40749   0.87833   0.82577   0.00000  Uiso   1.00
C1330  C     0.09251   0.79077   0.81452   0.00000  Uiso   1.00
C1331  C     0.40749   0.78833   0.84093   0.00000  Uiso   1.00
C1332  C     0.09252   0.87593   0.85217   0.00000  Uiso   1.00
C1333  C     0.38450   0.83333   0.83334   0.00000  Uiso   1.00
C1334  C     0.11542   0.83335   0.83334   0.00000  Uiso   1.00
C1335  C     0.45347   0.78779   0.83198   0.00000  Uiso   1.00
C1336  C     0.04640   0.87797   0.84460   0.00000  Uiso   1.00
C1337  C     0.45347   0.87888   0.83474   0.00000  Uiso   1.00
C1338  C     0.04640   0.78871   0.82212   0.00000  Uiso   1.00
C1339  C     0.47672   0.83334   0.83337   0.00000  Uiso   1.00
C1340  C     0.02321   0.83334   0.83337   0.00000  Uiso   1.00
C1341  C     0.47675   0.74303   0.82429   0.00000  Uiso   1.00
C1342  C     0.02292   0.92304   0.84926   0.00000  Uiso   1.00
C1343  C     0.47675   0.92364   0.84244   0.00000  Uiso   1.00
C1344  C     0.02292   0.74364   0.81746   0.00000  Uiso   1.00
C1345  C     0.25006   0.68837   0.83312   0.00000  Uiso   1.00
C1346  C     0.25006   0.97830   0.83354   0.00000  Uiso   1.00
H1347  H     0.45911   0.70798   0.82180   0.00000  Uiso   1.00
H1348  H     0.04023   0.95785   0.85682   0.00000  Uiso   1.00
H1349  H     0.45911   0.95869   0.84493   0.00000  Uiso   1.00
H1350  H     0.04023   0.70884   0.80989   0.00000  Uiso   1.00
O1351  O     0.38547   0.92154   0.81052   0.00000  Uiso   1.00
C1352  C     0.37945   0.92143   0.75227   0.00000  Uiso   1.00
H1353  H     0.35337   0.94951   0.74256   0.00000  Uiso   1.00
H1354  H     0.36677   0.88521   0.73622   0.00000  Uiso   1.00
C1355  C     0.42245   0.93508   0.72093   0.00000  Uiso   1.00
H1356  H     0.43349   0.97296   0.73346   0.00000  Uiso   1.00
H1357  H     0.44969   0.90852   0.73065   0.00000  Uiso   1.00
C1358  C     0.41512   0.93274   0.99189   0.00000  Uiso   1.00
H1359  H     0.40651   0.89417   0.97878   0.00000  Uiso   1.00
H1360  H     0.44636   0.94381   0.97040   0.00000  Uiso   1.00
H1361  H     0.38761   0.95806   0.97947   0.00000  Uiso   1.00
O1362  O     0.11525   0.75031   0.79221   0.00000  Uiso   1.00
C1363  C     0.12154   0.75752   0.73466   0.00000  Uiso   1.00
H1364  H     0.15170   0.73599   0.72217   0.00000  Uiso   1.00
H1365  H     0.12830   0.79702   0.72370   0.00000  Uiso   1.00
C1366  C     0.08143   0.73866   0.70083   0.00000  Uiso   1.00
H1367  H     0.07395   0.69952   0.71189   0.00000  Uiso   1.00
H1368  H     0.05151   0.76180   0.71007   0.00000  Uiso   1.00
C1369  C     0.09066   0.74166   0.97225   0.00000  Uiso   1.00
H1370  H     0.09782   0.78069   0.96027   0.00000  Uiso   1.00
H1371  H     0.06079   0.72863   0.94892   0.00000  Uiso   1.00
H1372  H     0.11964   0.71776   0.96090   0.00000  Uiso   1.00
O1373  O     0.38546   0.74512   0.85617   0.00000  Uiso   1.00
C1374  C     0.37943   0.74523   0.91442   0.00000  Uiso   1.00
H1375  H     0.35335   0.71715   0.92412   0.00000  Uiso   1.00
H1376  H     0.36675   0.78145   0.93046   0.00000  Uiso   1.00
C1377  C     0.42243   0.73159   0.94578   0.00000  Uiso   1.00
H1378  H     0.43347   0.69371   0.93324   0.00000  Uiso   1.00
H1379  H     0.44966   0.75815   0.93607   0.00000  Uiso   1.00
C1380  C     0.41508   0.73392   0.67482   0.00000  Uiso   1.00
H1381  H     0.40646   0.77248   0.68792   0.00000  Uiso   1.00
H1382  H     0.44633   0.72286   0.69631   0.00000  Uiso   1.00
H1383  H     0.38758   0.70858   0.68721   0.00000  Uiso   1.00
O1384  O     0.11527   0.91641   0.87441   0.00000  Uiso   1.00
C1385  C     0.12162   0.90926   0.93196   0.00000  Uiso   1.00
H1386  H     0.15172   0.93091   0.94441   0.00000  Uiso   1.00
H1387  H     0.12849   0.86979   0.94294   0.00000  Uiso   1.00
C1388  C     0.08147   0.92798   0.96582   0.00000  Uiso   1.00
H1389  H     0.07381   0.96706   0.95468   0.00000  Uiso   1.00
H1390  H     0.05164   0.90465   0.95669   0.00000  Uiso   1.00
C1391  C     0.09080   0.92516   0.69439   0.00000  Uiso   1.00
H1392  H     0.09834   0.88623   0.70643   0.00000  Uiso   1.00
H1393  H     0.06085   0.93789   0.71775   0.00000  Uiso   1.00
H1394  H     0.11959   0.94941   0.70565   0.00000  Uiso   1.00
O1395  O     0.75000   0.76178   0.87895   0.00000  Uiso   1.00
O1396  O     0.75000   0.90488   0.78772   0.00000  Uiso   1.00
O1397  O     0.75000   0.90488   0.87895   0.00000  Uiso   1.00
O1398  O     0.75000   0.76178   0.78772   0.00000  Uiso   1.00
C1399  C     0.75003   0.73927   0.83319   0.00000  Uiso   1.00
C1400  C     0.75003   0.92739   0.83348   0.00000  Uiso   1.00
O1401  O     0.68392   0.83333   0.87896   0.00000  Uiso   1.00
O1402  O     0.81607   0.83333   0.78770   0.00000  Uiso   1.00
O1403  O     0.81607   0.83333   0.87896   0.00000  Uiso   1.00
O1404  O     0.68392   0.83333   0.78770   0.00000  Uiso   1.00
C1405  C     0.66317   0.83334   0.83333   0.00000  Uiso   1.00
C1406  C     0.83680   0.83333   0.83334   0.00000  Uiso   1.00
Zn1407 Zn    0.75000   0.83333   0.89426   0.00000  Uiso   1.00
Zn1408 Zn    0.75000   0.83333   0.77241   0.00000  Uiso   1.00
N1409  N     0.75000   0.83333   0.69121   0.00000  Uiso   1.00
N1410  N     0.75000   0.83333   0.97545   0.00000  Uiso   1.00
C1411  C     0.90749   0.87833   0.82577   0.00000  Uiso   1.00
C1412  C     0.59251   0.79077   0.81452   0.00000  Uiso   1.00
C1413  C     0.90749   0.78833   0.84093   0.00000  Uiso   1.00
C1414  C     0.59252   0.87593   0.85217   0.00000  Uiso   1.00
C1415  C     0.88450   0.83333   0.83334   0.00000  Uiso   1.00
C1416  C     0.61542   0.83335   0.83334   0.00000  Uiso   1.00
C1417  C     0.95347   0.78779   0.83198   0.00000  Uiso   1.00
C1418  C     0.54640   0.87797   0.84460   0.00000  Uiso   1.00
C1419  C     0.95347   0.87888   0.83474   0.00000  Uiso   1.00
C1420  C     0.54640   0.78871   0.82212   0.00000  Uiso   1.00
C1421  C     0.97672   0.83334   0.83337   0.00000  Uiso   1.00
C1422  C     0.52321   0.83334   0.83337   0.00000  Uiso   1.00
C1423  C     0.97675   0.74303   0.82429   0.00000  Uiso   1.00
C1424  C     0.52292   0.92304   0.84926   0.00000  Uiso   1.00
C1425  C     0.97675   0.92364   0.84244   0.00000  Uiso   1.00
C1426  C     0.52292   0.74364   0.81746   0.00000  Uiso   1.00
C1427  C     0.75006   0.68837   0.83312   0.00000  Uiso   1.00
C1428  C     0.75006   0.97830   0.83354   0.00000  Uiso   1.00
H1429  H     0.95911   0.70798   0.82180   0.00000  Uiso   1.00
H1430  H     0.54023   0.95785   0.85682   0.00000  Uiso   1.00
H1431  H     0.95911   0.95869   0.84493   0.00000  Uiso   1.00
H1432  H     0.54023   0.70884   0.80989   0.00000  Uiso   1.00
O1433  O     0.88547   0.92154   0.81052   0.00000  Uiso   1.00
C1434  C     0.87945   0.92143   0.75227   0.00000  Uiso   1.00
H1435  H     0.85337   0.94951   0.74256   0.00000  Uiso   1.00
H1436  H     0.86677   0.88521   0.73622   0.00000  Uiso   1.00
C1437  C     0.92245   0.93508   0.72093   0.00000  Uiso   1.00
H1438  H     0.93349   0.97296   0.73346   0.00000  Uiso   1.00
H1439  H     0.94969   0.90852   0.73065   0.00000  Uiso   1.00
C1440  C     0.91512   0.93274   0.99189   0.00000  Uiso   1.00
H1441  H     0.90651   0.89417   0.97878   0.00000  Uiso   1.00
H1442  H     0.94636   0.94381   0.97040   0.00000  Uiso   1.00
H1443  H     0.88761   0.95806   0.97947   0.00000  Uiso   1.00
O1444  O     0.61525   0.75031   0.79221   0.00000  Uiso   1.00
C1445  C     0.62154   0.75752   0.73466   0.00000  Uiso   1.00
H1446  H     0.65170   0.73599   0.72217   0.00000  Uiso   1.00
H1447  H     0.62830   0.79702   0.72370   0.00000  Uiso   1.00
C1448  C     0.58143   0.73866   0.70083   0.00000  Uiso   1.00
H1449  H     0.57395   0.69952   0.71189   0.00000  Uiso   1.00
H1450  H     0.55151   0.76180   0.71007   0.00000  Uiso   1.00
C1451  C     0.59066   0.74166   0.97225   0.00000  Uiso   1.00
H1452  H     0.59782   0.78069   0.96027   0.00000  Uiso   1.00
H1453  H     0.56079   0.72863   0.94892   0.00000  Uiso   1.00
H1454  H     0.61964   0.71776   0.96090   0.00000  Uiso   1.00
O1455  O     0.88546   0.74512   0.85617   0.00000  Uiso   1.00
C1456  C     0.87943   0.74523   0.91442   0.00000  Uiso   1.00
H1457  H     0.85335   0.71715   0.92412   0.00000  Uiso   1.00
H1458  H     0.86675   0.78145   0.93046   0.00000  Uiso   1.00
C1459  C     0.92243   0.73159   0.94578   0.00000  Uiso   1.00
H1460  H     0.93347   0.69371   0.93324   0.00000  Uiso   1.00
H1461  H     0.94966   0.75815   0.93607   0.00000  Uiso   1.00
C1462  C     0.91508   0.73392   0.67482   0.00000  Uiso   1.00
H1463  H     0.90646   0.77248   0.68792   0.00000  Uiso   1.00
H1464  H     0.94633   0.72286   0.69631   0.00000  Uiso   1.00
H1465  H     0.88758   0.70858   0.68721   0.00000  Uiso   1.00
O1466  O     0.61527   0.91641   0.87441   0.00000  Uiso   1.00
C1467  C     0.62162   0.90926   0.93196   0.00000  Uiso   1.00
H1468  H     0.65172   0.93091   0.94441   0.00000  Uiso   1.00
H1469  H     0.62849   0.86979   0.94294   0.00000  Uiso   1.00
C1470  C     0.58147   0.92798   0.96582   0.00000  Uiso   1.00
H1471  H     0.57381   0.96706   0.95468   0.00000  Uiso   1.00
H1472  H     0.55164   0.90465   0.95669   0.00000  Uiso   1.00
C1473  C     0.59080   0.92516   0.69439   0.00000  Uiso   1.00
H1474  H     0.59834   0.88623   0.70643   0.00000  Uiso   1.00
H1475  H     0.56085   0.93789   0.71775   0.00000  Uiso   1.00
H1476  H     0.61959   0.94941   0.70565   0.00000  Uiso   1.00
loop_
_geom_bond_atom_site_label_1
_geom_bond_atom_site_label_2
_geom_bond_distance
_geom_bond_site_symmetry_2
_ccdc_geom_bond_type
O1     C5      1.258   .     A
O1     Zn13    1.955   .     S
O2     C6      1.258   .     A
O2     Zn14    1.955   .     S
O3     C6      1.261   .     A
O3     Zn13    1.961   .     S
O4     C5      1.261   .     A
O4     Zn14    1.961   .     S
C5     C33     1.368   .     S
C6     C34     1.368   .     S
O7     C11     1.267   .     A
O7     Zn13    2.008   .     S
O8     C12     1.267   .     A
O8     Zn14    2.008   .     S
O9     Zn13    2.008   .     S
O9     C12     1.267   .     A
O10    Zn14    2.008   .     S
O10    C11     1.267   .     A
C11    C22     1.426   .     S
C12    C21     1.425   .     S
Zn13   N16     1.967   .     S
Zn14   N15     1.967   .     S
N15    N1000   1.189   1_554 S
N16    N507    1.189   .     S
C17    O39     1.387   .     S
C17    C21     1.404   .     A
C17    C25     1.390   .     A
C18    C26     1.391   .     A
C18    O50     1.387   .     S
C18    C22     1.406   .     A
C19    C21     1.404   .     A
C19    C23     1.391   .     A
C19    O61     1.387   .     S
C20    C24     1.391   .     A
C20    C22     1.406   .     A
C20    O72     1.388   .     S
C23    C29     1.400   .     A
C23    C27     1.407   .     A
C24    C28     1.409   .     A
C24    C30     1.403   .     A
C25    C31     1.400   .     A
C25    C27     1.407   .     A
C26    C32     1.403   .     A
C26    C28     1.409   .     A
C27    C110    1.389   .     S
C28    C109    1.389   1_455 S
C29    H35     1.080   .     S
C29    C114    1.389   .     S
C30    H36     1.083   .     S
C30    C113    1.389   1_455 S
C31    H37     1.080   .     S
C31    C112    1.389   .     S
C32    H38     1.083   .     S
C32    C111    1.389   1_455 S
C33    C362    1.166   1_545 S
C34    C197    1.166   .     S
O39    C40     1.423   .     S
C40    C43     1.538   .     S
C40    H42     1.111   .     S
C40    H41     1.111   .     S
C43    H44     1.110   .     S
C43    H45     1.109   .     S
C43    C1030   1.528   1_554 S
C46    H49     1.110   .     S
C46    H48     1.110   .     S
C46    H47     1.111   .     S
C46    C535    1.528   .     S
O50    C51     1.422   .     S
C51    H52     1.111   .     S
C51    H53     1.115   .     S
C51    C54     1.535   .     S
C54    H55     1.110   .     S
C54    H56     1.110   .     S
C54    C1041   1.528   1_554 S
C57    H59     1.111   .     S
C57    H60     1.111   .     S
C57    H58     1.111   .     S
C57    C546    1.528   .     S
O61    C62     1.423   .     S
C62    H64     1.111   .     S
C62    H63     1.111   .     S
C62    C65     1.538   .     S
C65    H67     1.109   .     S
C65    H66     1.110   .     S
C65    C560    1.528   .     S
C68    H69     1.111   .     S
C68    H71     1.110   .     S
C68    H70     1.110   .     S
C68    C1049   1.528   1_554 S
O72    C73     1.422   .     S
C73    H74     1.111   .     S
C73    H75     1.115   .     S
C73    C76     1.535   .     S
C76    H78     1.110   .     S
C76    H77     1.110   .     S
C76    C571    1.528   .     S
C79    H81     1.111   .     S
C79    H82     1.111   .     S
C79    H80     1.112   .     S
C79    C1060   1.528   1_554 S
O83    C87     1.258   .     A
O83    Zn95    1.955   .     S
O84    C88     1.258   .     A
O84    Zn96    1.955   .     S
O85    C88     1.261   .     A
O85    Zn95    1.961   .     S
O86    C87     1.261   .     A
O86    Zn96    1.961   .     S
C87    C115    1.368   .     S
C88    C116    1.368   .     S
O89    C93     1.267   .     A
O89    Zn95    2.008   .     S
O90    C94     1.267   .     A
O90    Zn96    2.008   .     S
O91    Zn95    2.008   .     S
O91    C94     1.267   .     A
O92    Zn96    2.008   .     S
O92    C93     1.267   .     A
C93    C104    1.426   .     S
C94    C103    1.425   .     S
Zn95   N98     1.967   .     S
Zn96   N97     1.967   .     S
N97    N1082   1.189   1_554 S
N98    N589    1.189   .     S
C99    O121    1.387   .     S
C99    C103    1.404   .     A
C99    C107    1.390   .     A
C100   C108    1.391   .     A
C100   O132    1.387   .     S
C100   C104    1.406   .     A
C101   C103    1.404   .     A
C101   C105    1.391   .     A
C101   O143    1.387   .     S
C102   C106    1.391   .     A
C102   C104    1.406   .     A
C102   O154    1.388   .     S
C105   C111    1.400   .     A
C105   C109    1.407   .     A
C106   C110    1.409   .     A
C106   C112    1.403   .     A
C107   C113    1.400   .     A
C107   C109    1.407   .     A
C108   C114    1.403   .     A
C108   C110    1.409   .     A
C109   C28     1.389   1_655 S
C111   H117    1.080   .     S
C111   C32     1.389   1_655 S
C112   H118    1.083   .     S
C113   H119    1.080   .     S
C113   C30     1.389   1_655 S
C114   H120    1.083   .     S
C115   C444    1.166   1_545 S
C116   C279    1.166   .     S
O121   C122    1.423   .     S
C122   C125    1.538   .     S
C122   H124    1.111   .     S
C122   H123    1.111   .     S
C125   H126    1.110   .     S
C125   H127    1.109   .     S
C125   C1112   1.528   1_554 S
C128   H131    1.110   .     S
C128   H130    1.110   .     S
C128   H129    1.111   .     S
C128   C617    1.528   .     S
O132   C133    1.422   .     S
C133   H134    1.111   .     S
C133   H135    1.115   .     S
C133   C136    1.535   .     S
C136   H137    1.110   .     S
C136   H138    1.110   .     S
C136   C1123   1.528   1_554 S
C139   H141    1.111   .     S
C139   H142    1.111   .     S
C139   H140    1.111   .     S
C139   C628    1.528   .     S
O143   C144    1.423   .     S
C144   H146    1.111   .     S
C144   H145    1.111   .     S
C144   C147    1.538   .     S
C147   H149    1.109   .     S
C147   H148    1.110   .     S
C147   C642    1.528   .     S
C150   H151    1.111   .     S
C150   H153    1.110   .     S
C150   H152    1.110   .     S
C150   C1131   1.528   1_554 S
O154   C155    1.422   .     S
C155   H156    1.111   .     S
C155   H157    1.115   .     S
C155   C158    1.535   .     S
C158   H160    1.110   .     S
C158   H159    1.110   .     S
C158   C653    1.528   .     S
C161   H163    1.111   .     S
C161   H164    1.111   .     S
C161   H162    1.112   .     S
C161   C1142   1.528   1_554 S
O165   C169    1.258   .     A
O165   Zn177   1.955   .     S
O166   C170    1.258   .     A
O166   Zn178   1.955   .     S
O167   C170    1.261   .     A
O167   Zn177   1.961   .     S
O168   C169    1.261   .     A
O168   Zn178   1.961   .     S
C169   C197    1.368   .     S
C170   C198    1.368   .     S
O171   C175    1.267   .     A
O171   Zn177   2.008   .     S
O172   C176    1.267   .     A
O172   Zn178   2.008   .     S
O173   Zn177   2.008   .     S
O173   C176    1.267   .     A
O174   Zn178   2.008   .     S
O174   C175    1.267   .     A
C175   C186    1.426   .     S
C176   C185    1.425   .     S
Zn177  N180    1.967   .     S
Zn178  N179    1.967   .     S
N179   N1164   1.189   1_554 S
N180   N671    1.189   .     S
C181   O203    1.387   .     S
C181   C185    1.404   .     A
C181   C189    1.390   .     A
C182   C190    1.391   .     A
C182   O214    1.387   .     S
C182   C186    1.406   .     A
C183   C185    1.404   .     A
C183   C187    1.391   .     A
C183   O225    1.387   .     S
C184   C188    1.391   .     A
C184   C186    1.406   .     A
C184   O236    1.388   .     S
C187   C193    1.400   .     A
C187   C191    1.407   .     A
C188   C192    1.409   .     A
C188   C194    1.403   .     A
C189   C195    1.400   .     A
C189   C191    1.407   .     A
C190   C196    1.403   .     A
C190   C192    1.409   .     A
C191   C274    1.389   .     S
C192   C273    1.389   1_455 S
C193   H199    1.080   .     S
C193   C278    1.389   .     S
C194   H200    1.083   .     S
C194   C277    1.389   1_455 S
C195   H201    1.080   .     S
C195   C276    1.389   .     S
C196   H202    1.083   .     S
C196   C275    1.389   1_455 S
C198   C361    1.166   .     S
O203   C204    1.423   .     S
C204   C207    1.538   .     S
C204   H206    1.111   .     S
C204   H205    1.111   .     S
C207   H208    1.110   .     S
C207   H209    1.109   .     S
C207   C1194   1.528   1_554 S
C210   H213    1.110   .     S
C210   H212    1.110   .     S
C210   H211    1.111   .     S
C210   C699    1.528   .     S
O214   C215    1.422   .     S
C215   H216    1.111   .     S
C215   H217    1.115   .     S
C215   C218    1.535   .     S
C218   H219    1.110   .     S
C218   H220    1.110   .     S
C218   C1205   1.528   1_554 S
C221   H223    1.111   .     S
C221   H224    1.111   .     S
C221   H222    1.111   .     S
C221   C710    1.528   .     S
O225   C226    1.423   .     S
C226   H228    1.111   .     S
C226   H227    1.111   .     S
C226   C229    1.538   .     S
C229   H231    1.109   .     S
C229   H230    1.110   .     S
C229   C724    1.528   .     S
C232   H233    1.111   .     S
C232   H235    1.110   .     S
C232   H234    1.110   .     S
C232   C1213   1.528   1_554 S
O236   C237    1.422   .     S
C237   H238    1.111   .     S
C237   H239    1.115   .     S
C237   C240    1.535   .     S
C240   H242    1.110   .     S
C240   H241    1.110   .     S
C240   C735    1.528   .     S
C243   H245    1.111   .     S
C243   H246    1.111   .     S
C243   H244    1.112   .     S
C243   C1224   1.528   1_554 S
O247   C251    1.258   .     A
O247   Zn259   1.955   .     S
O248   C252    1.258   .     A
O248   Zn260   1.955   .     S
O249   C252    1.261   .     A
O249   Zn259   1.961   .     S
O250   C251    1.261   .     A
O250   Zn260   1.961   .     S
C251   C279    1.368   .     S
C252   C280    1.368   .     S
O253   C257    1.267   .     A
O253   Zn259   2.008   .     S
O254   C258    1.267   .     A
O254   Zn260   2.008   .     S
O255   Zn259   2.008   .     S
O255   C258    1.267   .     A
O256   Zn260   2.008   .     S
O256   C257    1.267   .     A
C257   C268    1.426   .     S
C258   C267    1.425   .     S
Zn259  N262    1.967   .     S
Zn260  N261    1.967   .     S
N261   N1246   1.189   1_554 S
N262   N753    1.189   .     S
C263   O285    1.387   .     S
C263   C267    1.404   .     A
C263   C271    1.390   .     A
C264   C272    1.391   .     A
C264   O296    1.387   .     S
C264   C268    1.406   .     A
C265   C267    1.404   .     A
C265   C269    1.391   .     A
C265   O307    1.387   .     S
C266   C270    1.391   .     A
C266   C268    1.406   .     A
C266   O318    1.388   .     S
C269   C275    1.400   .     A
C269   C273    1.407   .     A
C270   C274    1.409   .     A
C270   C276    1.403   .     A
C271   C277    1.400   .     A
C271   C273    1.407   .     A
C272   C278    1.403   .     A
C272   C274    1.409   .     A
C273   C192    1.389   1_655 S
C275   H281    1.080   .     S
C275   C196    1.389   1_655 S
C276   H282    1.083   .     S
C277   H283    1.080   .     S
C277   C194    1.389   1_655 S
C278   H284    1.083   .     S
C280   C443    1.166   .     S
O285   C286    1.423   .     S
C286   C289    1.538   .     S
C286   H288    1.111   .     S
C286   H287    1.111   .     S
C289   H290    1.110   .     S
C289   H291    1.109   .     S
C289   C1276   1.528   1_554 S
C292   H295    1.110   .     S
C292   H294    1.110   .     S
C292   H293    1.111   .     S
C292   C781    1.528   .     S
O296   C297    1.422   .     S
C297   H298    1.111   .     S
C297   H299    1.115   .     S
C297   C300    1.535   .     S
C300   H301    1.110   .     S
C300   H302    1.110   .     S
C300   C1287   1.528   1_554 S
C303   H305    1.111   .     S
C303   H306    1.111   .     S
C303   H304    1.111   .     S
C303   C792    1.528   .     S
O307   C308    1.423   .     S
C308   H310    1.111   .     S
C308   H309    1.111   .     S
C308   C311    1.538   .     S
C311   H313    1.109   .     S
C311   H312    1.110   .     S
C311   C806    1.528   .     S
C314   H315    1.111   .     S
C314   H317    1.110   .     S
C314   H316    1.110   .     S
C314   C1295   1.528   1_554 S
O318   C319    1.422   .     S
C319   H320    1.111   .     S
C319   H321    1.115   .     S
C319   C322    1.535   .     S
C322   H324    1.110   .     S
C322   H323    1.110   .     S
C322   C817    1.528   .     S
C325   H327    1.111   .     S
C325   H328    1.111   .     S
C325   H326    1.112   .     S
C325   C1306   1.528   1_554 S
O329   C333    1.258   .     A
O329   Zn341   1.955   .     S
O330   C334    1.258   .     A
O330   Zn342   1.955   .     S
O331   C334    1.261   .     A
O331   Zn341   1.961   .     S
O332   C333    1.261   .     A
O332   Zn342   1.961   .     S
C333   C361    1.368   .     S
C334   C362    1.368   .     S
O335   C339    1.267   .     A
O335   Zn341   2.008   .     S
O336   C340    1.267   .     A
O336   Zn342   2.008   .     S
O337   Zn341   2.008   .     S
O337   C340    1.267   .     A
O338   Zn342   2.008   .     S
O338   C339    1.267   .     A
C339   C350    1.426   .     S
C340   C349    1.425   .     S
Zn341  N344    1.967   .     S
Zn342  N343    1.967   .     S
N343   N1328   1.189   1_554 S
N344   N835    1.189   .     S
C345   O367    1.387   .     S
C345   C349    1.404   .     A
C345   C353    1.390   .     A
C346   C354    1.391   .     A
C346   O378    1.387   .     S
C346   C350    1.406   .     A
C347   C349    1.404   .     A
C347   C351    1.391   .     A
C347   O389    1.387   .     S
C348   C352    1.391   .     A
C348   C350    1.406   .     A
C348   O400    1.388   .     S
C351   C357    1.400   .     A
C351   C355    1.407   .     A
C352   C356    1.409   .     A
C352   C358    1.403   .     A
C353   C359    1.400   .     A
C353   C355    1.407   .     A
C354   C360    1.403   .     A
C354   C356    1.409   .     A
C355   C438    1.389   .     S
C356   C437    1.389   1_455 S
C357   H363    1.080   .     S
C357   C442    1.389   .     S
C358   H364    1.083   .     S
C358   C441    1.389   1_455 S
C359   H365    1.080   .     S
C359   C440    1.389   .     S
C360   H366    1.083   .     S
C360   C439    1.389   1_455 S
C362   C33     1.166   1_565 S
O367   C368    1.423   .     S
C368   C371    1.538   .     S
C368   H370    1.111   .     S
C368   H369    1.111   .     S
C371   H372    1.110   .     S
C371   H373    1.109   .     S
C371   C1358   1.528   1_554 S
C374   H377    1.110   .     S
C374   H376    1.110   .     S
C374   H375    1.111   .     S
C374   C863    1.528   .     S
O378   C379    1.422   .     S
C379   H380    1.111   .     S
C379   H381    1.115   .     S
C379   C382    1.535   .     S
C382   H383    1.110   .     S
C382   H384    1.110   .     S
C382   C1369   1.528   1_554 S
C385   H387    1.111   .     S
C385   H388    1.111   .     S
C385   H386    1.111   .     S
C385   C874    1.528   .     S
O389   C390    1.423   .     S
C390   H392    1.111   .     S
C390   H391    1.111   .     S
C390   C393    1.538   .     S
C393   H395    1.109   .     S
C393   H394    1.110   .     S
C393   C888    1.528   .     S
C396   H397    1.111   .     S
C396   H399    1.110   .     S
C396   H398    1.110   .     S
C396   C1377   1.528   1_554 S
O400   C401    1.422   .     S
C401   H402    1.111   .     S
C401   H403    1.115   .     S
C401   C404    1.535   .     S
C404   H406    1.110   .     S
C404   H405    1.110   .     S
C404   C899    1.528   .     S
C407   H409    1.111   .     S
C407   H410    1.111   .     S
C407   H408    1.112   .     S
C407   C1388   1.528   1_554 S
O411   C415    1.258   .     A
O411   Zn423   1.955   .     S
O412   C416    1.258   .     A
O412   Zn424   1.955   .     S
O413   C416    1.261   .     A
O413   Zn423   1.961   .     S
O414   C415    1.261   .     A
O414   Zn424   1.961   .     S
C415   C443    1.368   .     S
C416   C444    1.368   .     S
O417   C421    1.267   .     A
O417   Zn423   2.008   .     S
O418   C422    1.267   .     A
O418   Zn424   2.008   .     S
O419   Zn423   2.008   .     S
O419   C422    1.267   .     A
O420   Zn424   2.008   .     S
O420   C421    1.267   .     A
C421   C432    1.426   .     S
C422   C431    1.425   .     S
Zn423  N426    1.967   .     S
Zn424  N425    1.967   .     S
N425   N1410   1.189   1_554 S
N426   N917    1.189   .     S
C427   O449    1.387   .     S
C427   C431    1.404   .     A
C427   C435    1.390   .     A
C428   C436    1.391   .     A
C428   O460    1.387   .     S
C428   C432    1.406   .     A
C429   C431    1.404   .     A
C429   C433    1.391   .     A
C429   O471    1.387   .     S
C430   C434    1.391   .     A
C430   C432    1.406   .     A
C430   O482    1.388   .     S
C433   C439    1.400   .     A
C433   C437    1.407   .     A
C434   C438    1.409   .     A
C434   C440    1.403   .     A
C435   C441    1.400   .     A
C435   C437    1.407   .     A
C436   C442    1.403   .     A
C436   C438    1.409   .     A
C437   C356    1.389   1_655 S
C439   H445    1.080   .     S
C439   C360    1.389   1_655 S
C440   H446    1.083   .     S
C441   H447    1.080   .     S
C441   C358    1.389   1_655 S
C442   H448    1.083   .     S
C444   C115    1.166   1_565 S
O449   C450    1.423   .     S
C450   C453    1.538   .     S
C450   H452    1.111   .     S
C450   H451    1.111   .     S
C453   H454    1.110   .     S
C453   H455    1.109   .     S
C453   C1440   1.528   1_554 S
C456   H459    1.110   .     S
C456   H458    1.110   .     S
C456   H457    1.111   .     S
C456   C945    1.528   .     S
O460   C461    1.422   .     S
C461   H462    1.111   .     S
C461   H463    1.115   .     S
C461   C464    1.535   .     S
C464   H465    1.110   .     S
C464   H466    1.110   .     S
C464   C1451   1.528   1_554 S
C467   H469    1.111   .     S
C467   H470    1.111   .     S
C467   H468    1.111   .     S
C467   C956    1.528   .     S
O471   C472    1.423   .     S
C472   H474    1.111   .     S
C472   H473    1.111   .     S
C472   C475    1.538   .     S
C475   H477    1.109   .     S
C475   H476    1.110   .     S
C475   C970    1.528   .     S
C478   H479    1.111   .     S
C478   H481    1.110   .     S
C478   H480    1.110   .     S
C478   C1459   1.528   1_554 S
O482   C483    1.422   .     S
C483   H484    1.111   .     S
C483   H485    1.115   .     S
C483   C486    1.535   .     S
C486   H488    1.110   .     S
C486   H487    1.110   .     S
C486   C981    1.528   .     S
C489   H491    1.111   .     S
C489   H492    1.111   .     S
C489   H490    1.112   .     S
C489   C1470   1.528   1_554 S
O493   C497    1.258   .     A
O493   Zn505   1.955   .     S
O494   C498    1.258   .     A
O494   Zn506   1.955   .     S
O495   C498    1.261   .     A
O495   Zn505   1.961   .     S
O496   C497    1.261   .     A
O496   Zn506   1.961   .     S
C497   C525    1.368   .     S
C498   C526    1.368   .     S
O499   C503    1.267   .     A
O499   Zn505   2.008   .     S
O500   C504    1.267   .     A
O500   Zn506   2.008   .     S
O501   Zn505   2.008   .     S
O501   C504    1.267   .     A
O502   Zn506   2.008   .     S
O502   C503    1.267   .     A
C503   C514    1.426   .     S
C504   C513    1.425   .     S
Zn505  N508    1.967   .     S
Zn506  N507    1.967   .     S
N508   N999    1.189   .     S
C509   O531    1.387   .     S
C509   C513    1.404   .     A
C509   C517    1.390   .     A
C510   C518    1.391   .     A
C510   O542    1.387   .     S
C510   C514    1.406   .     A
C511   C513    1.404   .     A
C511   C515    1.391   .     A
C511   O553    1.387   .     S
C512   C516    1.391   .     A
C512   C514    1.406   .     A
C512   O564    1.388   .     S
C515   C521    1.400   .     A
C515   C519    1.407   .     A
C516   C520    1.409   .     A
C516   C522    1.403   .     A
C517   C523    1.400   .     A
C517   C519    1.407   .     A
C518   C524    1.403   .     A
C518   C520    1.409   .     A
C519   C602    1.389   .     S
C520   C601    1.389   1_455 S
C521   H527    1.080   .     S
C521   C606    1.389   .     S
C522   H528    1.083   .     S
C522   C605    1.389   1_455 S
C523   H529    1.080   .     S
C523   C604    1.389   .     S
C524   H530    1.083   .     S
C524   C603    1.389   1_455 S
C525   C854    1.166   1_545 S
C526   C689    1.166   .     S
O531   C532    1.423   .     S
C532   C535    1.538   .     S
C532   H534    1.111   .     S
C532   H533    1.111   .     S
C535   H536    1.110   .     S
C535   H537    1.109   .     S
C538   H541    1.110   .     S
C538   H540    1.110   .     S
C538   H539    1.111   .     S
C538   C1027   1.528   .     S
O542   C543    1.422   .     S
C543   H544    1.111   .     S
C543   H545    1.115   .     S
C543   C546    1.535   .     S
C546   H547    1.110   .     S
C546   H548    1.110   .     S
C549   H551    1.111   .     S
C549   H552    1.111   .     S
C549   H550    1.111   .     S
C549   C1038   1.528   .     S
O553   C554    1.423   .     S
C554   H556    1.111   .     S
C554   H555    1.111   .     S
C554   C557    1.538   .     S
C557   H559    1.109   .     S
C557   H558    1.110   .     S
C557   C1052   1.528   .     S
C560   H561    1.111   .     S
C560   H563    1.110   .     S
C560   H562    1.110   .     S
O564   C565    1.422   .     S
C565   H566    1.111   .     S
C565   H567    1.115   .     S
C565   C568    1.535   .     S
C568   H570    1.110   .     S
C568   H569    1.110   .     S
C568   C1063   1.528   .     S
C571   H573    1.111   .     S
C571   H574    1.111   .     S
C571   H572    1.112   .     S
O575   C579    1.258   .     A
O575   Zn587   1.955   .     S
O576   C580    1.258   .     A
O576   Zn588   1.955   .     S
O577   C580    1.261   .     A
O577   Zn587   1.961   .     S
O578   C579    1.261   .     A
O578   Zn588   1.961   .     S
C579   C607    1.368   .     S
C580   C608    1.368   .     S
O581   C585    1.267   .     A
O581   Zn587   2.008   .     S
O582   C586    1.267   .     A
O582   Zn588   2.008   .     S
O583   Zn587   2.008   .     S
O583   C586    1.267   .     A
O584   Zn588   2.008   .     S
O584   C585    1.267   .     A
C585   C596    1.426   .     S
C586   C595    1.425   .     S
Zn587  N590    1.967   .     S
Zn588  N589    1.967   .     S
N590   N1081   1.189   .     S
C591   O613    1.387   .     S
C591   C595    1.404   .     A
C591   C599    1.390   .     A
C592   C600    1.391   .     A
C592   O624    1.387   .     S
C592   C596    1.406   .     A
C593   C595    1.404   .     A
C593   C597    1.391   .     A
C593   O635    1.387   .     S
C594   C598    1.391   .     A
C594   C596    1.406   .     A
C594   O646    1.388   .     S
C597   C603    1.400   .     A
C597   C601    1.407   .     A
C598   C602    1.409   .     A
C598   C604    1.403   .     A
C599   C605    1.400   .     A
C599   C601    1.407   .     A
C600   C606    1.403   .     A
C600   C602    1.409   .     A
C601   C520    1.389   1_655 S
C603   H609    1.080   .     S
C603   C524    1.389   1_655 S
C604   H610    1.083   .     S
C605   H611    1.080   .     S
C605   C522    1.389   1_655 S
C606   H612    1.083   .     S
C607   C936    1.166   1_545 S
C608   C771    1.166   .     S
O613   C614    1.423   .     S
C614   C617    1.538   .     S
C614   H616    1.111   .     S
C614   H615    1.111   .     S
C617   H618    1.110   .     S
C617   H619    1.109   .     S
C620   H623    1.110   .     S
C620   H622    1.110   .     S
C620   H621    1.111   .     S
C620   C1109   1.528   .     S
O624   C625    1.422   .     S
C625   H626    1.111   .     S
C625   H627    1.115   .     S
C625   C628    1.535   .     S
C628   H629    1.110   .     S
C628   H630    1.110   .     S
C631   H633    1.111   .     S
C631   H634    1.111   .     S
C631   H632    1.111   .     S
C631   C1120   1.528   .     S
O635   C636    1.423   .     S
C636   H638    1.111   .     S
C636   H637    1.111   .     S
C636   C639    1.538   .     S
C639   H641    1.109   .     S
C639   H640    1.110   .     S
C639   C1134   1.528   .     S
C642   H643    1.111   .     S
C642   H645    1.110   .     S
C642   H644    1.110   .     S
O646   C647    1.422   .     S
C647   H648    1.111   .     S
C647   H649    1.115   .     S
C647   C650    1.535   .     S
C650   H652    1.110   .     S
C650   H651    1.110   .     S
C650   C1145   1.528   .     S
C653   H655    1.111   .     S
C653   H656    1.111   .     S
C653   H654    1.112   .     S
O657   C661    1.258   .     A
O657   Zn669   1.955   .     S
O658   C662    1.258   .     A
O658   Zn670   1.955   .     S
O659   C662    1.261   .     A
O659   Zn669   1.961   .     S
O660   C661    1.261   .     A
O660   Zn670   1.961   .     S
C661   C689    1.368   .     S
C662   C690    1.368   .     S
O663   C667    1.267   .     A
O663   Zn669   2.008   .     S
O664   C668    1.267   .     A
O664   Zn670   2.008   .     S
O665   Zn669   2.008   .     S
O665   C668    1.267   .     A
O666   Zn670   2.008   .     S
O666   C667    1.267   .     A
C667   C678    1.426   .     S
C668   C677    1.425   .     S
Zn669  N672    1.967   .     S
Zn670  N671    1.967   .     S
N672   N1163   1.189   .     S
C673   O695    1.387   .     S
C673   C677    1.404   .     A
C673   C681    1.390   .     A
C674   C682    1.391   .     A
C674   O706    1.387   .     S
C674   C678    1.406   .     A
C675   C677    1.404   .     A
C675   C679    1.391   .     A
C675   O717    1.387   .     S
C676   C680    1.391   .     A
C676   C678    1.406   .     A
C676   O728    1.388   .     S
C679   C685    1.400   .     A
C679   C683    1.407   .     A
C680   C684    1.409   .     A
C680   C686    1.403   .     A
C681   C687    1.400   .     A
C681   C683    1.407   .     A
C682   C688    1.403   .     A
C682   C684    1.409   .     A
C683   C766    1.389   .     S
C684   C765    1.389   1_455 S
C685   H691    1.080   .     S
C685   C770    1.389   .     S
C686   H692    1.083   .     S
C686   C769    1.389   1_455 S
C687   H693    1.080   .     S
C687   C768    1.389   .     S
C688   H694    1.083   .     S
C688   C767    1.389   1_455 S
C690   C853    1.166   .     S
O695   C696    1.423   .     S
C696   C699    1.538   .     S
C696   H698    1.111   .     S
C696   H697    1.111   .     S
C699   H700    1.110   .     S
C699   H701    1.109   .     S
C702   H705    1.110   .     S
C702   H704    1.110   .     S
C702   H703    1.111   .     S
C702   C1191   1.528   .     S
O706   C707    1.422   .     S
C707   H708    1.111   .     S
C707   H709    1.115   .     S
C707   C710    1.535   .     S
C710   H711    1.110   .     S
C710   H712    1.110   .     S
C713   H715    1.111   .     S
C713   H716    1.111   .     S
C713   H714    1.111   .     S
C713   C1202   1.528   .     S
O717   C718    1.423   .     S
C718   H720    1.111   .     S
C718   H719    1.111   .     S
C718   C721    1.538   .     S
C721   H723    1.109   .     S
C721   H722    1.110   .     S
C721   C1216   1.528   .     S
C724   H725    1.111   .     S
C724   H727    1.110   .     S
C724   H726    1.110   .     S
O728   C729    1.422   .     S
C729   H730    1.111   .     S
C729   H731    1.115   .     S
C729   C732    1.535   .     S
C732   H734    1.110   .     S
C732   H733    1.110   .     S
C732   C1227   1.528   .     S
C735   H737    1.111   .     S
C735   H738    1.111   .     S
C735   H736    1.112   .     S
O739   C743    1.258   .     A
O739   Zn751   1.955   .     S
O740   C744    1.258   .     A
O740   Zn752   1.955   .     S
O741   C744    1.261   .     A
O741   Zn751   1.961   .     S
O742   C743    1.261   .     A
O742   Zn752   1.961   .     S
C743   C771    1.368   .     S
C744   C772    1.368   .     S
O745   C749    1.267   .     A
O745   Zn751   2.008   .     S
O746   C750    1.267   .     A
O746   Zn752   2.008   .     S
O747   Zn751   2.008   .     S
O747   C750    1.267   .     A
O748   Zn752   2.008   .     S
O748   C749    1.267   .     A
C749   C760    1.426   .     S
C750   C759    1.425   .     S
Zn751  N754    1.967   .     S
Zn752  N753    1.967   .     S
N754   N1245   1.189   .     S
C755   O777    1.387   .     S
C755   C759    1.404   .     A
C755   C763    1.390   .     A
C756   C764    1.391   .     A
C756   O788    1.387   .     S
C756   C760    1.406   .     A
C757   C759    1.404   .     A
C757   C761    1.391   .     A
C757   O799    1.387   .     S
C758   C762    1.391   .     A
C758   C760    1.406   .     A
C758   O810    1.388   .     S
C761   C767    1.400   .     A
C761   C765    1.407   .     A
C762   C766    1.409   .     A
C762   C768    1.403   .     A
C763   C769    1.400   .     A
C763   C765    1.407   .     A
C764   C770    1.403   .     A
C764   C766    1.409   .     A
C765   C684    1.389   1_655 S
C767   H773    1.080   .     S
C767   C688    1.389   1_655 S
C768   H774    1.083   .     S
C769   H775    1.080   .     S
C769   C686    1.389   1_655 S
C770   H776    1.083   .     S
C772   C935    1.166   .     S
O777   C778    1.423   .     S
C778   C781    1.538   .     S
C778   H780    1.111   .     S
C778   H779    1.111   .     S
C781   H782    1.110   .     S
C781   H783    1.109   .     S
C784   H787    1.110   .     S
C784   H786    1.110   .     S
C784   H785    1.111   .     S
C784   C1273   1.528   .     S
O788   C789    1.422   .     S
C789   H790    1.111   .     S
C789   H791    1.115   .     S
C789   C792    1.535   .     S
C792   H793    1.110   .     S
C792   H794    1.110   .     S
C795   H797    1.111   .     S
C795   H798    1.111   .     S
C795   H796    1.111   .     S
C795   C1284   1.528   .     S
O799   C800    1.423   .     S
C800   H802    1.111   .     S
C800   H801    1.111   .     S
C800   C803    1.538   .     S
C803   H805    1.109   .     S
C803   H804    1.110   .     S
C803   C1298   1.528   .     S
C806   H807    1.111   .     S
C806   H809    1.110   .     S
C806   H808    1.110   .     S
O810   C811    1.422   .     S
C811   H812    1.111   .     S
C811   H813    1.115   .     S
C811   C814    1.535   .     S
C814   H816    1.110   .     S
C814   H815    1.110   .     S
C814   C1309   1.528   .     S
C817   H819    1.111   .     S
C817   H820    1.111   .     S
C817   H818    1.112   .     S
O821   C825    1.258   .     A
O821   Zn833   1.955   .     S
O822   C826    1.258   .     A
O822   Zn834   1.955   .     S
O823   C826    1.261   .     A
O823   Zn833   1.961   .     S
O824   C825    1.261   .     A
O824   Zn834   1.961   .     S
C825   C853    1.368   .     S
C826   C854    1.368   .     S
O827   C831    1.267   .     A
O827   Zn833   2.008   .     S
O828   C832    1.267   .     A
O828   Zn834   2.008   .     S
O829   Zn833   2.008   .     S
O829   C832    1.267   .     A
O830   Zn834   2.008   .     S
O830   C831    1.267   .     A
C831   C842    1.426   .     S
C832   C841    1.425   .     S
Zn833  N836    1.967   .     S
Zn834  N835    1.967   .     S
N836   N1327   1.189   .     S
C837   O859    1.387   .     S
C837   C841    1.404   .     A
C837   C845    1.390   .     A
C838   C846    1.391   .     A
C838   O870    1.387   .     S
C838   C842    1.406   .     A
C839   C841    1.404   .     A
C839   C843    1.391   .     A
C839   O881    1.387   .     S
C840   C844    1.391   .     A
C840   C842    1.406   .     A
C840   O892    1.388   .     S
C843   C849    1.400   .     A
C843   C847    1.407   .     A
C844   C848    1.409   .     A
C844   C850    1.403   .     A
C845   C851    1.400   .     A
C845   C847    1.407   .     A
C846   C852    1.403   .     A
C846   C848    1.409   .     A
C847   C930    1.389   .     S
C848   C929    1.389   1_455 S
C849   H855    1.080   .     S
C849   C934    1.389   .     S
C850   H856    1.083   .     S
C850   C933    1.389   1_455 S
C851   H857    1.080   .     S
C851   C932    1.389   .     S
C852   H858    1.083   .     S
C852   C931    1.389   1_455 S
C854   C525    1.166   1_565 S
O859   C860    1.423   .     S
C860   C863    1.538   .     S
C860   H862    1.111   .     S
C860   H861    1.111   .     S
C863   H864    1.110   .     S
C863   H865    1.109   .     S
C866   H869    1.110   .     S
C866   H868    1.110   .     S
C866   H867    1.111   .     S
C866   C1355   1.528   .     S
O870   C871    1.422   .     S
C871   H872    1.111   .     S
C871   H873    1.115   .     S
C871   C874    1.535   .     S
C874   H875    1.110   .     S
C874   H876    1.110   .     S
C877   H879    1.111   .     S
C877   H880    1.111   .     S
C877   H878    1.111   .     S
C877   C1366   1.528   .     S
O881   C882    1.423   .     S
C882   H884    1.111   .     S
C882   H883    1.111   .     S
C882   C885    1.538   .     S
C885   H887    1.109   .     S
C885   H886    1.110   .     S
C885   C1380   1.528   .     S
C888   H889    1.111   .     S
C888   H891    1.110   .     S
C888   H890    1.110   .     S
O892   C893    1.422   .     S
C893   H894    1.111   .     S
C893   H895    1.115   .     S
C893   C896    1.535   .     S
C896   H898    1.110   .     S
C896   H897    1.110   .     S
C896   C1391   1.528   .     S
C899   H901    1.111   .     S
C899   H902    1.111   .     S
C899   H900    1.112   .     S
O903   C907    1.258   .     A
O903   Zn915   1.955   .     S
O904   C908    1.258   .     A
O904   Zn916   1.955   .     S
O905   C908    1.261   .     A
O905   Zn915   1.961   .     S
O906   C907    1.261   .     A
O906   Zn916   1.961   .     S
C907   C935    1.368   .     S
C908   C936    1.368   .     S
O909   C913    1.267   .     A
O909   Zn915   2.008   .     S
O910   C914    1.267   .     A
O910   Zn916   2.008   .     S
O911   Zn915   2.008   .     S
O911   C914    1.267   .     A
O912   Zn916   2.008   .     S
O912   C913    1.267   .     A
C913   C924    1.426   .     S
C914   C923    1.425   .     S
Zn915  N918    1.967   .     S
Zn916  N917    1.967   .     S
N918   N1409   1.189   .     S
C919   O941    1.387   .     S
C919   C923    1.404   .     A
C919   C927    1.390   .     A
C920   C928    1.391   .     A
C920   O952    1.387   .     S
C920   C924    1.406   .     A
C921   C923    1.404   .     A
C921   C925    1.391   .     A
C921   O963    1.387   .     S
C922   C926    1.391   .     A
C922   C924    1.406   .     A
C922   O974    1.388   .     S
C925   C931    1.400   .     A
C925   C929    1.407   .     A
C926   C930    1.409   .     A
C926   C932    1.403   .     A
C927   C933    1.400   .     A
C927   C929    1.407   .     A
C928   C934    1.403   .     A
C928   C930    1.409   .     A
C929   C848    1.389   1_655 S
C931   H937    1.080   .     S
C931   C852    1.389   1_655 S
C932   H938    1.083   .     S
C933   H939    1.080   .     S
C933   C850    1.389   1_655 S
C934   H940    1.083   .     S
C936   C607    1.166   1_565 S
O941   C942    1.423   .     S
C942   C945    1.538   .     S
C942   H944    1.111   .     S
C942   H943    1.111   .     S
C945   H946    1.110   .     S
C945   H947    1.109   .     S
C948   H951    1.110   .     S
C948   H950    1.110   .     S
C948   H949    1.111   .     S
C948   C1437   1.528   .     S
O952   C953    1.422   .     S
C953   H954    1.111   .     S
C953   H955    1.115   .     S
C953   C956    1.535   .     S
C956   H957    1.110   .     S
C956   H958    1.110   .     S
C959   H961    1.111   .     S
C959   H962    1.111   .     S
C959   H960    1.111   .     S
C959   C1448   1.528   .     S
O963   C964    1.423   .     S
C964   H966    1.111   .     S
C964   H965    1.111   .     S
C964   C967    1.538   .     S
C967   H969    1.109   .     S
C967   H968    1.110   .     S
C967   C1462   1.528   .     S
C970   H971    1.111   .     S
C970   H973    1.110   .     S
C970   H972    1.110   .     S
O974   C975    1.422   .     S
C975   H976    1.111   .     S
C975   H977    1.115   .     S
C975   C978    1.535   .     S
C978   H980    1.110   .     S
C978   H979    1.110   .     S
C978   C1473   1.528   .     S
C981   H983    1.111   .     S
C981   H984    1.111   .     S
C981   H982    1.112   .     S
O985   C989    1.258   .     A
O985   Zn997   1.955   .     S
O986   C990    1.258   .     A
O986   Zn998   1.955   .     S
O987   C990    1.261   .     A
O987   Zn997   1.961   .     S
O988   C989    1.261   .     A
O988   Zn998   1.961   .     S
C989   C1017   1.368   .     S
C990   C1018   1.368   .     S
O991   C995    1.267   .     A
O991   Zn997   2.008   .     S
O992   C996    1.267   .     A
O992   Zn998   2.008   .     S
O993   Zn997   2.008   .     S
O993   C996    1.267   .     A
O994   Zn998   2.008   .     S
O994   C995    1.267   .     A
C995   C1006   1.426   .     S
C996   C1005   1.425   .     S
Zn997  N1000   1.967   .     S
Zn998  N999    1.967   .     S
N1000  N15     1.189   1_556 S
C1001  O1023   1.387   .     S
C1001  C1005   1.404   .     A
C1001  C1009   1.390   .     A
C1002  C1010   1.391   .     A
C1002  O1034   1.387   .     S
C1002  C1006   1.406   .     A
C1003  C1005   1.404   .     A
C1003  C1007   1.391   .     A
C1003  O1045   1.387   .     S
C1004  C1008   1.391   .     A
C1004  C1006   1.406   .     A
C1004  O1056   1.388   .     S
C1007  C1013   1.400   .     A
C1007  C1011   1.407   .     A
C1008  C1012   1.409   .     A
C1008  C1014   1.403   .     A
C1009  C1015   1.400   .     A
C1009  C1011   1.407   .     A
C1010  C1016   1.403   .     A
C1010  C1012   1.409   .     A
C1011  C1094   1.389   .     S
C1012  C1093   1.389   1_455 S
C1013  H1019   1.080   .     S
C1013  C1098   1.389   .     S
C1014  H1020   1.083   .     S
C1014  C1097   1.389   1_455 S
C1015  H1021   1.080   .     S
C1015  C1096   1.389   .     S
C1016  H1022   1.083   .     S
C1016  C1095   1.389   1_455 S
C1017  C1346   1.166   1_545 S
C1018  C1181   1.166   .     S
O1023  C1024   1.423   .     S
C1024  C1027   1.538   .     S
C1024  H1026   1.111   .     S
C1024  H1025   1.111   .     S
C1027  H1028   1.110   .     S
C1027  H1029   1.109   .     S
C1030  H1033   1.110   .     S
C1030  H1032   1.110   .     S
C1030  H1031   1.111   .     S
C1030  C43     1.528   1_556 S
O1034  C1035   1.422   .     S
C1035  H1036   1.111   .     S
C1035  H1037   1.115   .     S
C1035  C1038   1.535   .     S
C1038  H1039   1.110   .     S
C1038  H1040   1.110   .     S
C1041  H1043   1.111   .     S
C1041  H1044   1.111   .     S
C1041  H1042   1.111   .     S
C1041  C54     1.528   1_556 S
O1045  C1046   1.423   .     S
C1046  H1048   1.111   .     S
C1046  H1047   1.111   .     S
C1046  C1049   1.538   .     S
C1049  H1051   1.109   .     S
C1049  H1050   1.110   .     S
C1049  C68     1.528   1_556 S
C1052  H1053   1.111   .     S
C1052  H1055   1.110   .     S
C1052  H1054   1.110   .     S
O1056  C1057   1.422   .     S
C1057  H1058   1.111   .     S
C1057  H1059   1.115   .     S
C1057  C1060   1.535   .     S
C1060  H1062   1.110   .     S
C1060  H1061   1.110   .     S
C1060  C79     1.528   1_556 S
C1063  H1065   1.111   .     S
C1063  H1066   1.111   .     S
C1063  H1064   1.112   .     S
O1067  C1071   1.258   .     A
O1067  Zn1079  1.955   .     S
O1068  C1072   1.258   .     A
O1068  Zn1080  1.955   .     S
O1069  C1072   1.261   .     A
O1069  Zn1079  1.961   .     S
O1070  C1071   1.261   .     A
O1070  Zn1080  1.961   .     S
C1071  C1099   1.368   .     S
C1072  C1100   1.368   .     S
O1073  C1077   1.267   .     A
O1073  Zn1079  2.008   .     S
O1074  C1078   1.267   .     A
O1074  Zn1080  2.008   .     S
O1075  Zn1079  2.008   .     S
O1075  C1078   1.267   .     A
O1076  Zn1080  2.008   .     S
O1076  C1077   1.267   .     A
C1077  C1088   1.426   .     S
C1078  C1087   1.425   .     S
Zn1079 N1082   1.967   .     S
Zn1080 N1081   1.967   .     S
N1082  N97     1.189   1_556 S
C1083  O1105   1.387   .     S
C1083  C1087   1.404   .     A
C1083  C1091   1.390   .     A
C1084  C1092   1.391   .     A
C1084  O1116   1.387   .     S
C1084  C1088   1.406   .     A
C1085  C1087   1.404   .     A
C1085  C1089   1.391   .     A
C1085  O1127   1.387   .     S
C1086  C1090   1.391   .     A
C1086  C1088   1.406   .     A
C1086  O1138   1.388   .     S
C1089  C1095   1.400   .     A
C1089  C1093   1.407   .     A
C1090  C1094   1.409   .     A
C1090  C1096   1.403   .     A
C1091  C1097   1.400   .     A
C1091  C1093   1.407   .     A
C1092  C1098   1.403   .     A
C1092  C1094   1.409   .     A
C1093  C1012   1.389   1_655 S
C1095  H1101   1.080   .     S
C1095  C1016   1.389   1_655 S
C1096  H1102   1.083   .     S
C1097  H1103   1.080   .     S
C1097  C1014   1.389   1_655 S
C1098  H1104   1.083   .     S
C1099  C1428   1.166   1_545 S
C1100  C1263   1.166   .     S
O1105  C1106   1.423   .     S
C1106  C1109   1.538   .     S
C1106  H1108   1.111   .     S
C1106  H1107   1.111   .     S
C1109  H1110   1.110   .     S
C1109  H1111   1.109   .     S
C1112  H1115   1.110   .     S
C1112  H1114   1.110   .     S
C1112  H1113   1.111   .     S
C1112  C125    1.528   1_556 S
O1116  C1117   1.422   .     S
C1117  H1118   1.111   .     S
C1117  H1119   1.115   .     S
C1117  C1120   1.535   .     S
C1120  H1121   1.110   .     S
C1120  H1122   1.110   .     S
C1123  H1125   1.111   .     S
C1123  H1126   1.111   .     S
C1123  H1124   1.111   .     S
C1123  C136    1.528   1_556 S
O1127  C1128   1.423   .     S
C1128  H1130   1.111   .     S
C1128  H1129   1.111   .     S
C1128  C1131   1.538   .     S
C1131  H1133   1.109   .     S
C1131  H1132   1.110   .     S
C1131  C150    1.528   1_556 S
C1134  H1135   1.111   .     S
C1134  H1137   1.110   .     S
C1134  H1136   1.110   .     S
O1138  C1139   1.422   .     S
C1139  H1140   1.111   .     S
C1139  H1141   1.115   .     S
C1139  C1142   1.535   .     S
C1142  H1144   1.110   .     S
C1142  H1143   1.110   .     S
C1142  C161    1.528   1_556 S
C1145  H1147   1.111   .     S
C1145  H1148   1.111   .     S
C1145  H1146   1.112   .     S
O1149  C1153   1.258   .     A
O1149  Zn1161  1.955   .     S
O1150  C1154   1.258   .     A
O1150  Zn1162  1.955   .     S
O1151  C1154   1.261   .     A
O1151  Zn1161  1.961   .     S
O1152  C1153   1.261   .     A
O1152  Zn1162  1.961   .     S
C1153  C1181   1.368   .     S
C1154  C1182   1.368   .     S
O1155  C1159   1.267   .     A
O1155  Zn1161  2.008   .     S
O1156  C1160   1.267   .     A
O1156  Zn1162  2.008   .     S
O1157  Zn1161  2.008   .     S
O1157  C1160   1.267   .     A
O1158  Zn1162  2.008   .     S
O1158  C1159   1.267   .     A
C1159  C1170   1.426   .     S
C1160  C1169   1.425   .     S
Zn1161 N1164   1.967   .     S
Zn1162 N1163   1.967   .     S
N1164  N179    1.189   1_556 S
C1165  O1187   1.387   .     S
C1165  C1169   1.404   .     A
C1165  C1173   1.390   .     A
C1166  C1174   1.391   .     A
C1166  O1198   1.387   .     S
C1166  C1170   1.406   .     A
C1167  C1169   1.404   .     A
C1167  C1171   1.391   .     A
C1167  O1209   1.387   .     S
C1168  C1172   1.391   .     A
C1168  C1170   1.406   .     A
C1168  O1220   1.388   .     S
C1171  C1177   1.400   .     A
C1171  C1175   1.407   .     A
C1172  C1176   1.409   .     A
C1172  C1178   1.403   .     A
C1173  C1179   1.400   .     A
C1173  C1175   1.407   .     A
C1174  C1180   1.403   .     A
C1174  C1176   1.409   .     A
C1175  C1258   1.389   .     S
C1176  C1257   1.389   1_455 S
C1177  H1183   1.080   .     S
C1177  C1262   1.389   .     S
C1178  H1184   1.083   .     S
C1178  C1261   1.389   1_455 S
C1179  H1185   1.080   .     S
C1179  C1260   1.389   .     S
C1180  H1186   1.083   .     S
C1180  C1259   1.389   1_455 S
C1182  C1345   1.166   .     S
O1187  C1188   1.423   .     S
C1188  C1191   1.538   .     S
C1188  H1190   1.111   .     S
C1188  H1189   1.111   .     S
C1191  H1192   1.110   .     S
C1191  H1193   1.109   .     S
C1194  H1197   1.110   .     S
C1194  H1196   1.110   .     S
C1194  H1195   1.111   .     S
C1194  C207    1.528   1_556 S
O1198  C1199   1.422   .     S
C1199  H1200   1.111   .     S
C1199  H1201   1.115   .     S
C1199  C1202   1.535   .     S
C1202  H1203   1.110   .     S
C1202  H1204   1.110   .     S
C1205  H1207   1.111   .     S
C1205  H1208   1.111   .     S
C1205  H1206   1.111   .     S
C1205  C218    1.528   1_556 S
O1209  C1210   1.423   .     S
C1210  H1212   1.111   .     S
C1210  H1211   1.111   .     S
C1210  C1213   1.538   .     S
C1213  H1215   1.109   .     S
C1213  H1214   1.110   .     S
C1213  C232    1.528   1_556 S
C1216  H1217   1.111   .     S
C1216  H1219   1.110   .     S
C1216  H1218   1.110   .     S
O1220  C1221   1.422   .     S
C1221  H1222   1.111   .     S
C1221  H1223   1.115   .     S
C1221  C1224   1.535   .     S
C1224  H1226   1.110   .     S
C1224  H1225   1.110   .     S
C1224  C243    1.528   1_556 S
C1227  H1229   1.111   .     S
C1227  H1230   1.111   .     S
C1227  H1228   1.112   .     S
O1231  C1235   1.258   .     A
O1231  Zn1243  1.955   .     S
O1232  C1236   1.258   .     A
O1232  Zn1244  1.955   .     S
O1233  C1236   1.261   .     A
O1233  Zn1243  1.961   .     S
O1234  C1235   1.261   .     A
O1234  Zn1244  1.961   .     S
C1235  C1263   1.368   .     S
C1236  C1264   1.368   .     S
O1237  C1241   1.267   .     A
O1237  Zn1243  2.008   .     S
O1238  C1242   1.267   .     A
O1238  Zn1244  2.008   .     S
O1239  Zn1243  2.008   .     S
O1239  C1242   1.267   .     A
O1240  Zn1244  2.008   .     S
O1240  C1241   1.267   .     A
C1241  C1252   1.426   .     S
C1242  C1251   1.425   .     S
Zn1243 N1246   1.967   .     S
Zn1244 N1245   1.967   .     S
N1246  N261    1.189   1_556 S
C1247  O1269   1.387   .     S
C1247  C1251   1.404   .     A
C1247  C1255   1.390   .     A
C1248  C1256   1.391   .     A
C1248  O1280   1.387   .     S
C1248  C1252   1.406   .     A
C1249  C1251   1.404   .     A
C1249  C1253   1.391   .     A
C1249  O1291   1.387   .     S
C1250  C1254   1.391   .     A
C1250  C1252   1.406   .     A
C1250  O1302   1.388   .     S
C1253  C1259   1.400   .     A
C1253  C1257   1.407   .     A
C1254  C1258   1.409   .     A
C1254  C1260   1.403   .     A
C1255  C1261   1.400   .     A
C1255  C1257   1.407   .     A
C1256  C1262   1.403   .     A
C1256  C1258   1.409   .     A
C1257  C1176   1.389   1_655 S
C1259  H1265   1.080   .     S
C1259  C1180   1.389   1_655 S
C1260  H1266   1.083   .     S
C1261  H1267   1.080   .     S
C1261  C1178   1.389   1_655 S
C1262  H1268   1.083   .     S
C1264  C1427   1.166   .     S
O1269  C1270   1.423   .     S
C1270  C1273   1.538   .     S
C1270  H1272   1.111   .     S
C1270  H1271   1.111   .     S
C1273  H1274   1.110   .     S
C1273  H1275   1.109   .     S
C1276  H1279   1.110   .     S
C1276  H1278   1.110   .     S
C1276  H1277   1.111   .     S
C1276  C289    1.528   1_556 S
O1280  C1281   1.422   .     S
C1281  H1282   1.111   .     S
C1281  H1283   1.115   .     S
C1281  C1284   1.535   .     S
C1284  H1285   1.110   .     S
C1284  H1286   1.110   .     S
C1287  H1289   1.111   .     S
C1287  H1290   1.111   .     S
C1287  H1288   1.111   .     S
C1287  C300    1.528   1_556 S
O1291  C1292   1.423   .     S
C1292  H1294   1.111   .     S
C1292  H1293   1.111   .     S
C1292  C1295   1.538   .     S
C1295  H1297   1.109   .     S
C1295  H1296   1.110   .     S
C1295  C314    1.528   1_556 S
C1298  H1299   1.111   .     S
C1298  H1301   1.110   .     S
C1298  H1300   1.110   .     S
O1302  C1303   1.422   .     S
C1303  H1304   1.111   .     S
C1303  H1305   1.115   .     S
C1303  C1306   1.535   .     S
C1306  H1308   1.110   .     S
C1306  H1307   1.110   .     S
C1306  C325    1.528   1_556 S
C1309  H1311   1.111   .     S
C1309  H1312   1.111   .     S
C1309  H1310   1.112   .     S
O1313  C1317   1.258   .     A
O1313  Zn1325  1.955   .     S
O1314  C1318   1.258   .     A
O1314  Zn1326  1.955   .     S
O1315  C1318   1.261   .     A
O1315  Zn1325  1.961   .     S
O1316  C1317   1.261   .     A
O1316  Zn1326  1.961   .     S
C1317  C1345   1.368   .     S
C1318  C1346   1.368   .     S
O1319  C1323   1.267   .     A
O1319  Zn1325  2.008   .     S
O1320  C1324   1.267   .     A
O1320  Zn1326  2.008   .     S
O1321  Zn1325  2.008   .     S
O1321  C1324   1.267   .     A
O1322  Zn1326  2.008   .     S
O1322  C1323   1.267   .     A
C1323  C1334   1.426   .     S
C1324  C1333   1.425   .     S
Zn1325 N1328   1.967   .     S
Zn1326 N1327   1.967   .     S
N1328  N343    1.189   1_556 S
C1329  O1351   1.387   .     S
C1329  C1333   1.404   .     A
C1329  C1337   1.390   .     A
C1330  C1338   1.391   .     A
C1330  O1362   1.387   .     S
C1330  C1334   1.406   .     A
C1331  C1333   1.404   .     A
C1331  C1335   1.391   .     A
C1331  O1373   1.387   .     S
C1332  C1336   1.391   .     A
C1332  C1334   1.406   .     A
C1332  O1384   1.388   .     S
C1335  C1341   1.400   .     A
C1335  C1339   1.407   .     A
C1336  C1340   1.409   .     A
C1336  C1342   1.403   .     A
C1337  C1343   1.400   .     A
C1337  C1339   1.407   .     A
C1338  C1344   1.403   .     A
C1338  C1340   1.409   .     A
C1339  C1422   1.389   .     S
C1340  C1421   1.389   1_455 S
C1341  H1347   1.080   .     S
C1341  C1426   1.389   .     S
C1342  H1348   1.083   .     S
C1342  C1425   1.389   1_455 S
C1343  H1349   1.080   .     S
C1343  C1424   1.389   .     S
C1344  H1350   1.083   .     S
C1344  C1423   1.389   1_455 S
C1346  C1017   1.166   1_565 S
O1351  C1352   1.423   .     S
C1352  C1355   1.538   .     S
C1352  H1354   1.111   .     S
C1352  H1353   1.111   .     S
C1355  H1356   1.110   .     S
C1355  H1357   1.109   .     S
C1358  H1361   1.110   .     S
C1358  H1360   1.110   .     S
C1358  H1359   1.111   .     S
C1358  C371    1.528   1_556 S
O1362  C1363   1.422   .     S
C1363  H1364   1.111   .     S
C1363  H1365   1.115   .     S
C1363  C1366   1.535   .     S
C1366  H1367   1.110   .     S
C1366  H1368   1.110   .     S
C1369  H1371   1.111   .     S
C1369  H1372   1.111   .     S
C1369  H1370   1.111   .     S
C1369  C382    1.528   1_556 S
O1373  C1374   1.423   .     S
C1374  H1376   1.111   .     S
C1374  H1375   1.111   .     S
C1374  C1377   1.538   .     S
C1377  H1379   1.109   .     S
C1377  H1378   1.110   .     S
C1377  C396    1.528   1_556 S
C1380  H1381   1.111   .     S
C1380  H1383   1.110   .     S
C1380  H1382   1.110   .     S
O1384  C1385   1.422   .     S
C1385  H1386   1.111   .     S
C1385  H1387   1.115   .     S
C1385  C1388   1.535   .     S
C1388  H1390   1.110   .     S
C1388  H1389   1.110   .     S
C1388  C407    1.528   1_556 S
C1391  H1393   1.111   .     S
C1391  H1394   1.111   .     S
C1391  H1392   1.112   .     S
O1395  C1399   1.258   .     A
O1395  Zn1407  1.955   .     S
O1396  C1400   1.258   .     A
O1396  Zn1408  1.955   .     S
O1397  C1400   1.261   .     A
O1397  Zn1407  1.961   .     S
O1398  C1399   1.261   .     A
O1398  Zn1408  1.961   .     S
C1399  C1427   1.368   .     S
C1400  C1428   1.368   .     S
O1401  C1405   1.267   .     A
O1401  Zn1407  2.008   .     S
O1402  C1406   1.267   .     A
O1402  Zn1408  2.008   .     S
O1403  Zn1407  2.008   .     S
O1403  C1406   1.267   .     A
O1404  Zn1408  2.008   .     S
O1404  C1405   1.267   .     A
C1405  C1416   1.426   .     S
C1406  C1415   1.425   .     S
Zn1407 N1410   1.967   .     S
Zn1408 N1409   1.967   .     S
N1410  N425    1.189   1_556 S
C1411  O1433   1.387   .     S
C1411  C1415   1.404   .     A
C1411  C1419   1.390   .     A
C1412  C1420   1.391   .     A
C1412  O1444   1.387   .     S
C1412  C1416   1.406   .     A
C1413  C1415   1.404   .     A
C1413  C1417   1.391   .     A
C1413  O1455   1.387   .     S
C1414  C1418   1.391   .     A
C1414  C1416   1.406   .     A
C1414  O1466   1.388   .     S
C1417  C1423   1.400   .     A
C1417  C1421   1.407   .     A
C1418  C1422   1.409   .     A
C1418  C1424   1.403   .     A
C1419  C1425   1.400   .     A
C1419  C1421   1.407   .     A
C1420  C1426   1.403   .     A
C1420  C1422   1.409   .     A
C1421  C1340   1.389   1_655 S
C1423  H1429   1.080   .     S
C1423  C1344   1.389   1_655 S
C1424  H1430   1.083   .     S
C1425  H1431   1.080   .     S
C1425  C1342   1.389   1_655 S
C1426  H1432   1.083   .     S
C1428  C1099   1.166   1_565 S
O1433  C1434   1.423   .     S
C1434  C1437   1.538   .     S
C1434  H1436   1.111   .     S
C1434  H1435   1.111   .     S
C1437  H1438   1.110   .     S
C1437  H1439   1.109   .     S
C1440  H1443   1.110   .     S
C1440  H1442   1.110   .     S
C1440  H1441   1.111   .     S
C1440  C453    1.528   1_556 S
O1444  C1445   1.422   .     S
C1445  H1446   1.111   .     S
C1445  H1447   1.115   .     S
C1445  C1448   1.535   .     S
C1448  H1449   1.110   .     S
C1448  H1450   1.110   .     S
C1451  H1453   1.111   .     S
C1451  H1454   1.111   .     S
C1451  H1452   1.111   .     S
C1451  C464    1.528   1_556 S
O1455  C1456   1.423   .     S
C1456  H1458   1.111   .     S
C1456  H1457   1.111   .     S
C1456  C1459   1.538   .     S
C1459  H1461   1.109   .     S
C1459  H1460   1.110   .     S
C1459  C478    1.528   1_556 S
C1462  H1463   1.111   .     S
C1462  H1465   1.110   .     S
C1462  H1464   1.110   .     S
O1466  C1467   1.422   .     S
C1467  H1468   1.111   .     S
C1467  H1469   1.115   .     S
C1467  C1470   1.535   .     S
C1470  H1472   1.110   .     S
C1470  H1471   1.110   .     S
C1470  C489    1.528   1_556 S
C1473  H1475   1.111   .     S
C1473  H1476   1.111   .     S
C1473  H1474   1.112   .     S
