data_str_m1_o10_o18_pcu_sym.169
_audit_creation_date              2020-01-03
_audit_creation_method            'Materials Studio'
_symmetry_space_group_name_H-M    'P1'
_symmetry_Int_Tables_number       1
_symmetry_cell_setting            triclinic
loop_
_symmetry_equiv_pos_as_xyz
  x,y,z
_cell_length_a                    32.5353
_cell_length_b                    32.5215
_cell_length_c                    35.7690
_cell_angle_alpha                 98.4463
_cell_angle_beta                  73.3052
_cell_angle_gamma                 98.7827
loop_
_atom_site_label
_atom_site_type_symbol
_atom_site_fract_x
_atom_site_fract_y
_atom_site_fract_z
_atom_site_U_iso_or_equiv
_atom_site_adp_type
_atom_site_occupancy
C1     C     0.05247   0.15982   0.25868   0.00000  Uiso   1.00
C2     C     0.17376   0.11758   0.46678   0.00000  Uiso   1.00
C3     C     0.18573   0.09192   0.48838   0.00000  Uiso   1.00
C4     C     0.28101   0.17353   0.24122   0.00000  Uiso   1.00
C5     C     0.19198   0.10677   0.02516   0.00000  Uiso   1.00
C6     C     0.18583   0.14892   0.04084   0.00000  Uiso   1.00
C7     C     0.20241   0.07918   0.04718   0.00000  Uiso   1.00
C8     C     0.20451   0.09254   0.08563   0.00000  Uiso   1.00
C9     C     0.18987   0.16190   0.07917   0.00000  Uiso   1.00
C10    C     0.32698   0.17621   0.23771   0.00000  Uiso   1.00
C11    C     0.00711   0.15724   0.26194   0.00000  Uiso   1.00
C12    C     0.12827   0.23900   0.41631   0.00000  Uiso   1.00
C13    C     0.18131   0.32228   0.23875   0.00000  Uiso   1.00
C14    C     0.15127   0.01195   0.26175   0.00000  Uiso   1.00
C15    C     0.15586   0.05606   0.25881   0.00000  Uiso   1.00
C16    C     0.17690   0.27766   0.24146   0.00000  Uiso   1.00
C17    C     0.18805   0.14499   0.14408   0.00000  Uiso   1.00
C18    C     0.14596   0.18814   0.35603   0.00000  Uiso   1.00
C19    C     0.14132   0.20019   0.39815   0.00000  Uiso   1.00
C20    C     0.19701   0.13373   0.10179   0.00000  Uiso   1.00
C21    C     0.13047   0.25239   0.45460   0.00000  Uiso   1.00
C22    C     0.24773   0.03158   0.01295   0.00000  Uiso   1.00
C23    C     0.15421   0.17404   0.41931   0.00000  Uiso   1.00
C24    C     0.24993   0.31908   0.49687   0.00000  Uiso   1.00
C25    C     0.24994   0.07260   0.11640   0.00000  Uiso   1.00
C26    C     0.26321   0.03266   0.12452   0.00000  Uiso   1.00
C27    C     0.15535   0.18621   0.45850   0.00000  Uiso   1.00
C28    C     0.14484   0.22675   0.47543   0.00000  Uiso   1.00
C29    C     0.16781   0.15976   0.48079   0.00000  Uiso   1.00
C30    C     0.17319   0.17561   0.01868   0.00000  Uiso   1.00
C31    C     0.16445   0.21715   0.03350   0.00000  Uiso   1.00
C32    C     0.14962   0.24171   0.01262   0.00000  Uiso   1.00
H33    H     0.14256   0.27304   0.02547   0.00000  Uiso   1.00
H34    H     0.16499   0.14505   0.40376   0.00000  Uiso   1.00
H35    H     0.16808   0.23181   0.06152   0.00000  Uiso   1.00
H36    H     0.16788   0.10258   0.43961   0.00000  Uiso   1.00
H37    H     0.26921   0.03989   0.03281   0.00000  Uiso   1.00
H38    H     0.25986   0.05082   0.48782   0.00000  Uiso   1.00
H39    H     0.22910   0.30986   0.47656   0.00000  Uiso   1.00
H40    H     0.28373   0.31407   0.48066   0.00000  Uiso   1.00
H41    H     0.23873   0.29910   0.02137   0.00000  Uiso   1.00
H42    H     0.24764   0.09551   0.14300   0.00000  Uiso   1.00
H43    H     0.27592   0.08539   0.09156   0.00000  Uiso   1.00
H44    H     0.01664   0.19369   0.21534   0.00000  Uiso   1.00
H45    H     0.26678   0.00937   0.09811   0.00000  Uiso   1.00
H46    H     0.29453   0.03961   0.13211   0.00000  Uiso   1.00
H47    H     0.23832   0.01922   0.14941   0.00000  Uiso   1.00
H48    H     0.31812   0.13963   0.28453   0.00000  Uiso   1.00
H49    H     0.20931   0.00321   0.21794   0.00000  Uiso   1.00
H50    H     0.12267   0.33171   0.28235   0.00000  Uiso   1.00
H51    H     0.18425   0.19275   0.09368   0.00000  Uiso   1.00
H52    H     0.18912   0.05969   0.47622   0.00000  Uiso   1.00
H53    H     0.12186   0.28322   0.46764   0.00000  Uiso   1.00
H54    H     0.11842   0.25980   0.40032   0.00000  Uiso   1.00
O55    O     0.16667   0.16667   0.25000   0.00000  Uiso   1.00
O56    O     0.15693   0.12393   0.16625   0.00000  Uiso   1.00
O57    O     0.12687   0.20646   0.33749   0.00000  Uiso   1.00
O58    O     0.21088   0.17493   0.15877   0.00000  Uiso   1.00
O59    O     0.17198   0.16135   0.33749   0.00000  Uiso   1.00
O60    O     0.20456   0.03729   0.03338   0.00000  Uiso   1.00
O61    O     0.20929   0.06334   0.10820   0.00000  Uiso   1.00
O62    O     0.17849   0.08101   0.27821   0.00000  Uiso   1.00
O63    O     0.14581   0.26136   0.26767   0.00000  Uiso   1.00
O64    O     0.07452   0.13251   0.23607   0.00000  Uiso   1.00
O65    O     0.26785   0.19179   0.21806   0.00000  Uiso   1.00
O66    O     0.06990   0.18960   0.27820   0.00000  Uiso   1.00
O67    O     0.25440   0.15277   0.26768   0.00000  Uiso   1.00
O68    O     0.13800   0.06903   0.23607   0.00000  Uiso   1.00
O69    O     0.20437   0.25527   0.21806   0.00000  Uiso   1.00
Zn70   Zn    0.19244   0.14090   0.28278   0.00000  Uiso   1.00
Zn71   Zn    0.13459   0.12378   0.22258   0.00000  Uiso   1.00
Zn72   Zn    0.21166   0.19664   0.21188   0.00000  Uiso   1.00
Zn73   Zn    0.12798   0.20535   0.28277   0.00000  Uiso   1.00
C74    C     0.38580   0.15982   0.25868   0.00000  Uiso   1.00
C75    C     0.50709   0.11758   0.46678   0.00000  Uiso   1.00
C76    C     0.51906   0.09192   0.48838   0.00000  Uiso   1.00
C77    C     0.61434   0.17353   0.24122   0.00000  Uiso   1.00
C78    C     0.52531   0.10677   0.02516   0.00000  Uiso   1.00
C79    C     0.51916   0.14892   0.04084   0.00000  Uiso   1.00
C80    C     0.53574   0.07918   0.04718   0.00000  Uiso   1.00
C81    C     0.53784   0.09254   0.08563   0.00000  Uiso   1.00
C82    C     0.52320   0.16190   0.07917   0.00000  Uiso   1.00
C83    C     0.66031   0.17621   0.23771   0.00000  Uiso   1.00
C84    C     0.34044   0.15724   0.26194   0.00000  Uiso   1.00
C85    C     0.46160   0.23900   0.41631   0.00000  Uiso   1.00
C86    C     0.51465   0.32228   0.23875   0.00000  Uiso   1.00
C87    C     0.48461   0.01195   0.26175   0.00000  Uiso   1.00
C88    C     0.48919   0.05606   0.25881   0.00000  Uiso   1.00
C89    C     0.51024   0.27766   0.24146   0.00000  Uiso   1.00
C90    C     0.52138   0.14499   0.14408   0.00000  Uiso   1.00
C91    C     0.47929   0.18814   0.35603   0.00000  Uiso   1.00
C92    C     0.47465   0.20019   0.39815   0.00000  Uiso   1.00
C93    C     0.53035   0.13373   0.10179   0.00000  Uiso   1.00
C94    C     0.46380   0.25239   0.45460   0.00000  Uiso   1.00
C95    C     0.58107   0.03158   0.01295   0.00000  Uiso   1.00
C96    C     0.48754   0.17404   0.41931   0.00000  Uiso   1.00
C97    C     0.58326   0.31908   0.49687   0.00000  Uiso   1.00
C98    C     0.58327   0.07260   0.11640   0.00000  Uiso   1.00
C99    C     0.59655   0.03266   0.12452   0.00000  Uiso   1.00
C100   C     0.48869   0.18621   0.45850   0.00000  Uiso   1.00
C101   C     0.47817   0.22675   0.47543   0.00000  Uiso   1.00
C102   C     0.50114   0.15976   0.48079   0.00000  Uiso   1.00
C103   C     0.50652   0.17561   0.01868   0.00000  Uiso   1.00
C104   C     0.49778   0.21715   0.03350   0.00000  Uiso   1.00
C105   C     0.48295   0.24171   0.01262   0.00000  Uiso   1.00
H106   H     0.47589   0.27304   0.02547   0.00000  Uiso   1.00
H107   H     0.49832   0.14505   0.40376   0.00000  Uiso   1.00
H108   H     0.50141   0.23181   0.06152   0.00000  Uiso   1.00
H109   H     0.50121   0.10258   0.43961   0.00000  Uiso   1.00
H110   H     0.60255   0.03989   0.03281   0.00000  Uiso   1.00
H111   H     0.59320   0.05082   0.48782   0.00000  Uiso   1.00
H112   H     0.56243   0.30986   0.47656   0.00000  Uiso   1.00
H113   H     0.61707   0.31407   0.48066   0.00000  Uiso   1.00
H114   H     0.57206   0.29910   0.02137   0.00000  Uiso   1.00
H115   H     0.58097   0.09551   0.14300   0.00000  Uiso   1.00
H116   H     0.60925   0.08539   0.09156   0.00000  Uiso   1.00
H117   H     0.34998   0.19369   0.21534   0.00000  Uiso   1.00
H118   H     0.60011   0.00937   0.09811   0.00000  Uiso   1.00
H119   H     0.62786   0.03961   0.13211   0.00000  Uiso   1.00
H120   H     0.57165   0.01922   0.14941   0.00000  Uiso   1.00
H121   H     0.65146   0.13963   0.28453   0.00000  Uiso   1.00
H122   H     0.54264   0.00321   0.21794   0.00000  Uiso   1.00
H123   H     0.45600   0.33171   0.28235   0.00000  Uiso   1.00
H124   H     0.51759   0.19275   0.09368   0.00000  Uiso   1.00
H125   H     0.52245   0.05969   0.47622   0.00000  Uiso   1.00
H126   H     0.45520   0.28322   0.46764   0.00000  Uiso   1.00
H127   H     0.45175   0.25980   0.40032   0.00000  Uiso   1.00
O128   O     0.50000   0.16667   0.25000   0.00000  Uiso   1.00
O129   O     0.49027   0.12393   0.16625   0.00000  Uiso   1.00
O130   O     0.46020   0.20646   0.33749   0.00000  Uiso   1.00
O131   O     0.54421   0.17493   0.15877   0.00000  Uiso   1.00
O132   O     0.50532   0.16135   0.33749   0.00000  Uiso   1.00
O133   O     0.53789   0.03729   0.03338   0.00000  Uiso   1.00
O134   O     0.54262   0.06334   0.10820   0.00000  Uiso   1.00
O135   O     0.51182   0.08101   0.27821   0.00000  Uiso   1.00
O136   O     0.47914   0.26136   0.26767   0.00000  Uiso   1.00
O137   O     0.40785   0.13251   0.23607   0.00000  Uiso   1.00
O138   O     0.60119   0.19179   0.21806   0.00000  Uiso   1.00
O139   O     0.40323   0.18960   0.27820   0.00000  Uiso   1.00
O140   O     0.58773   0.15277   0.26768   0.00000  Uiso   1.00
O141   O     0.47133   0.06903   0.23607   0.00000  Uiso   1.00
O142   O     0.53771   0.25527   0.21806   0.00000  Uiso   1.00
Zn143  Zn    0.52577   0.14090   0.28278   0.00000  Uiso   1.00
Zn144  Zn    0.46792   0.12378   0.22258   0.00000  Uiso   1.00
Zn145  Zn    0.54500   0.19664   0.21188   0.00000  Uiso   1.00
Zn146  Zn    0.46131   0.20535   0.28277   0.00000  Uiso   1.00
C147   C     0.71913   0.15982   0.25868   0.00000  Uiso   1.00
C148   C     0.84042   0.11758   0.46678   0.00000  Uiso   1.00
C149   C     0.85239   0.09192   0.48838   0.00000  Uiso   1.00
C150   C     0.94767   0.17353   0.24122   0.00000  Uiso   1.00
C151   C     0.85865   0.10677   0.02516   0.00000  Uiso   1.00
C152   C     0.85250   0.14892   0.04084   0.00000  Uiso   1.00
C153   C     0.86907   0.07918   0.04718   0.00000  Uiso   1.00
C154   C     0.87118   0.09254   0.08563   0.00000  Uiso   1.00
C155   C     0.85654   0.16190   0.07917   0.00000  Uiso   1.00
C156   C     0.99364   0.17621   0.23771   0.00000  Uiso   1.00
C157   C     0.67377   0.15724   0.26194   0.00000  Uiso   1.00
C158   C     0.79494   0.23900   0.41631   0.00000  Uiso   1.00
C159   C     0.84798   0.32228   0.23875   0.00000  Uiso   1.00
C160   C     0.81794   0.01195   0.26175   0.00000  Uiso   1.00
C161   C     0.82252   0.05606   0.25881   0.00000  Uiso   1.00
C162   C     0.84357   0.27766   0.24146   0.00000  Uiso   1.00
C163   C     0.85472   0.14499   0.14408   0.00000  Uiso   1.00
C164   C     0.81262   0.18814   0.35603   0.00000  Uiso   1.00
C165   C     0.80799   0.20019   0.39815   0.00000  Uiso   1.00
C166   C     0.86368   0.13373   0.10179   0.00000  Uiso   1.00
C167   C     0.79713   0.25239   0.45460   0.00000  Uiso   1.00
C168   C     0.91440   0.03158   0.01295   0.00000  Uiso   1.00
C169   C     0.82087   0.17404   0.41931   0.00000  Uiso   1.00
C170   C     0.91660   0.31908   0.49687   0.00000  Uiso   1.00
C171   C     0.91661   0.07260   0.11640   0.00000  Uiso   1.00
C172   C     0.92988   0.03266   0.12452   0.00000  Uiso   1.00
C173   C     0.82202   0.18621   0.45850   0.00000  Uiso   1.00
C174   C     0.81151   0.22675   0.47543   0.00000  Uiso   1.00
C175   C     0.83447   0.15976   0.48079   0.00000  Uiso   1.00
C176   C     0.83985   0.17561   0.01868   0.00000  Uiso   1.00
C177   C     0.83112   0.21715   0.03350   0.00000  Uiso   1.00
C178   C     0.81629   0.24171   0.01262   0.00000  Uiso   1.00
H179   H     0.80922   0.27304   0.02547   0.00000  Uiso   1.00
H180   H     0.83166   0.14505   0.40376   0.00000  Uiso   1.00
H181   H     0.83475   0.23181   0.06152   0.00000  Uiso   1.00
H182   H     0.83455   0.10258   0.43961   0.00000  Uiso   1.00
H183   H     0.93588   0.03989   0.03281   0.00000  Uiso   1.00
H184   H     0.92653   0.05082   0.48782   0.00000  Uiso   1.00
H185   H     0.89577   0.30986   0.47656   0.00000  Uiso   1.00
H186   H     0.95040   0.31407   0.48066   0.00000  Uiso   1.00
H187   H     0.90539   0.29910   0.02137   0.00000  Uiso   1.00
H188   H     0.91430   0.09551   0.14300   0.00000  Uiso   1.00
H189   H     0.94259   0.08539   0.09156   0.00000  Uiso   1.00
H190   H     0.68331   0.19369   0.21534   0.00000  Uiso   1.00
H191   H     0.93344   0.00937   0.09811   0.00000  Uiso   1.00
H192   H     0.96119   0.03961   0.13211   0.00000  Uiso   1.00
H193   H     0.90498   0.01922   0.14941   0.00000  Uiso   1.00
H194   H     0.98479   0.13963   0.28453   0.00000  Uiso   1.00
H195   H     0.87597   0.00321   0.21794   0.00000  Uiso   1.00
H196   H     0.78933   0.33171   0.28235   0.00000  Uiso   1.00
H197   H     0.85092   0.19275   0.09368   0.00000  Uiso   1.00
H198   H     0.85578   0.05969   0.47622   0.00000  Uiso   1.00
H199   H     0.78853   0.28322   0.46764   0.00000  Uiso   1.00
H200   H     0.78509   0.25980   0.40032   0.00000  Uiso   1.00
O201   O     0.83333   0.16667   0.25000   0.00000  Uiso   1.00
O202   O     0.82360   0.12393   0.16625   0.00000  Uiso   1.00
O203   O     0.79354   0.20646   0.33749   0.00000  Uiso   1.00
O204   O     0.87755   0.17493   0.15877   0.00000  Uiso   1.00
O205   O     0.83865   0.16135   0.33749   0.00000  Uiso   1.00
O206   O     0.87123   0.03729   0.03338   0.00000  Uiso   1.00
O207   O     0.87595   0.06334   0.10820   0.00000  Uiso   1.00
O208   O     0.84515   0.08101   0.27821   0.00000  Uiso   1.00
O209   O     0.81247   0.26136   0.26767   0.00000  Uiso   1.00
O210   O     0.74119   0.13251   0.23607   0.00000  Uiso   1.00
O211   O     0.93452   0.19179   0.21806   0.00000  Uiso   1.00
O212   O     0.73656   0.18960   0.27820   0.00000  Uiso   1.00
O213   O     0.92106   0.15277   0.26768   0.00000  Uiso   1.00
O214   O     0.80467   0.06903   0.23607   0.00000  Uiso   1.00
O215   O     0.87104   0.25527   0.21806   0.00000  Uiso   1.00
Zn216  Zn    0.85910   0.14090   0.28278   0.00000  Uiso   1.00
Zn217  Zn    0.80125   0.12378   0.22258   0.00000  Uiso   1.00
Zn218  Zn    0.87833   0.19664   0.21188   0.00000  Uiso   1.00
Zn219  Zn    0.79465   0.20535   0.28277   0.00000  Uiso   1.00
C220   C     0.05247   0.49315   0.25868   0.00000  Uiso   1.00
C221   C     0.17376   0.45091   0.46678   0.00000  Uiso   1.00
C222   C     0.18573   0.42525   0.48838   0.00000  Uiso   1.00
C223   C     0.28101   0.50686   0.24122   0.00000  Uiso   1.00
C224   C     0.19198   0.44011   0.02516   0.00000  Uiso   1.00
C225   C     0.18583   0.48225   0.04084   0.00000  Uiso   1.00
C226   C     0.20241   0.41251   0.04718   0.00000  Uiso   1.00
C227   C     0.20451   0.42587   0.08563   0.00000  Uiso   1.00
C228   C     0.18987   0.49523   0.07917   0.00000  Uiso   1.00
C229   C     0.32698   0.50954   0.23771   0.00000  Uiso   1.00
C230   C     0.00711   0.49057   0.26194   0.00000  Uiso   1.00
C231   C     0.12827   0.57233   0.41631   0.00000  Uiso   1.00
C232   C     0.18131   0.65561   0.23875   0.00000  Uiso   1.00
C233   C     0.15127   0.34529   0.26175   0.00000  Uiso   1.00
C234   C     0.15586   0.38939   0.25881   0.00000  Uiso   1.00
C235   C     0.17690   0.61099   0.24146   0.00000  Uiso   1.00
C236   C     0.18805   0.47832   0.14408   0.00000  Uiso   1.00
C237   C     0.14596   0.52148   0.35603   0.00000  Uiso   1.00
C238   C     0.14132   0.53353   0.39815   0.00000  Uiso   1.00
C239   C     0.19701   0.46707   0.10179   0.00000  Uiso   1.00
C240   C     0.13047   0.58572   0.45460   0.00000  Uiso   1.00
C241   C     0.24773   0.36491   0.01295   0.00000  Uiso   1.00
C242   C     0.15421   0.50738   0.41931   0.00000  Uiso   1.00
C243   C     0.24993   0.65242   0.49687   0.00000  Uiso   1.00
C244   C     0.24994   0.40594   0.11640   0.00000  Uiso   1.00
C245   C     0.26321   0.36600   0.12452   0.00000  Uiso   1.00
C246   C     0.15535   0.51954   0.45850   0.00000  Uiso   1.00
C247   C     0.14484   0.56008   0.47543   0.00000  Uiso   1.00
C248   C     0.16781   0.49309   0.48079   0.00000  Uiso   1.00
C249   C     0.17319   0.50894   0.01868   0.00000  Uiso   1.00
C250   C     0.16445   0.55049   0.03350   0.00000  Uiso   1.00
C251   C     0.14962   0.57504   0.01262   0.00000  Uiso   1.00
H252   H     0.14256   0.60638   0.02547   0.00000  Uiso   1.00
H253   H     0.16499   0.47838   0.40376   0.00000  Uiso   1.00
H254   H     0.16808   0.56515   0.06152   0.00000  Uiso   1.00
H255   H     0.16788   0.43591   0.43961   0.00000  Uiso   1.00
H256   H     0.26921   0.37323   0.03281   0.00000  Uiso   1.00
H257   H     0.25986   0.38415   0.48782   0.00000  Uiso   1.00
H258   H     0.22910   0.64319   0.47656   0.00000  Uiso   1.00
H259   H     0.28373   0.64741   0.48066   0.00000  Uiso   1.00
H260   H     0.23873   0.63244   0.02137   0.00000  Uiso   1.00
H261   H     0.24764   0.42884   0.14300   0.00000  Uiso   1.00
H262   H     0.27592   0.41872   0.09156   0.00000  Uiso   1.00
H263   H     0.01664   0.52702   0.21534   0.00000  Uiso   1.00
H264   H     0.26678   0.34270   0.09811   0.00000  Uiso   1.00
H265   H     0.29453   0.37294   0.13211   0.00000  Uiso   1.00
H266   H     0.23832   0.35255   0.14941   0.00000  Uiso   1.00
H267   H     0.31812   0.47296   0.28453   0.00000  Uiso   1.00
H268   H     0.20931   0.33654   0.21794   0.00000  Uiso   1.00
H269   H     0.12267   0.66504   0.28235   0.00000  Uiso   1.00
H270   H     0.18425   0.52608   0.09368   0.00000  Uiso   1.00
H271   H     0.18912   0.39302   0.47622   0.00000  Uiso   1.00
H272   H     0.12186   0.61656   0.46764   0.00000  Uiso   1.00
H273   H     0.11842   0.59314   0.40032   0.00000  Uiso   1.00
O274   O     0.16667   0.50000   0.25000   0.00000  Uiso   1.00
O275   O     0.15693   0.45726   0.16625   0.00000  Uiso   1.00
O276   O     0.12687   0.53979   0.33749   0.00000  Uiso   1.00
O277   O     0.21088   0.50826   0.15877   0.00000  Uiso   1.00
O278   O     0.17198   0.49468   0.33749   0.00000  Uiso   1.00
O279   O     0.20456   0.37062   0.03338   0.00000  Uiso   1.00
O280   O     0.20929   0.39667   0.10820   0.00000  Uiso   1.00
O281   O     0.17849   0.41434   0.27821   0.00000  Uiso   1.00
O282   O     0.14581   0.59469   0.26767   0.00000  Uiso   1.00
O283   O     0.07452   0.46584   0.23607   0.00000  Uiso   1.00
O284   O     0.26785   0.52512   0.21806   0.00000  Uiso   1.00
O285   O     0.06990   0.52293   0.27820   0.00000  Uiso   1.00
O286   O     0.25440   0.48610   0.26768   0.00000  Uiso   1.00
O287   O     0.13800   0.40236   0.23607   0.00000  Uiso   1.00
O288   O     0.20437   0.58860   0.21806   0.00000  Uiso   1.00
Zn289  Zn    0.19244   0.47423   0.28278   0.00000  Uiso   1.00
Zn290  Zn    0.13459   0.45711   0.22258   0.00000  Uiso   1.00
Zn291  Zn    0.21166   0.52997   0.21188   0.00000  Uiso   1.00
Zn292  Zn    0.12798   0.53868   0.28277   0.00000  Uiso   1.00
C293   C     0.38580   0.49315   0.25868   0.00000  Uiso   1.00
C294   C     0.50709   0.45091   0.46678   0.00000  Uiso   1.00
C295   C     0.51906   0.42525   0.48838   0.00000  Uiso   1.00
C296   C     0.61434   0.50686   0.24122   0.00000  Uiso   1.00
C297   C     0.52531   0.44011   0.02516   0.00000  Uiso   1.00
C298   C     0.51916   0.48225   0.04084   0.00000  Uiso   1.00
C299   C     0.53574   0.41251   0.04718   0.00000  Uiso   1.00
C300   C     0.53784   0.42587   0.08563   0.00000  Uiso   1.00
C301   C     0.52320   0.49523   0.07917   0.00000  Uiso   1.00
C302   C     0.66031   0.50954   0.23771   0.00000  Uiso   1.00
C303   C     0.34044   0.49057   0.26194   0.00000  Uiso   1.00
C304   C     0.46160   0.57233   0.41631   0.00000  Uiso   1.00
C305   C     0.51465   0.65561   0.23875   0.00000  Uiso   1.00
C306   C     0.48461   0.34529   0.26175   0.00000  Uiso   1.00
C307   C     0.48919   0.38939   0.25881   0.00000  Uiso   1.00
C308   C     0.51024   0.61099   0.24146   0.00000  Uiso   1.00
C309   C     0.52138   0.47832   0.14408   0.00000  Uiso   1.00
C310   C     0.47929   0.52148   0.35603   0.00000  Uiso   1.00
C311   C     0.47465   0.53353   0.39815   0.00000  Uiso   1.00
C312   C     0.53035   0.46707   0.10179   0.00000  Uiso   1.00
C313   C     0.46380   0.58572   0.45460   0.00000  Uiso   1.00
C314   C     0.58107   0.36491   0.01295   0.00000  Uiso   1.00
C315   C     0.48754   0.50738   0.41931   0.00000  Uiso   1.00
C316   C     0.58326   0.65242   0.49687   0.00000  Uiso   1.00
C317   C     0.58327   0.40594   0.11640   0.00000  Uiso   1.00
C318   C     0.59655   0.36600   0.12452   0.00000  Uiso   1.00
C319   C     0.48869   0.51954   0.45850   0.00000  Uiso   1.00
C320   C     0.47817   0.56008   0.47543   0.00000  Uiso   1.00
C321   C     0.50114   0.49309   0.48079   0.00000  Uiso   1.00
C322   C     0.50652   0.50894   0.01868   0.00000  Uiso   1.00
C323   C     0.49778   0.55049   0.03350   0.00000  Uiso   1.00
C324   C     0.48295   0.57504   0.01262   0.00000  Uiso   1.00
H325   H     0.47589   0.60638   0.02547   0.00000  Uiso   1.00
H326   H     0.49832   0.47838   0.40376   0.00000  Uiso   1.00
H327   H     0.50141   0.56515   0.06152   0.00000  Uiso   1.00
H328   H     0.50121   0.43591   0.43961   0.00000  Uiso   1.00
H329   H     0.60255   0.37323   0.03281   0.00000  Uiso   1.00
H330   H     0.59320   0.38415   0.48782   0.00000  Uiso   1.00
H331   H     0.56243   0.64319   0.47656   0.00000  Uiso   1.00
H332   H     0.61707   0.64741   0.48066   0.00000  Uiso   1.00
H333   H     0.57206   0.63244   0.02137   0.00000  Uiso   1.00
H334   H     0.58097   0.42884   0.14300   0.00000  Uiso   1.00
H335   H     0.60925   0.41872   0.09156   0.00000  Uiso   1.00
H336   H     0.34998   0.52702   0.21534   0.00000  Uiso   1.00
H337   H     0.60011   0.34270   0.09811   0.00000  Uiso   1.00
H338   H     0.62786   0.37294   0.13211   0.00000  Uiso   1.00
H339   H     0.57165   0.35255   0.14941   0.00000  Uiso   1.00
H340   H     0.65146   0.47296   0.28453   0.00000  Uiso   1.00
H341   H     0.54264   0.33654   0.21794   0.00000  Uiso   1.00
H342   H     0.45600   0.66504   0.28235   0.00000  Uiso   1.00
H343   H     0.51759   0.52608   0.09368   0.00000  Uiso   1.00
H344   H     0.52245   0.39302   0.47622   0.00000  Uiso   1.00
H345   H     0.45520   0.61656   0.46764   0.00000  Uiso   1.00
H346   H     0.45175   0.59314   0.40032   0.00000  Uiso   1.00
O347   O     0.50000   0.50000   0.25000   0.00000  Uiso   1.00
O348   O     0.49027   0.45726   0.16625   0.00000  Uiso   1.00
O349   O     0.46020   0.53979   0.33749   0.00000  Uiso   1.00
O350   O     0.54421   0.50826   0.15877   0.00000  Uiso   1.00
O351   O     0.50532   0.49468   0.33749   0.00000  Uiso   1.00
O352   O     0.53789   0.37062   0.03338   0.00000  Uiso   1.00
O353   O     0.54262   0.39667   0.10820   0.00000  Uiso   1.00
O354   O     0.51182   0.41434   0.27821   0.00000  Uiso   1.00
O355   O     0.47914   0.59469   0.26767   0.00000  Uiso   1.00
O356   O     0.40785   0.46584   0.23607   0.00000  Uiso   1.00
O357   O     0.60119   0.52512   0.21806   0.00000  Uiso   1.00
O358   O     0.40323   0.52293   0.27820   0.00000  Uiso   1.00
O359   O     0.58773   0.48610   0.26768   0.00000  Uiso   1.00
O360   O     0.47133   0.40236   0.23607   0.00000  Uiso   1.00
O361   O     0.53771   0.58860   0.21806   0.00000  Uiso   1.00
Zn362  Zn    0.52577   0.47423   0.28278   0.00000  Uiso   1.00
Zn363  Zn    0.46792   0.45711   0.22258   0.00000  Uiso   1.00
Zn364  Zn    0.54500   0.52997   0.21188   0.00000  Uiso   1.00
Zn365  Zn    0.46131   0.53868   0.28277   0.00000  Uiso   1.00
C366   C     0.71913   0.49315   0.25868   0.00000  Uiso   1.00
C367   C     0.84042   0.45091   0.46678   0.00000  Uiso   1.00
C368   C     0.85239   0.42525   0.48838   0.00000  Uiso   1.00
C369   C     0.94767   0.50686   0.24122   0.00000  Uiso   1.00
C370   C     0.85865   0.44011   0.02516   0.00000  Uiso   1.00
C371   C     0.85250   0.48225   0.04084   0.00000  Uiso   1.00
C372   C     0.86907   0.41251   0.04718   0.00000  Uiso   1.00
C373   C     0.87118   0.42587   0.08563   0.00000  Uiso   1.00
C374   C     0.85654   0.49523   0.07917   0.00000  Uiso   1.00
C375   C     0.99364   0.50954   0.23771   0.00000  Uiso   1.00
C376   C     0.67377   0.49057   0.26194   0.00000  Uiso   1.00
C377   C     0.79494   0.57233   0.41631   0.00000  Uiso   1.00
C378   C     0.84798   0.65561   0.23875   0.00000  Uiso   1.00
C379   C     0.81794   0.34529   0.26175   0.00000  Uiso   1.00
C380   C     0.82252   0.38939   0.25881   0.00000  Uiso   1.00
C381   C     0.84357   0.61099   0.24146   0.00000  Uiso   1.00
C382   C     0.85472   0.47832   0.14408   0.00000  Uiso   1.00
C383   C     0.81262   0.52148   0.35603   0.00000  Uiso   1.00
C384   C     0.80799   0.53353   0.39815   0.00000  Uiso   1.00
C385   C     0.86368   0.46707   0.10179   0.00000  Uiso   1.00
C386   C     0.79713   0.58572   0.45460   0.00000  Uiso   1.00
C387   C     0.91440   0.36491   0.01295   0.00000  Uiso   1.00
C388   C     0.82087   0.50738   0.41931   0.00000  Uiso   1.00
C389   C     0.91660   0.65242   0.49687   0.00000  Uiso   1.00
C390   C     0.91661   0.40594   0.11640   0.00000  Uiso   1.00
C391   C     0.92988   0.36600   0.12452   0.00000  Uiso   1.00
C392   C     0.82202   0.51954   0.45850   0.00000  Uiso   1.00
C393   C     0.81151   0.56008   0.47543   0.00000  Uiso   1.00
C394   C     0.83447   0.49309   0.48079   0.00000  Uiso   1.00
C395   C     0.83985   0.50894   0.01868   0.00000  Uiso   1.00
C396   C     0.83112   0.55049   0.03350   0.00000  Uiso   1.00
C397   C     0.81629   0.57504   0.01262   0.00000  Uiso   1.00
H398   H     0.80922   0.60638   0.02547   0.00000  Uiso   1.00
H399   H     0.83166   0.47838   0.40376   0.00000  Uiso   1.00
H400   H     0.83475   0.56515   0.06152   0.00000  Uiso   1.00
H401   H     0.83455   0.43591   0.43961   0.00000  Uiso   1.00
H402   H     0.93588   0.37323   0.03281   0.00000  Uiso   1.00
H403   H     0.92653   0.38415   0.48782   0.00000  Uiso   1.00
H404   H     0.89577   0.64319   0.47656   0.00000  Uiso   1.00
H405   H     0.95040   0.64741   0.48066   0.00000  Uiso   1.00
H406   H     0.90539   0.63244   0.02137   0.00000  Uiso   1.00
H407   H     0.91430   0.42884   0.14300   0.00000  Uiso   1.00
H408   H     0.94259   0.41872   0.09156   0.00000  Uiso   1.00
H409   H     0.68331   0.52702   0.21534   0.00000  Uiso   1.00
H410   H     0.93344   0.34270   0.09811   0.00000  Uiso   1.00
H411   H     0.96119   0.37294   0.13211   0.00000  Uiso   1.00
H412   H     0.90498   0.35255   0.14941   0.00000  Uiso   1.00
H413   H     0.98479   0.47296   0.28453   0.00000  Uiso   1.00
H414   H     0.87597   0.33654   0.21794   0.00000  Uiso   1.00
H415   H     0.78933   0.66504   0.28235   0.00000  Uiso   1.00
H416   H     0.85092   0.52608   0.09368   0.00000  Uiso   1.00
H417   H     0.85578   0.39302   0.47622   0.00000  Uiso   1.00
H418   H     0.78853   0.61656   0.46764   0.00000  Uiso   1.00
H419   H     0.78509   0.59314   0.40032   0.00000  Uiso   1.00
O420   O     0.83333   0.50000   0.25000   0.00000  Uiso   1.00
O421   O     0.82360   0.45726   0.16625   0.00000  Uiso   1.00
O422   O     0.79354   0.53979   0.33749   0.00000  Uiso   1.00
O423   O     0.87755   0.50826   0.15877   0.00000  Uiso   1.00
O424   O     0.83865   0.49468   0.33749   0.00000  Uiso   1.00
O425   O     0.87123   0.37062   0.03338   0.00000  Uiso   1.00
O426   O     0.87595   0.39667   0.10820   0.00000  Uiso   1.00
O427   O     0.84515   0.41434   0.27821   0.00000  Uiso   1.00
O428   O     0.81247   0.59469   0.26767   0.00000  Uiso   1.00
O429   O     0.74119   0.46584   0.23607   0.00000  Uiso   1.00
O430   O     0.93452   0.52512   0.21806   0.00000  Uiso   1.00
O431   O     0.73656   0.52293   0.27820   0.00000  Uiso   1.00
O432   O     0.92106   0.48610   0.26768   0.00000  Uiso   1.00
O433   O     0.80467   0.40236   0.23607   0.00000  Uiso   1.00
O434   O     0.87104   0.58860   0.21806   0.00000  Uiso   1.00
Zn435  Zn    0.85910   0.47423   0.28278   0.00000  Uiso   1.00
Zn436  Zn    0.80125   0.45711   0.22258   0.00000  Uiso   1.00
Zn437  Zn    0.87833   0.52997   0.21188   0.00000  Uiso   1.00
Zn438  Zn    0.79465   0.53868   0.28277   0.00000  Uiso   1.00
C439   C     0.05247   0.82649   0.25868   0.00000  Uiso   1.00
C440   C     0.17376   0.78425   0.46678   0.00000  Uiso   1.00
C441   C     0.18573   0.75859   0.48838   0.00000  Uiso   1.00
C442   C     0.28101   0.84020   0.24122   0.00000  Uiso   1.00
C443   C     0.19198   0.77344   0.02516   0.00000  Uiso   1.00
C444   C     0.18583   0.81559   0.04084   0.00000  Uiso   1.00
C445   C     0.20241   0.74584   0.04718   0.00000  Uiso   1.00
C446   C     0.20451   0.75921   0.08563   0.00000  Uiso   1.00
C447   C     0.18987   0.82856   0.07917   0.00000  Uiso   1.00
C448   C     0.32698   0.84287   0.23771   0.00000  Uiso   1.00
C449   C     0.00711   0.82390   0.26194   0.00000  Uiso   1.00
C450   C     0.12827   0.90566   0.41631   0.00000  Uiso   1.00
C451   C     0.18131   0.98894   0.23875   0.00000  Uiso   1.00
C452   C     0.15127   0.67862   0.26175   0.00000  Uiso   1.00
C453   C     0.15586   0.72273   0.25881   0.00000  Uiso   1.00
C454   C     0.17690   0.94432   0.24146   0.00000  Uiso   1.00
C455   C     0.18805   0.81165   0.14408   0.00000  Uiso   1.00
C456   C     0.14596   0.85481   0.35603   0.00000  Uiso   1.00
C457   C     0.14132   0.86686   0.39815   0.00000  Uiso   1.00
C458   C     0.19701   0.80040   0.10179   0.00000  Uiso   1.00
C459   C     0.13047   0.91905   0.45460   0.00000  Uiso   1.00
C460   C     0.24773   0.69824   0.01295   0.00000  Uiso   1.00
C461   C     0.15421   0.84071   0.41931   0.00000  Uiso   1.00
C462   C     0.24993   0.98575   0.49687   0.00000  Uiso   1.00
C463   C     0.24994   0.73927   0.11640   0.00000  Uiso   1.00
C464   C     0.26321   0.69933   0.12452   0.00000  Uiso   1.00
C465   C     0.15535   0.85287   0.45850   0.00000  Uiso   1.00
C466   C     0.14484   0.89342   0.47543   0.00000  Uiso   1.00
C467   C     0.16781   0.82642   0.48079   0.00000  Uiso   1.00
C468   C     0.17319   0.84227   0.01868   0.00000  Uiso   1.00
C469   C     0.16445   0.88382   0.03350   0.00000  Uiso   1.00
C470   C     0.14962   0.90837   0.01262   0.00000  Uiso   1.00
H471   H     0.14256   0.93971   0.02547   0.00000  Uiso   1.00
H472   H     0.16499   0.81171   0.40376   0.00000  Uiso   1.00
H473   H     0.16808   0.89848   0.06152   0.00000  Uiso   1.00
H474   H     0.16788   0.76924   0.43961   0.00000  Uiso   1.00
H475   H     0.26921   0.70656   0.03281   0.00000  Uiso   1.00
H476   H     0.25986   0.71749   0.48782   0.00000  Uiso   1.00
H477   H     0.22910   0.97652   0.47656   0.00000  Uiso   1.00
H478   H     0.28373   0.98074   0.48066   0.00000  Uiso   1.00
H479   H     0.23873   0.96577   0.02137   0.00000  Uiso   1.00
H480   H     0.24764   0.76218   0.14300   0.00000  Uiso   1.00
H481   H     0.27592   0.75206   0.09156   0.00000  Uiso   1.00
H482   H     0.01664   0.86035   0.21534   0.00000  Uiso   1.00
H483   H     0.26678   0.67603   0.09811   0.00000  Uiso   1.00
H484   H     0.29453   0.70628   0.13211   0.00000  Uiso   1.00
H485   H     0.23832   0.68588   0.14941   0.00000  Uiso   1.00
H486   H     0.31812   0.80630   0.28453   0.00000  Uiso   1.00
H487   H     0.20931   0.66987   0.21794   0.00000  Uiso   1.00
H488   H     0.12267   0.99838   0.28235   0.00000  Uiso   1.00
H489   H     0.18425   0.85942   0.09368   0.00000  Uiso   1.00
H490   H     0.18912   0.72636   0.47622   0.00000  Uiso   1.00
H491   H     0.12186   0.94989   0.46764   0.00000  Uiso   1.00
H492   H     0.11842   0.92647   0.40032   0.00000  Uiso   1.00
O493   O     0.16667   0.83333   0.25000   0.00000  Uiso   1.00
O494   O     0.15693   0.79060   0.16625   0.00000  Uiso   1.00
O495   O     0.12687   0.87313   0.33749   0.00000  Uiso   1.00
O496   O     0.21088   0.84159   0.15877   0.00000  Uiso   1.00
O497   O     0.17198   0.82802   0.33749   0.00000  Uiso   1.00
O498   O     0.20456   0.70395   0.03338   0.00000  Uiso   1.00
O499   O     0.20929   0.73000   0.10820   0.00000  Uiso   1.00
O500   O     0.17849   0.74768   0.27821   0.00000  Uiso   1.00
O501   O     0.14581   0.92803   0.26767   0.00000  Uiso   1.00
O502   O     0.07452   0.79917   0.23607   0.00000  Uiso   1.00
O503   O     0.26785   0.85845   0.21806   0.00000  Uiso   1.00
O504   O     0.06990   0.85627   0.27820   0.00000  Uiso   1.00
O505   O     0.25440   0.81944   0.26768   0.00000  Uiso   1.00
O506   O     0.13800   0.73570   0.23607   0.00000  Uiso   1.00
O507   O     0.20437   0.92193   0.21806   0.00000  Uiso   1.00
Zn508  Zn    0.19244   0.80756   0.28278   0.00000  Uiso   1.00
Zn509  Zn    0.13459   0.79044   0.22258   0.00000  Uiso   1.00
Zn510  Zn    0.21166   0.86331   0.21188   0.00000  Uiso   1.00
Zn511  Zn    0.12798   0.87202   0.28277   0.00000  Uiso   1.00
C512   C     0.38580   0.82649   0.25868   0.00000  Uiso   1.00
C513   C     0.50709   0.78425   0.46678   0.00000  Uiso   1.00
C514   C     0.51906   0.75859   0.48838   0.00000  Uiso   1.00
C515   C     0.61434   0.84020   0.24122   0.00000  Uiso   1.00
C516   C     0.52531   0.77344   0.02516   0.00000  Uiso   1.00
C517   C     0.51916   0.81559   0.04084   0.00000  Uiso   1.00
C518   C     0.53574   0.74584   0.04718   0.00000  Uiso   1.00
C519   C     0.53784   0.75921   0.08563   0.00000  Uiso   1.00
C520   C     0.52320   0.82856   0.07917   0.00000  Uiso   1.00
C521   C     0.66031   0.84287   0.23771   0.00000  Uiso   1.00
C522   C     0.34044   0.82390   0.26194   0.00000  Uiso   1.00
C523   C     0.46160   0.90566   0.41631   0.00000  Uiso   1.00
C524   C     0.51465   0.98894   0.23875   0.00000  Uiso   1.00
C525   C     0.48461   0.67862   0.26175   0.00000  Uiso   1.00
C526   C     0.48919   0.72273   0.25881   0.00000  Uiso   1.00
C527   C     0.51024   0.94432   0.24146   0.00000  Uiso   1.00
C528   C     0.52138   0.81165   0.14408   0.00000  Uiso   1.00
C529   C     0.47929   0.85481   0.35603   0.00000  Uiso   1.00
C530   C     0.47465   0.86686   0.39815   0.00000  Uiso   1.00
C531   C     0.53035   0.80040   0.10179   0.00000  Uiso   1.00
C532   C     0.46380   0.91905   0.45460   0.00000  Uiso   1.00
C533   C     0.58107   0.69824   0.01295   0.00000  Uiso   1.00
C534   C     0.48754   0.84071   0.41931   0.00000  Uiso   1.00
C535   C     0.58326   0.98575   0.49687   0.00000  Uiso   1.00
C536   C     0.58327   0.73927   0.11640   0.00000  Uiso   1.00
C537   C     0.59655   0.69933   0.12452   0.00000  Uiso   1.00
C538   C     0.48869   0.85287   0.45850   0.00000  Uiso   1.00
C539   C     0.47817   0.89342   0.47543   0.00000  Uiso   1.00
C540   C     0.50114   0.82642   0.48079   0.00000  Uiso   1.00
C541   C     0.50652   0.84227   0.01868   0.00000  Uiso   1.00
C542   C     0.49778   0.88382   0.03350   0.00000  Uiso   1.00
C543   C     0.48295   0.90837   0.01262   0.00000  Uiso   1.00
H544   H     0.47589   0.93971   0.02547   0.00000  Uiso   1.00
H545   H     0.49832   0.81171   0.40376   0.00000  Uiso   1.00
H546   H     0.50141   0.89848   0.06152   0.00000  Uiso   1.00
H547   H     0.50121   0.76924   0.43961   0.00000  Uiso   1.00
H548   H     0.60255   0.70656   0.03281   0.00000  Uiso   1.00
H549   H     0.59320   0.71749   0.48782   0.00000  Uiso   1.00
H550   H     0.56243   0.97652   0.47656   0.00000  Uiso   1.00
H551   H     0.61707   0.98074   0.48066   0.00000  Uiso   1.00
H552   H     0.57206   0.96577   0.02137   0.00000  Uiso   1.00
H553   H     0.58097   0.76218   0.14300   0.00000  Uiso   1.00
H554   H     0.60925   0.75206   0.09156   0.00000  Uiso   1.00
H555   H     0.34998   0.86035   0.21534   0.00000  Uiso   1.00
H556   H     0.60011   0.67603   0.09811   0.00000  Uiso   1.00
H557   H     0.62786   0.70628   0.13211   0.00000  Uiso   1.00
H558   H     0.57165   0.68588   0.14941   0.00000  Uiso   1.00
H559   H     0.65146   0.80630   0.28453   0.00000  Uiso   1.00
H560   H     0.54264   0.66987   0.21794   0.00000  Uiso   1.00
H561   H     0.45600   0.99838   0.28235   0.00000  Uiso   1.00
H562   H     0.51759   0.85942   0.09368   0.00000  Uiso   1.00
H563   H     0.52245   0.72636   0.47622   0.00000  Uiso   1.00
H564   H     0.45520   0.94989   0.46764   0.00000  Uiso   1.00
H565   H     0.45175   0.92647   0.40032   0.00000  Uiso   1.00
O566   O     0.50000   0.83333   0.25000   0.00000  Uiso   1.00
O567   O     0.49027   0.79060   0.16625   0.00000  Uiso   1.00
O568   O     0.46020   0.87313   0.33749   0.00000  Uiso   1.00
O569   O     0.54421   0.84159   0.15877   0.00000  Uiso   1.00
O570   O     0.50532   0.82802   0.33749   0.00000  Uiso   1.00
O571   O     0.53789   0.70395   0.03338   0.00000  Uiso   1.00
O572   O     0.54262   0.73000   0.10820   0.00000  Uiso   1.00
O573   O     0.51182   0.74768   0.27821   0.00000  Uiso   1.00
O574   O     0.47914   0.92803   0.26767   0.00000  Uiso   1.00
O575   O     0.40785   0.79917   0.23607   0.00000  Uiso   1.00
O576   O     0.60119   0.85845   0.21806   0.00000  Uiso   1.00
O577   O     0.40323   0.85627   0.27820   0.00000  Uiso   1.00
O578   O     0.58773   0.81944   0.26768   0.00000  Uiso   1.00
O579   O     0.47133   0.73570   0.23607   0.00000  Uiso   1.00
O580   O     0.53771   0.92193   0.21806   0.00000  Uiso   1.00
Zn581  Zn    0.52577   0.80756   0.28278   0.00000  Uiso   1.00
Zn582  Zn    0.46792   0.79044   0.22258   0.00000  Uiso   1.00
Zn583  Zn    0.54500   0.86331   0.21188   0.00000  Uiso   1.00
Zn584  Zn    0.46131   0.87202   0.28277   0.00000  Uiso   1.00
C585   C     0.71913   0.82649   0.25868   0.00000  Uiso   1.00
C586   C     0.84042   0.78425   0.46678   0.00000  Uiso   1.00
C587   C     0.85239   0.75859   0.48838   0.00000  Uiso   1.00
C588   C     0.94767   0.84020   0.24122   0.00000  Uiso   1.00
C589   C     0.85865   0.77344   0.02516   0.00000  Uiso   1.00
C590   C     0.85250   0.81559   0.04084   0.00000  Uiso   1.00
C591   C     0.86907   0.74584   0.04718   0.00000  Uiso   1.00
C592   C     0.87118   0.75921   0.08563   0.00000  Uiso   1.00
C593   C     0.85654   0.82856   0.07917   0.00000  Uiso   1.00
C594   C     0.99364   0.84287   0.23771   0.00000  Uiso   1.00
C595   C     0.67377   0.82390   0.26194   0.00000  Uiso   1.00
C596   C     0.79494   0.90566   0.41631   0.00000  Uiso   1.00
C597   C     0.84798   0.98894   0.23875   0.00000  Uiso   1.00
C598   C     0.81794   0.67862   0.26175   0.00000  Uiso   1.00
C599   C     0.82252   0.72273   0.25881   0.00000  Uiso   1.00
C600   C     0.84357   0.94432   0.24146   0.00000  Uiso   1.00
C601   C     0.85472   0.81165   0.14408   0.00000  Uiso   1.00
C602   C     0.81262   0.85481   0.35603   0.00000  Uiso   1.00
C603   C     0.80799   0.86686   0.39815   0.00000  Uiso   1.00
C604   C     0.86368   0.80040   0.10179   0.00000  Uiso   1.00
C605   C     0.79713   0.91905   0.45460   0.00000  Uiso   1.00
C606   C     0.91440   0.69824   0.01295   0.00000  Uiso   1.00
C607   C     0.82087   0.84071   0.41931   0.00000  Uiso   1.00
C608   C     0.91660   0.98575   0.49687   0.00000  Uiso   1.00
C609   C     0.91661   0.73927   0.11640   0.00000  Uiso   1.00
C610   C     0.92988   0.69933   0.12452   0.00000  Uiso   1.00
C611   C     0.82202   0.85287   0.45850   0.00000  Uiso   1.00
C612   C     0.81151   0.89342   0.47543   0.00000  Uiso   1.00
C613   C     0.83447   0.82642   0.48079   0.00000  Uiso   1.00
C614   C     0.83985   0.84227   0.01868   0.00000  Uiso   1.00
C615   C     0.83112   0.88382   0.03350   0.00000  Uiso   1.00
C616   C     0.81629   0.90837   0.01262   0.00000  Uiso   1.00
H617   H     0.80922   0.93971   0.02547   0.00000  Uiso   1.00
H618   H     0.83166   0.81171   0.40376   0.00000  Uiso   1.00
H619   H     0.83475   0.89848   0.06152   0.00000  Uiso   1.00
H620   H     0.83455   0.76924   0.43961   0.00000  Uiso   1.00
H621   H     0.93588   0.70656   0.03281   0.00000  Uiso   1.00
H622   H     0.92653   0.71749   0.48782   0.00000  Uiso   1.00
H623   H     0.89577   0.97652   0.47656   0.00000  Uiso   1.00
H624   H     0.95040   0.98074   0.48066   0.00000  Uiso   1.00
H625   H     0.90539   0.96577   0.02137   0.00000  Uiso   1.00
H626   H     0.91430   0.76218   0.14300   0.00000  Uiso   1.00
H627   H     0.94259   0.75206   0.09156   0.00000  Uiso   1.00
H628   H     0.68331   0.86035   0.21534   0.00000  Uiso   1.00
H629   H     0.93344   0.67603   0.09811   0.00000  Uiso   1.00
H630   H     0.96119   0.70628   0.13211   0.00000  Uiso   1.00
H631   H     0.90498   0.68588   0.14941   0.00000  Uiso   1.00
H632   H     0.98479   0.80630   0.28453   0.00000  Uiso   1.00
H633   H     0.87597   0.66987   0.21794   0.00000  Uiso   1.00
H634   H     0.78933   0.99838   0.28235   0.00000  Uiso   1.00
H635   H     0.85092   0.85942   0.09368   0.00000  Uiso   1.00
H636   H     0.85578   0.72636   0.47622   0.00000  Uiso   1.00
H637   H     0.78853   0.94989   0.46764   0.00000  Uiso   1.00
H638   H     0.78509   0.92647   0.40032   0.00000  Uiso   1.00
O639   O     0.83333   0.83333   0.25000   0.00000  Uiso   1.00
O640   O     0.82360   0.79060   0.16625   0.00000  Uiso   1.00
O641   O     0.79354   0.87313   0.33749   0.00000  Uiso   1.00
O642   O     0.87755   0.84159   0.15877   0.00000  Uiso   1.00
O643   O     0.83865   0.82802   0.33749   0.00000  Uiso   1.00
O644   O     0.87123   0.70395   0.03338   0.00000  Uiso   1.00
O645   O     0.87595   0.73000   0.10820   0.00000  Uiso   1.00
O646   O     0.84515   0.74768   0.27821   0.00000  Uiso   1.00
O647   O     0.81247   0.92803   0.26767   0.00000  Uiso   1.00
O648   O     0.74119   0.79917   0.23607   0.00000  Uiso   1.00
O649   O     0.93452   0.85845   0.21806   0.00000  Uiso   1.00
O650   O     0.73656   0.85627   0.27820   0.00000  Uiso   1.00
O651   O     0.92106   0.81944   0.26768   0.00000  Uiso   1.00
O652   O     0.80467   0.73570   0.23607   0.00000  Uiso   1.00
O653   O     0.87104   0.92193   0.21806   0.00000  Uiso   1.00
Zn654  Zn    0.85910   0.80756   0.28278   0.00000  Uiso   1.00
Zn655  Zn    0.80125   0.79044   0.22258   0.00000  Uiso   1.00
Zn656  Zn    0.87833   0.86331   0.21188   0.00000  Uiso   1.00
Zn657  Zn    0.79465   0.87202   0.28277   0.00000  Uiso   1.00
C658   C     0.05247   0.15982   0.75868   0.00000  Uiso   1.00
C659   C     0.17376   0.11758   0.96678   0.00000  Uiso   1.00
C660   C     0.18573   0.09192   0.98838   0.00000  Uiso   1.00
C661   C     0.28101   0.17353   0.74122   0.00000  Uiso   1.00
C662   C     0.19198   0.10677   0.52516   0.00000  Uiso   1.00
C663   C     0.18583   0.14892   0.54084   0.00000  Uiso   1.00
C664   C     0.20241   0.07918   0.54718   0.00000  Uiso   1.00
C665   C     0.20451   0.09254   0.58563   0.00000  Uiso   1.00
C666   C     0.18987   0.16190   0.57917   0.00000  Uiso   1.00
C667   C     0.32698   0.17621   0.73771   0.00000  Uiso   1.00
C668   C     0.00711   0.15724   0.76194   0.00000  Uiso   1.00
C669   C     0.12827   0.23900   0.91631   0.00000  Uiso   1.00
C670   C     0.18131   0.32228   0.73875   0.00000  Uiso   1.00
C671   C     0.15127   0.01195   0.76175   0.00000  Uiso   1.00
C672   C     0.15586   0.05606   0.75881   0.00000  Uiso   1.00
C673   C     0.17690   0.27766   0.74146   0.00000  Uiso   1.00
C674   C     0.18805   0.14499   0.64408   0.00000  Uiso   1.00
C675   C     0.14596   0.18814   0.85603   0.00000  Uiso   1.00
C676   C     0.14132   0.20019   0.89815   0.00000  Uiso   1.00
C677   C     0.19701   0.13373   0.60179   0.00000  Uiso   1.00
C678   C     0.13047   0.25239   0.95460   0.00000  Uiso   1.00
C679   C     0.24773   0.03158   0.51295   0.00000  Uiso   1.00
C680   C     0.15421   0.17404   0.91931   0.00000  Uiso   1.00
C681   C     0.24993   0.31908   0.99687   0.00000  Uiso   1.00
C682   C     0.24994   0.07260   0.61640   0.00000  Uiso   1.00
C683   C     0.26321   0.03266   0.62452   0.00000  Uiso   1.00
C684   C     0.15535   0.18621   0.95850   0.00000  Uiso   1.00
C685   C     0.14484   0.22675   0.97543   0.00000  Uiso   1.00
C686   C     0.16781   0.15976   0.98079   0.00000  Uiso   1.00
C687   C     0.17319   0.17561   0.51868   0.00000  Uiso   1.00
C688   C     0.16445   0.21715   0.53350   0.00000  Uiso   1.00
C689   C     0.14962   0.24171   0.51262   0.00000  Uiso   1.00
H690   H     0.14256   0.27304   0.52547   0.00000  Uiso   1.00
H691   H     0.16499   0.14505   0.90376   0.00000  Uiso   1.00
H692   H     0.16808   0.23181   0.56152   0.00000  Uiso   1.00
H693   H     0.16788   0.10258   0.93961   0.00000  Uiso   1.00
H694   H     0.26921   0.03989   0.53281   0.00000  Uiso   1.00
H695   H     0.25986   0.05082   0.98782   0.00000  Uiso   1.00
H696   H     0.22910   0.30986   0.97656   0.00000  Uiso   1.00
H697   H     0.28373   0.31407   0.98066   0.00000  Uiso   1.00
H698   H     0.23873   0.29910   0.52137   0.00000  Uiso   1.00
H699   H     0.24764   0.09551   0.64300   0.00000  Uiso   1.00
H700   H     0.27592   0.08539   0.59156   0.00000  Uiso   1.00
H701   H     0.01664   0.19369   0.71534   0.00000  Uiso   1.00
H702   H     0.26678   0.00937   0.59811   0.00000  Uiso   1.00
H703   H     0.29453   0.03961   0.63211   0.00000  Uiso   1.00
H704   H     0.23832   0.01922   0.64941   0.00000  Uiso   1.00
H705   H     0.31812   0.13963   0.78453   0.00000  Uiso   1.00
H706   H     0.20931   0.00321   0.71794   0.00000  Uiso   1.00
H707   H     0.12267   0.33171   0.78235   0.00000  Uiso   1.00
H708   H     0.18425   0.19275   0.59368   0.00000  Uiso   1.00
H709   H     0.18912   0.05969   0.97622   0.00000  Uiso   1.00
H710   H     0.12186   0.28322   0.96764   0.00000  Uiso   1.00
H711   H     0.11842   0.25980   0.90032   0.00000  Uiso   1.00
O712   O     0.16667   0.16667   0.75000   0.00000  Uiso   1.00
O713   O     0.15693   0.12393   0.66625   0.00000  Uiso   1.00
O714   O     0.12687   0.20646   0.83749   0.00000  Uiso   1.00
O715   O     0.21088   0.17493   0.65877   0.00000  Uiso   1.00
O716   O     0.17198   0.16135   0.83749   0.00000  Uiso   1.00
O717   O     0.20456   0.03729   0.53338   0.00000  Uiso   1.00
O718   O     0.20929   0.06334   0.60820   0.00000  Uiso   1.00
O719   O     0.17849   0.08101   0.77821   0.00000  Uiso   1.00
O720   O     0.14581   0.26136   0.76767   0.00000  Uiso   1.00
O721   O     0.07452   0.13251   0.73607   0.00000  Uiso   1.00
O722   O     0.26785   0.19179   0.71806   0.00000  Uiso   1.00
O723   O     0.06990   0.18960   0.77820   0.00000  Uiso   1.00
O724   O     0.25440   0.15277   0.76768   0.00000  Uiso   1.00
O725   O     0.13800   0.06903   0.73607   0.00000  Uiso   1.00
O726   O     0.20437   0.25527   0.71806   0.00000  Uiso   1.00
Zn727  Zn    0.19244   0.14090   0.78278   0.00000  Uiso   1.00
Zn728  Zn    0.13459   0.12378   0.72258   0.00000  Uiso   1.00
Zn729  Zn    0.21166   0.19664   0.71188   0.00000  Uiso   1.00
Zn730  Zn    0.12798   0.20535   0.78277   0.00000  Uiso   1.00
C731   C     0.38580   0.15982   0.75868   0.00000  Uiso   1.00
C732   C     0.50709   0.11758   0.96678   0.00000  Uiso   1.00
C733   C     0.51906   0.09192   0.98838   0.00000  Uiso   1.00
C734   C     0.61434   0.17353   0.74122   0.00000  Uiso   1.00
C735   C     0.52531   0.10677   0.52516   0.00000  Uiso   1.00
C736   C     0.51916   0.14892   0.54084   0.00000  Uiso   1.00
C737   C     0.53574   0.07918   0.54718   0.00000  Uiso   1.00
C738   C     0.53784   0.09254   0.58563   0.00000  Uiso   1.00
C739   C     0.52320   0.16190   0.57917   0.00000  Uiso   1.00
C740   C     0.66031   0.17621   0.73771   0.00000  Uiso   1.00
C741   C     0.34044   0.15724   0.76194   0.00000  Uiso   1.00
C742   C     0.46160   0.23900   0.91631   0.00000  Uiso   1.00
C743   C     0.51465   0.32228   0.73875   0.00000  Uiso   1.00
C744   C     0.48461   0.01195   0.76175   0.00000  Uiso   1.00
C745   C     0.48919   0.05606   0.75881   0.00000  Uiso   1.00
C746   C     0.51024   0.27766   0.74146   0.00000  Uiso   1.00
C747   C     0.52138   0.14499   0.64408   0.00000  Uiso   1.00
C748   C     0.47929   0.18814   0.85603   0.00000  Uiso   1.00
C749   C     0.47465   0.20019   0.89815   0.00000  Uiso   1.00
C750   C     0.53035   0.13373   0.60179   0.00000  Uiso   1.00
C751   C     0.46380   0.25239   0.95460   0.00000  Uiso   1.00
C752   C     0.58107   0.03158   0.51295   0.00000  Uiso   1.00
C753   C     0.48754   0.17404   0.91931   0.00000  Uiso   1.00
C754   C     0.58326   0.31908   0.99687   0.00000  Uiso   1.00
C755   C     0.58327   0.07260   0.61640   0.00000  Uiso   1.00
C756   C     0.59655   0.03266   0.62452   0.00000  Uiso   1.00
C757   C     0.48869   0.18621   0.95850   0.00000  Uiso   1.00
C758   C     0.47817   0.22675   0.97543   0.00000  Uiso   1.00
C759   C     0.50114   0.15976   0.98079   0.00000  Uiso   1.00
C760   C     0.50652   0.17561   0.51868   0.00000  Uiso   1.00
C761   C     0.49778   0.21715   0.53350   0.00000  Uiso   1.00
C762   C     0.48295   0.24171   0.51262   0.00000  Uiso   1.00
H763   H     0.47589   0.27304   0.52547   0.00000  Uiso   1.00
H764   H     0.49832   0.14505   0.90376   0.00000  Uiso   1.00
H765   H     0.50141   0.23181   0.56152   0.00000  Uiso   1.00
H766   H     0.50121   0.10258   0.93961   0.00000  Uiso   1.00
H767   H     0.60255   0.03989   0.53281   0.00000  Uiso   1.00
H768   H     0.59320   0.05082   0.98782   0.00000  Uiso   1.00
H769   H     0.56243   0.30986   0.97656   0.00000  Uiso   1.00
H770   H     0.61707   0.31407   0.98066   0.00000  Uiso   1.00
H771   H     0.57206   0.29910   0.52137   0.00000  Uiso   1.00
H772   H     0.58097   0.09551   0.64300   0.00000  Uiso   1.00
H773   H     0.60925   0.08539   0.59156   0.00000  Uiso   1.00
H774   H     0.34998   0.19369   0.71534   0.00000  Uiso   1.00
H775   H     0.60011   0.00937   0.59811   0.00000  Uiso   1.00
H776   H     0.62786   0.03961   0.63211   0.00000  Uiso   1.00
H777   H     0.57165   0.01922   0.64941   0.00000  Uiso   1.00
H778   H     0.65146   0.13963   0.78453   0.00000  Uiso   1.00
H779   H     0.54264   0.00321   0.71794   0.00000  Uiso   1.00
H780   H     0.45600   0.33171   0.78235   0.00000  Uiso   1.00
H781   H     0.51759   0.19275   0.59368   0.00000  Uiso   1.00
H782   H     0.52245   0.05969   0.97622   0.00000  Uiso   1.00
H783   H     0.45520   0.28322   0.96764   0.00000  Uiso   1.00
H784   H     0.45175   0.25980   0.90032   0.00000  Uiso   1.00
O785   O     0.50000   0.16667   0.75000   0.00000  Uiso   1.00
O786   O     0.49027   0.12393   0.66625   0.00000  Uiso   1.00
O787   O     0.46020   0.20646   0.83749   0.00000  Uiso   1.00
O788   O     0.54421   0.17493   0.65877   0.00000  Uiso   1.00
O789   O     0.50532   0.16135   0.83749   0.00000  Uiso   1.00
O790   O     0.53789   0.03729   0.53338   0.00000  Uiso   1.00
O791   O     0.54262   0.06334   0.60820   0.00000  Uiso   1.00
O792   O     0.51182   0.08101   0.77821   0.00000  Uiso   1.00
O793   O     0.47914   0.26136   0.76767   0.00000  Uiso   1.00
O794   O     0.40785   0.13251   0.73607   0.00000  Uiso   1.00
O795   O     0.60119   0.19179   0.71806   0.00000  Uiso   1.00
O796   O     0.40323   0.18960   0.77820   0.00000  Uiso   1.00
O797   O     0.58773   0.15277   0.76768   0.00000  Uiso   1.00
O798   O     0.47133   0.06903   0.73607   0.00000  Uiso   1.00
O799   O     0.53771   0.25527   0.71806   0.00000  Uiso   1.00
Zn800  Zn    0.52577   0.14090   0.78278   0.00000  Uiso   1.00
Zn801  Zn    0.46792   0.12378   0.72258   0.00000  Uiso   1.00
Zn802  Zn    0.54500   0.19664   0.71188   0.00000  Uiso   1.00
Zn803  Zn    0.46131   0.20535   0.78277   0.00000  Uiso   1.00
C804   C     0.71913   0.15982   0.75868   0.00000  Uiso   1.00
C805   C     0.84042   0.11758   0.96678   0.00000  Uiso   1.00
C806   C     0.85239   0.09192   0.98838   0.00000  Uiso   1.00
C807   C     0.94767   0.17353   0.74122   0.00000  Uiso   1.00
C808   C     0.85865   0.10677   0.52516   0.00000  Uiso   1.00
C809   C     0.85250   0.14892   0.54084   0.00000  Uiso   1.00
C810   C     0.86907   0.07918   0.54718   0.00000  Uiso   1.00
C811   C     0.87118   0.09254   0.58563   0.00000  Uiso   1.00
C812   C     0.85654   0.16190   0.57917   0.00000  Uiso   1.00
C813   C     0.99364   0.17621   0.73771   0.00000  Uiso   1.00
C814   C     0.67377   0.15724   0.76194   0.00000  Uiso   1.00
C815   C     0.79494   0.23900   0.91631   0.00000  Uiso   1.00
C816   C     0.84798   0.32228   0.73875   0.00000  Uiso   1.00
C817   C     0.81794   0.01195   0.76175   0.00000  Uiso   1.00
C818   C     0.82252   0.05606   0.75881   0.00000  Uiso   1.00
C819   C     0.84357   0.27766   0.74146   0.00000  Uiso   1.00
C820   C     0.85472   0.14499   0.64408   0.00000  Uiso   1.00
C821   C     0.81262   0.18814   0.85603   0.00000  Uiso   1.00
C822   C     0.80799   0.20019   0.89815   0.00000  Uiso   1.00
C823   C     0.86368   0.13373   0.60179   0.00000  Uiso   1.00
C824   C     0.79713   0.25239   0.95460   0.00000  Uiso   1.00
C825   C     0.91440   0.03158   0.51295   0.00000  Uiso   1.00
C826   C     0.82087   0.17404   0.91931   0.00000  Uiso   1.00
C827   C     0.91660   0.31908   0.99687   0.00000  Uiso   1.00
C828   C     0.91661   0.07260   0.61640   0.00000  Uiso   1.00
C829   C     0.92988   0.03266   0.62452   0.00000  Uiso   1.00
C830   C     0.82202   0.18621   0.95850   0.00000  Uiso   1.00
C831   C     0.81151   0.22675   0.97543   0.00000  Uiso   1.00
C832   C     0.83447   0.15976   0.98079   0.00000  Uiso   1.00
C833   C     0.83985   0.17561   0.51868   0.00000  Uiso   1.00
C834   C     0.83112   0.21715   0.53350   0.00000  Uiso   1.00
C835   C     0.81629   0.24171   0.51262   0.00000  Uiso   1.00
H836   H     0.80922   0.27304   0.52547   0.00000  Uiso   1.00
H837   H     0.83166   0.14505   0.90376   0.00000  Uiso   1.00
H838   H     0.83475   0.23181   0.56152   0.00000  Uiso   1.00
H839   H     0.83455   0.10258   0.93961   0.00000  Uiso   1.00
H840   H     0.93588   0.03989   0.53281   0.00000  Uiso   1.00
H841   H     0.92653   0.05082   0.98782   0.00000  Uiso   1.00
H842   H     0.89577   0.30986   0.97656   0.00000  Uiso   1.00
H843   H     0.95040   0.31407   0.98066   0.00000  Uiso   1.00
H844   H     0.90539   0.29910   0.52137   0.00000  Uiso   1.00
H845   H     0.91430   0.09551   0.64300   0.00000  Uiso   1.00
H846   H     0.94259   0.08539   0.59156   0.00000  Uiso   1.00
H847   H     0.68331   0.19369   0.71534   0.00000  Uiso   1.00
H848   H     0.93344   0.00937   0.59811   0.00000  Uiso   1.00
H849   H     0.96119   0.03961   0.63211   0.00000  Uiso   1.00
H850   H     0.90498   0.01922   0.64941   0.00000  Uiso   1.00
H851   H     0.98479   0.13963   0.78453   0.00000  Uiso   1.00
H852   H     0.87597   0.00321   0.71794   0.00000  Uiso   1.00
H853   H     0.78933   0.33171   0.78235   0.00000  Uiso   1.00
H854   H     0.85092   0.19275   0.59368   0.00000  Uiso   1.00
H855   H     0.85578   0.05969   0.97622   0.00000  Uiso   1.00
H856   H     0.78853   0.28322   0.96764   0.00000  Uiso   1.00
H857   H     0.78509   0.25980   0.90032   0.00000  Uiso   1.00
O858   O     0.83333   0.16667   0.75000   0.00000  Uiso   1.00
O859   O     0.82360   0.12393   0.66625   0.00000  Uiso   1.00
O860   O     0.79354   0.20646   0.83749   0.00000  Uiso   1.00
O861   O     0.87755   0.17493   0.65877   0.00000  Uiso   1.00
O862   O     0.83865   0.16135   0.83749   0.00000  Uiso   1.00
O863   O     0.87123   0.03729   0.53338   0.00000  Uiso   1.00
O864   O     0.87595   0.06334   0.60820   0.00000  Uiso   1.00
O865   O     0.84515   0.08101   0.77821   0.00000  Uiso   1.00
O866   O     0.81247   0.26136   0.76767   0.00000  Uiso   1.00
O867   O     0.74119   0.13251   0.73607   0.00000  Uiso   1.00
O868   O     0.93452   0.19179   0.71806   0.00000  Uiso   1.00
O869   O     0.73656   0.18960   0.77820   0.00000  Uiso   1.00
O870   O     0.92106   0.15277   0.76768   0.00000  Uiso   1.00
O871   O     0.80467   0.06903   0.73607   0.00000  Uiso   1.00
O872   O     0.87104   0.25527   0.71806   0.00000  Uiso   1.00
Zn873  Zn    0.85910   0.14090   0.78278   0.00000  Uiso   1.00
Zn874  Zn    0.80125   0.12378   0.72258   0.00000  Uiso   1.00
Zn875  Zn    0.87833   0.19664   0.71188   0.00000  Uiso   1.00
Zn876  Zn    0.79465   0.20535   0.78277   0.00000  Uiso   1.00
C877   C     0.05247   0.49315   0.75868   0.00000  Uiso   1.00
C878   C     0.17376   0.45091   0.96678   0.00000  Uiso   1.00
C879   C     0.18573   0.42525   0.98838   0.00000  Uiso   1.00
C880   C     0.28101   0.50686   0.74122   0.00000  Uiso   1.00
C881   C     0.19198   0.44011   0.52516   0.00000  Uiso   1.00
C882   C     0.18583   0.48225   0.54084   0.00000  Uiso   1.00
C883   C     0.20241   0.41251   0.54718   0.00000  Uiso   1.00
C884   C     0.20451   0.42587   0.58563   0.00000  Uiso   1.00
C885   C     0.18987   0.49523   0.57917   0.00000  Uiso   1.00
C886   C     0.32698   0.50954   0.73771   0.00000  Uiso   1.00
C887   C     0.00711   0.49057   0.76194   0.00000  Uiso   1.00
C888   C     0.12827   0.57233   0.91631   0.00000  Uiso   1.00
C889   C     0.18131   0.65561   0.73875   0.00000  Uiso   1.00
C890   C     0.15127   0.34529   0.76175   0.00000  Uiso   1.00
C891   C     0.15586   0.38939   0.75881   0.00000  Uiso   1.00
C892   C     0.17690   0.61099   0.74146   0.00000  Uiso   1.00
C893   C     0.18805   0.47832   0.64408   0.00000  Uiso   1.00
C894   C     0.14596   0.52148   0.85603   0.00000  Uiso   1.00
C895   C     0.14132   0.53353   0.89815   0.00000  Uiso   1.00
C896   C     0.19701   0.46707   0.60179   0.00000  Uiso   1.00
C897   C     0.13047   0.58572   0.95460   0.00000  Uiso   1.00
C898   C     0.24773   0.36491   0.51295   0.00000  Uiso   1.00
C899   C     0.15421   0.50738   0.91931   0.00000  Uiso   1.00
C900   C     0.24993   0.65242   0.99687   0.00000  Uiso   1.00
C901   C     0.24994   0.40594   0.61640   0.00000  Uiso   1.00
C902   C     0.26321   0.36600   0.62452   0.00000  Uiso   1.00
C903   C     0.15535   0.51954   0.95850   0.00000  Uiso   1.00
C904   C     0.14484   0.56008   0.97543   0.00000  Uiso   1.00
C905   C     0.16781   0.49309   0.98079   0.00000  Uiso   1.00
C906   C     0.17319   0.50894   0.51868   0.00000  Uiso   1.00
C907   C     0.16445   0.55049   0.53350   0.00000  Uiso   1.00
C908   C     0.14962   0.57504   0.51262   0.00000  Uiso   1.00
H909   H     0.14256   0.60638   0.52547   0.00000  Uiso   1.00
H910   H     0.16499   0.47838   0.90376   0.00000  Uiso   1.00
H911   H     0.16808   0.56515   0.56152   0.00000  Uiso   1.00
H912   H     0.16788   0.43591   0.93961   0.00000  Uiso   1.00
H913   H     0.26921   0.37323   0.53281   0.00000  Uiso   1.00
H914   H     0.25986   0.38415   0.98782   0.00000  Uiso   1.00
H915   H     0.22910   0.64319   0.97656   0.00000  Uiso   1.00
H916   H     0.28373   0.64741   0.98066   0.00000  Uiso   1.00
H917   H     0.23873   0.63244   0.52137   0.00000  Uiso   1.00
H918   H     0.24764   0.42884   0.64300   0.00000  Uiso   1.00
H919   H     0.27592   0.41872   0.59156   0.00000  Uiso   1.00
H920   H     0.01664   0.52702   0.71534   0.00000  Uiso   1.00
H921   H     0.26678   0.34270   0.59811   0.00000  Uiso   1.00
H922   H     0.29453   0.37294   0.63211   0.00000  Uiso   1.00
H923   H     0.23832   0.35255   0.64941   0.00000  Uiso   1.00
H924   H     0.31812   0.47296   0.78453   0.00000  Uiso   1.00
H925   H     0.20931   0.33654   0.71794   0.00000  Uiso   1.00
H926   H     0.12267   0.66504   0.78235   0.00000  Uiso   1.00
H927   H     0.18425   0.52608   0.59368   0.00000  Uiso   1.00
H928   H     0.18912   0.39302   0.97622   0.00000  Uiso   1.00
H929   H     0.12186   0.61656   0.96764   0.00000  Uiso   1.00
H930   H     0.11842   0.59314   0.90032   0.00000  Uiso   1.00
O931   O     0.16667   0.50000   0.75000   0.00000  Uiso   1.00
O932   O     0.15693   0.45726   0.66625   0.00000  Uiso   1.00
O933   O     0.12687   0.53979   0.83749   0.00000  Uiso   1.00
O934   O     0.21088   0.50826   0.65877   0.00000  Uiso   1.00
O935   O     0.17198   0.49468   0.83749   0.00000  Uiso   1.00
O936   O     0.20456   0.37062   0.53338   0.00000  Uiso   1.00
O937   O     0.20929   0.39667   0.60820   0.00000  Uiso   1.00
O938   O     0.17849   0.41434   0.77821   0.00000  Uiso   1.00
O939   O     0.14581   0.59469   0.76767   0.00000  Uiso   1.00
O940   O     0.07452   0.46584   0.73607   0.00000  Uiso   1.00
O941   O     0.26785   0.52512   0.71806   0.00000  Uiso   1.00
O942   O     0.06990   0.52293   0.77820   0.00000  Uiso   1.00
O943   O     0.25440   0.48610   0.76768   0.00000  Uiso   1.00
O944   O     0.13800   0.40236   0.73607   0.00000  Uiso   1.00
O945   O     0.20437   0.58860   0.71806   0.00000  Uiso   1.00
Zn946  Zn    0.19244   0.47423   0.78278   0.00000  Uiso   1.00
Zn947  Zn    0.13459   0.45711   0.72258   0.00000  Uiso   1.00
Zn948  Zn    0.21166   0.52997   0.71188   0.00000  Uiso   1.00
Zn949  Zn    0.12798   0.53868   0.78277   0.00000  Uiso   1.00
C950   C     0.38580   0.49315   0.75868   0.00000  Uiso   1.00
C951   C     0.50709   0.45091   0.96678   0.00000  Uiso   1.00
C952   C     0.51906   0.42525   0.98838   0.00000  Uiso   1.00
C953   C     0.61434   0.50686   0.74122   0.00000  Uiso   1.00
C954   C     0.52531   0.44011   0.52516   0.00000  Uiso   1.00
C955   C     0.51916   0.48225   0.54084   0.00000  Uiso   1.00
C956   C     0.53574   0.41251   0.54718   0.00000  Uiso   1.00
C957   C     0.53784   0.42587   0.58563   0.00000  Uiso   1.00
C958   C     0.52320   0.49523   0.57917   0.00000  Uiso   1.00
C959   C     0.66031   0.50954   0.73771   0.00000  Uiso   1.00
C960   C     0.34044   0.49057   0.76194   0.00000  Uiso   1.00
C961   C     0.46160   0.57233   0.91631   0.00000  Uiso   1.00
C962   C     0.51465   0.65561   0.73875   0.00000  Uiso   1.00
C963   C     0.48461   0.34529   0.76175   0.00000  Uiso   1.00
C964   C     0.48919   0.38939   0.75881   0.00000  Uiso   1.00
C965   C     0.51024   0.61099   0.74146   0.00000  Uiso   1.00
C966   C     0.52138   0.47832   0.64408   0.00000  Uiso   1.00
C967   C     0.47929   0.52148   0.85603   0.00000  Uiso   1.00
C968   C     0.47465   0.53353   0.89815   0.00000  Uiso   1.00
C969   C     0.53035   0.46707   0.60179   0.00000  Uiso   1.00
C970   C     0.46380   0.58572   0.95460   0.00000  Uiso   1.00
C971   C     0.58107   0.36491   0.51295   0.00000  Uiso   1.00
C972   C     0.48754   0.50738   0.91931   0.00000  Uiso   1.00
C973   C     0.58326   0.65242   0.99687   0.00000  Uiso   1.00
C974   C     0.58327   0.40594   0.61640   0.00000  Uiso   1.00
C975   C     0.59655   0.36600   0.62452   0.00000  Uiso   1.00
C976   C     0.48869   0.51954   0.95850   0.00000  Uiso   1.00
C977   C     0.47817   0.56008   0.97543   0.00000  Uiso   1.00
C978   C     0.50114   0.49309   0.98079   0.00000  Uiso   1.00
C979   C     0.50652   0.50894   0.51868   0.00000  Uiso   1.00
C980   C     0.49778   0.55049   0.53350   0.00000  Uiso   1.00
C981   C     0.48295   0.57504   0.51262   0.00000  Uiso   1.00
H982   H     0.47589   0.60638   0.52547   0.00000  Uiso   1.00
H983   H     0.49832   0.47838   0.90376   0.00000  Uiso   1.00
H984   H     0.50141   0.56515   0.56152   0.00000  Uiso   1.00
H985   H     0.50121   0.43591   0.93961   0.00000  Uiso   1.00
H986   H     0.60255   0.37323   0.53281   0.00000  Uiso   1.00
H987   H     0.59320   0.38415   0.98782   0.00000  Uiso   1.00
H988   H     0.56243   0.64319   0.97656   0.00000  Uiso   1.00
H989   H     0.61707   0.64741   0.98066   0.00000  Uiso   1.00
H990   H     0.57206   0.63244   0.52137   0.00000  Uiso   1.00
H991   H     0.58097   0.42884   0.64300   0.00000  Uiso   1.00
H992   H     0.60925   0.41872   0.59156   0.00000  Uiso   1.00
H993   H     0.34998   0.52702   0.71534   0.00000  Uiso   1.00
H994   H     0.60011   0.34270   0.59811   0.00000  Uiso   1.00
H995   H     0.62786   0.37294   0.63211   0.00000  Uiso   1.00
H996   H     0.57165   0.35255   0.64941   0.00000  Uiso   1.00
H997   H     0.65146   0.47296   0.78453   0.00000  Uiso   1.00
H998   H     0.54264   0.33654   0.71794   0.00000  Uiso   1.00
H999   H     0.45600   0.66504   0.78235   0.00000  Uiso   1.00
H1000  H     0.51759   0.52608   0.59368   0.00000  Uiso   1.00
H1001  H     0.52245   0.39302   0.97622   0.00000  Uiso   1.00
H1002  H     0.45520   0.61656   0.96764   0.00000  Uiso   1.00
H1003  H     0.45175   0.59314   0.90032   0.00000  Uiso   1.00
O1004  O     0.50000   0.50000   0.75000   0.00000  Uiso   1.00
O1005  O     0.49027   0.45726   0.66625   0.00000  Uiso   1.00
O1006  O     0.46020   0.53979   0.83749   0.00000  Uiso   1.00
O1007  O     0.54421   0.50826   0.65877   0.00000  Uiso   1.00
O1008  O     0.50532   0.49468   0.83749   0.00000  Uiso   1.00
O1009  O     0.53789   0.37062   0.53338   0.00000  Uiso   1.00
O1010  O     0.54262   0.39667   0.60820   0.00000  Uiso   1.00
O1011  O     0.51182   0.41434   0.77821   0.00000  Uiso   1.00
O1012  O     0.47914   0.59469   0.76767   0.00000  Uiso   1.00
O1013  O     0.40785   0.46584   0.73607   0.00000  Uiso   1.00
O1014  O     0.60119   0.52512   0.71806   0.00000  Uiso   1.00
O1015  O     0.40323   0.52293   0.77820   0.00000  Uiso   1.00
O1016  O     0.58773   0.48610   0.76768   0.00000  Uiso   1.00
O1017  O     0.47133   0.40236   0.73607   0.00000  Uiso   1.00
O1018  O     0.53771   0.58860   0.71806   0.00000  Uiso   1.00
Zn1019 Zn    0.52577   0.47423   0.78278   0.00000  Uiso   1.00
Zn1020 Zn    0.46792   0.45711   0.72258   0.00000  Uiso   1.00
Zn1021 Zn    0.54500   0.52997   0.71188   0.00000  Uiso   1.00
Zn1022 Zn    0.46131   0.53868   0.78277   0.00000  Uiso   1.00
C1023  C     0.71913   0.49315   0.75868   0.00000  Uiso   1.00
C1024  C     0.84042   0.45091   0.96678   0.00000  Uiso   1.00
C1025  C     0.85239   0.42525   0.98838   0.00000  Uiso   1.00
C1026  C     0.94767   0.50686   0.74122   0.00000  Uiso   1.00
C1027  C     0.85865   0.44011   0.52516   0.00000  Uiso   1.00
C1028  C     0.85250   0.48225   0.54084   0.00000  Uiso   1.00
C1029  C     0.86907   0.41251   0.54718   0.00000  Uiso   1.00
C1030  C     0.87118   0.42587   0.58563   0.00000  Uiso   1.00
C1031  C     0.85654   0.49523   0.57917   0.00000  Uiso   1.00
C1032  C     0.99364   0.50954   0.73771   0.00000  Uiso   1.00
C1033  C     0.67377   0.49057   0.76194   0.00000  Uiso   1.00
C1034  C     0.79494   0.57233   0.91631   0.00000  Uiso   1.00
C1035  C     0.84798   0.65561   0.73875   0.00000  Uiso   1.00
C1036  C     0.81794   0.34529   0.76175   0.00000  Uiso   1.00
C1037  C     0.82252   0.38939   0.75881   0.00000  Uiso   1.00
C1038  C     0.84357   0.61099   0.74146   0.00000  Uiso   1.00
C1039  C     0.85472   0.47832   0.64408   0.00000  Uiso   1.00
C1040  C     0.81262   0.52148   0.85603   0.00000  Uiso   1.00
C1041  C     0.80799   0.53353   0.89815   0.00000  Uiso   1.00
C1042  C     0.86368   0.46707   0.60179   0.00000  Uiso   1.00
C1043  C     0.79713   0.58572   0.95460   0.00000  Uiso   1.00
C1044  C     0.91440   0.36491   0.51295   0.00000  Uiso   1.00
C1045  C     0.82087   0.50738   0.91931   0.00000  Uiso   1.00
C1046  C     0.91660   0.65242   0.99687   0.00000  Uiso   1.00
C1047  C     0.91661   0.40594   0.61640   0.00000  Uiso   1.00
C1048  C     0.92988   0.36600   0.62452   0.00000  Uiso   1.00
C1049  C     0.82202   0.51954   0.95850   0.00000  Uiso   1.00
C1050  C     0.81151   0.56008   0.97543   0.00000  Uiso   1.00
C1051  C     0.83447   0.49309   0.98079   0.00000  Uiso   1.00
C1052  C     0.83985   0.50894   0.51868   0.00000  Uiso   1.00
C1053  C     0.83112   0.55049   0.53350   0.00000  Uiso   1.00
C1054  C     0.81629   0.57504   0.51262   0.00000  Uiso   1.00
H1055  H     0.80922   0.60638   0.52547   0.00000  Uiso   1.00
H1056  H     0.83166   0.47838   0.90376   0.00000  Uiso   1.00
H1057  H     0.83475   0.56515   0.56152   0.00000  Uiso   1.00
H1058  H     0.83455   0.43591   0.93961   0.00000  Uiso   1.00
H1059  H     0.93588   0.37323   0.53281   0.00000  Uiso   1.00
H1060  H     0.92653   0.38415   0.98782   0.00000  Uiso   1.00
H1061  H     0.89577   0.64319   0.97656   0.00000  Uiso   1.00
H1062  H     0.95040   0.64741   0.98066   0.00000  Uiso   1.00
H1063  H     0.90539   0.63244   0.52137   0.00000  Uiso   1.00
H1064  H     0.91430   0.42884   0.64300   0.00000  Uiso   1.00
H1065  H     0.94259   0.41872   0.59156   0.00000  Uiso   1.00
H1066  H     0.68331   0.52702   0.71534   0.00000  Uiso   1.00
H1067  H     0.93344   0.34270   0.59811   0.00000  Uiso   1.00
H1068  H     0.96119   0.37294   0.63211   0.00000  Uiso   1.00
H1069  H     0.90498   0.35255   0.64941   0.00000  Uiso   1.00
H1070  H     0.98479   0.47296   0.78453   0.00000  Uiso   1.00
H1071  H     0.87597   0.33654   0.71794   0.00000  Uiso   1.00
H1072  H     0.78933   0.66504   0.78235   0.00000  Uiso   1.00
H1073  H     0.85092   0.52608   0.59368   0.00000  Uiso   1.00
H1074  H     0.85578   0.39302   0.97622   0.00000  Uiso   1.00
H1075  H     0.78853   0.61656   0.96764   0.00000  Uiso   1.00
H1076  H     0.78509   0.59314   0.90032   0.00000  Uiso   1.00
O1077  O     0.83333   0.50000   0.75000   0.00000  Uiso   1.00
O1078  O     0.82360   0.45726   0.66625   0.00000  Uiso   1.00
O1079  O     0.79354   0.53979   0.83749   0.00000  Uiso   1.00
O1080  O     0.87755   0.50826   0.65877   0.00000  Uiso   1.00
O1081  O     0.83865   0.49468   0.83749   0.00000  Uiso   1.00
O1082  O     0.87123   0.37062   0.53338   0.00000  Uiso   1.00
O1083  O     0.87595   0.39667   0.60820   0.00000  Uiso   1.00
O1084  O     0.84515   0.41434   0.77821   0.00000  Uiso   1.00
O1085  O     0.81247   0.59469   0.76767   0.00000  Uiso   1.00
O1086  O     0.74119   0.46584   0.73607   0.00000  Uiso   1.00
O1087  O     0.93452   0.52512   0.71806   0.00000  Uiso   1.00
O1088  O     0.73656   0.52293   0.77820   0.00000  Uiso   1.00
O1089  O     0.92106   0.48610   0.76768   0.00000  Uiso   1.00
O1090  O     0.80467   0.40236   0.73607   0.00000  Uiso   1.00
O1091  O     0.87104   0.58860   0.71806   0.00000  Uiso   1.00
Zn1092 Zn    0.85910   0.47423   0.78278   0.00000  Uiso   1.00
Zn1093 Zn    0.80125   0.45711   0.72258   0.00000  Uiso   1.00
Zn1094 Zn    0.87833   0.52997   0.71188   0.00000  Uiso   1.00
Zn1095 Zn    0.79465   0.53868   0.78277   0.00000  Uiso   1.00
C1096  C     0.05247   0.82649   0.75868   0.00000  Uiso   1.00
C1097  C     0.17376   0.78425   0.96678   0.00000  Uiso   1.00
C1098  C     0.18573   0.75859   0.98838   0.00000  Uiso   1.00
C1099  C     0.28101   0.84020   0.74122   0.00000  Uiso   1.00
C1100  C     0.19198   0.77344   0.52516   0.00000  Uiso   1.00
C1101  C     0.18583   0.81559   0.54084   0.00000  Uiso   1.00
C1102  C     0.20241   0.74584   0.54718   0.00000  Uiso   1.00
C1103  C     0.20451   0.75921   0.58563   0.00000  Uiso   1.00
C1104  C     0.18987   0.82856   0.57917   0.00000  Uiso   1.00
C1105  C     0.32698   0.84287   0.73771   0.00000  Uiso   1.00
C1106  C     0.00711   0.82390   0.76194   0.00000  Uiso   1.00
C1107  C     0.12827   0.90566   0.91631   0.00000  Uiso   1.00
C1108  C     0.18131   0.98894   0.73875   0.00000  Uiso   1.00
C1109  C     0.15127   0.67862   0.76175   0.00000  Uiso   1.00
C1110  C     0.15586   0.72273   0.75881   0.00000  Uiso   1.00
C1111  C     0.17690   0.94432   0.74146   0.00000  Uiso   1.00
C1112  C     0.18805   0.81165   0.64408   0.00000  Uiso   1.00
C1113  C     0.14596   0.85481   0.85603   0.00000  Uiso   1.00
C1114  C     0.14132   0.86686   0.89815   0.00000  Uiso   1.00
C1115  C     0.19701   0.80040   0.60179   0.00000  Uiso   1.00
C1116  C     0.13047   0.91905   0.95460   0.00000  Uiso   1.00
C1117  C     0.24773   0.69824   0.51295   0.00000  Uiso   1.00
C1118  C     0.15421   0.84071   0.91931   0.00000  Uiso   1.00
C1119  C     0.24993   0.98575   0.99687   0.00000  Uiso   1.00
C1120  C     0.24994   0.73927   0.61640   0.00000  Uiso   1.00
C1121  C     0.26321   0.69933   0.62452   0.00000  Uiso   1.00
C1122  C     0.15535   0.85287   0.95850   0.00000  Uiso   1.00
C1123  C     0.14484   0.89342   0.97543   0.00000  Uiso   1.00
C1124  C     0.16781   0.82642   0.98079   0.00000  Uiso   1.00
C1125  C     0.17319   0.84227   0.51868   0.00000  Uiso   1.00
C1126  C     0.16445   0.88382   0.53350   0.00000  Uiso   1.00
C1127  C     0.14962   0.90837   0.51262   0.00000  Uiso   1.00
H1128  H     0.14256   0.93971   0.52547   0.00000  Uiso   1.00
H1129  H     0.16499   0.81171   0.90376   0.00000  Uiso   1.00
H1130  H     0.16808   0.89848   0.56152   0.00000  Uiso   1.00
H1131  H     0.16788   0.76924   0.93961   0.00000  Uiso   1.00
H1132  H     0.26921   0.70656   0.53281   0.00000  Uiso   1.00
H1133  H     0.25986   0.71749   0.98782   0.00000  Uiso   1.00
H1134  H     0.22910   0.97652   0.97656   0.00000  Uiso   1.00
H1135  H     0.28373   0.98074   0.98066   0.00000  Uiso   1.00
H1136  H     0.23873   0.96577   0.52137   0.00000  Uiso   1.00
H1137  H     0.24764   0.76218   0.64300   0.00000  Uiso   1.00
H1138  H     0.27592   0.75206   0.59156   0.00000  Uiso   1.00
H1139  H     0.01664   0.86035   0.71534   0.00000  Uiso   1.00
H1140  H     0.26678   0.67603   0.59811   0.00000  Uiso   1.00
H1141  H     0.29453   0.70628   0.63211   0.00000  Uiso   1.00
H1142  H     0.23832   0.68588   0.64941   0.00000  Uiso   1.00
H1143  H     0.31812   0.80630   0.78453   0.00000  Uiso   1.00
H1144  H     0.20931   0.66987   0.71794   0.00000  Uiso   1.00
H1145  H     0.12267   0.99838   0.78235   0.00000  Uiso   1.00
H1146  H     0.18425   0.85942   0.59368   0.00000  Uiso   1.00
H1147  H     0.18912   0.72636   0.97622   0.00000  Uiso   1.00
H1148  H     0.12186   0.94989   0.96764   0.00000  Uiso   1.00
H1149  H     0.11842   0.92647   0.90032   0.00000  Uiso   1.00
O1150  O     0.16667   0.83333   0.75000   0.00000  Uiso   1.00
O1151  O     0.15693   0.79060   0.66625   0.00000  Uiso   1.00
O1152  O     0.12687   0.87313   0.83749   0.00000  Uiso   1.00
O1153  O     0.21088   0.84159   0.65877   0.00000  Uiso   1.00
O1154  O     0.17198   0.82802   0.83749   0.00000  Uiso   1.00
O1155  O     0.20456   0.70395   0.53338   0.00000  Uiso   1.00
O1156  O     0.20929   0.73000   0.60820   0.00000  Uiso   1.00
O1157  O     0.17849   0.74768   0.77821   0.00000  Uiso   1.00
O1158  O     0.14581   0.92803   0.76767   0.00000  Uiso   1.00
O1159  O     0.07452   0.79917   0.73607   0.00000  Uiso   1.00
O1160  O     0.26785   0.85845   0.71806   0.00000  Uiso   1.00
O1161  O     0.06990   0.85627   0.77820   0.00000  Uiso   1.00
O1162  O     0.25440   0.81944   0.76768   0.00000  Uiso   1.00
O1163  O     0.13800   0.73570   0.73607   0.00000  Uiso   1.00
O1164  O     0.20437   0.92193   0.71806   0.00000  Uiso   1.00
Zn1165 Zn    0.19244   0.80756   0.78278   0.00000  Uiso   1.00
Zn1166 Zn    0.13459   0.79044   0.72258   0.00000  Uiso   1.00
Zn1167 Zn    0.21166   0.86331   0.71188   0.00000  Uiso   1.00
Zn1168 Zn    0.12798   0.87202   0.78277   0.00000  Uiso   1.00
C1169  C     0.38580   0.82649   0.75868   0.00000  Uiso   1.00
C1170  C     0.50709   0.78425   0.96678   0.00000  Uiso   1.00
C1171  C     0.51906   0.75859   0.98838   0.00000  Uiso   1.00
C1172  C     0.61434   0.84020   0.74122   0.00000  Uiso   1.00
C1173  C     0.52531   0.77344   0.52516   0.00000  Uiso   1.00
C1174  C     0.51916   0.81559   0.54084   0.00000  Uiso   1.00
C1175  C     0.53574   0.74584   0.54718   0.00000  Uiso   1.00
C1176  C     0.53784   0.75921   0.58563   0.00000  Uiso   1.00
C1177  C     0.52320   0.82856   0.57917   0.00000  Uiso   1.00
C1178  C     0.66031   0.84287   0.73771   0.00000  Uiso   1.00
C1179  C     0.34044   0.82390   0.76194   0.00000  Uiso   1.00
C1180  C     0.46160   0.90566   0.91631   0.00000  Uiso   1.00
C1181  C     0.51465   0.98894   0.73875   0.00000  Uiso   1.00
C1182  C     0.48461   0.67862   0.76175   0.00000  Uiso   1.00
C1183  C     0.48919   0.72273   0.75881   0.00000  Uiso   1.00
C1184  C     0.51024   0.94432   0.74146   0.00000  Uiso   1.00
C1185  C     0.52138   0.81165   0.64408   0.00000  Uiso   1.00
C1186  C     0.47929   0.85481   0.85603   0.00000  Uiso   1.00
C1187  C     0.47465   0.86686   0.89815   0.00000  Uiso   1.00
C1188  C     0.53035   0.80040   0.60179   0.00000  Uiso   1.00
C1189  C     0.46380   0.91905   0.95460   0.00000  Uiso   1.00
C1190  C     0.58107   0.69824   0.51295   0.00000  Uiso   1.00
C1191  C     0.48754   0.84071   0.91931   0.00000  Uiso   1.00
C1192  C     0.58326   0.98575   0.99687   0.00000  Uiso   1.00
C1193  C     0.58327   0.73927   0.61640   0.00000  Uiso   1.00
C1194  C     0.59655   0.69933   0.62452   0.00000  Uiso   1.00
C1195  C     0.48869   0.85287   0.95850   0.00000  Uiso   1.00
C1196  C     0.47817   0.89342   0.97543   0.00000  Uiso   1.00
C1197  C     0.50114   0.82642   0.98079   0.00000  Uiso   1.00
C1198  C     0.50652   0.84227   0.51868   0.00000  Uiso   1.00
C1199  C     0.49778   0.88382   0.53350   0.00000  Uiso   1.00
C1200  C     0.48295   0.90837   0.51262   0.00000  Uiso   1.00
H1201  H     0.47589   0.93971   0.52547   0.00000  Uiso   1.00
H1202  H     0.49832   0.81171   0.90376   0.00000  Uiso   1.00
H1203  H     0.50141   0.89848   0.56152   0.00000  Uiso   1.00
H1204  H     0.50121   0.76924   0.93961   0.00000  Uiso   1.00
H1205  H     0.60255   0.70656   0.53281   0.00000  Uiso   1.00
H1206  H     0.59320   0.71749   0.98782   0.00000  Uiso   1.00
H1207  H     0.56243   0.97652   0.97656   0.00000  Uiso   1.00
H1208  H     0.61707   0.98074   0.98066   0.00000  Uiso   1.00
H1209  H     0.57206   0.96577   0.52137   0.00000  Uiso   1.00
H1210  H     0.58097   0.76218   0.64300   0.00000  Uiso   1.00
H1211  H     0.60925   0.75206   0.59156   0.00000  Uiso   1.00
H1212  H     0.34998   0.86035   0.71534   0.00000  Uiso   1.00
H1213  H     0.60011   0.67603   0.59811   0.00000  Uiso   1.00
H1214  H     0.62786   0.70628   0.63211   0.00000  Uiso   1.00
H1215  H     0.57165   0.68588   0.64941   0.00000  Uiso   1.00
H1216  H     0.65146   0.80630   0.78453   0.00000  Uiso   1.00
H1217  H     0.54264   0.66987   0.71794   0.00000  Uiso   1.00
H1218  H     0.45600   0.99838   0.78235   0.00000  Uiso   1.00
H1219  H     0.51759   0.85942   0.59368   0.00000  Uiso   1.00
H1220  H     0.52245   0.72636   0.97622   0.00000  Uiso   1.00
H1221  H     0.45520   0.94989   0.96764   0.00000  Uiso   1.00
H1222  H     0.45175   0.92647   0.90032   0.00000  Uiso   1.00
O1223  O     0.50000   0.83333   0.75000   0.00000  Uiso   1.00
O1224  O     0.49027   0.79060   0.66625   0.00000  Uiso   1.00
O1225  O     0.46020   0.87313   0.83749   0.00000  Uiso   1.00
O1226  O     0.54421   0.84159   0.65877   0.00000  Uiso   1.00
O1227  O     0.50532   0.82802   0.83749   0.00000  Uiso   1.00
O1228  O     0.53789   0.70395   0.53338   0.00000  Uiso   1.00
O1229  O     0.54262   0.73000   0.60820   0.00000  Uiso   1.00
O1230  O     0.51182   0.74768   0.77821   0.00000  Uiso   1.00
O1231  O     0.47914   0.92803   0.76767   0.00000  Uiso   1.00
O1232  O     0.40785   0.79917   0.73607   0.00000  Uiso   1.00
O1233  O     0.60119   0.85845   0.71806   0.00000  Uiso   1.00
O1234  O     0.40323   0.85627   0.77820   0.00000  Uiso   1.00
O1235  O     0.58773   0.81944   0.76768   0.00000  Uiso   1.00
O1236  O     0.47133   0.73570   0.73607   0.00000  Uiso   1.00
O1237  O     0.53771   0.92193   0.71806   0.00000  Uiso   1.00
Zn1238 Zn    0.52577   0.80756   0.78278   0.00000  Uiso   1.00
Zn1239 Zn    0.46792   0.79044   0.72258   0.00000  Uiso   1.00
Zn1240 Zn    0.54500   0.86331   0.71188   0.00000  Uiso   1.00
Zn1241 Zn    0.46131   0.87202   0.78277   0.00000  Uiso   1.00
C1242  C     0.71913   0.82649   0.75868   0.00000  Uiso   1.00
C1243  C     0.84042   0.78425   0.96678   0.00000  Uiso   1.00
C1244  C     0.85239   0.75859   0.98838   0.00000  Uiso   1.00
C1245  C     0.94767   0.84020   0.74122   0.00000  Uiso   1.00
C1246  C     0.85865   0.77344   0.52516   0.00000  Uiso   1.00
C1247  C     0.85250   0.81559   0.54084   0.00000  Uiso   1.00
C1248  C     0.86907   0.74584   0.54718   0.00000  Uiso   1.00
C1249  C     0.87118   0.75921   0.58563   0.00000  Uiso   1.00
C1250  C     0.85654   0.82856   0.57917   0.00000  Uiso   1.00
C1251  C     0.99364   0.84287   0.73771   0.00000  Uiso   1.00
C1252  C     0.67377   0.82390   0.76194   0.00000  Uiso   1.00
C1253  C     0.79494   0.90566   0.91631   0.00000  Uiso   1.00
C1254  C     0.84798   0.98894   0.73875   0.00000  Uiso   1.00
C1255  C     0.81794   0.67862   0.76175   0.00000  Uiso   1.00
C1256  C     0.82252   0.72273   0.75881   0.00000  Uiso   1.00
C1257  C     0.84357   0.94432   0.74146   0.00000  Uiso   1.00
C1258  C     0.85472   0.81165   0.64408   0.00000  Uiso   1.00
C1259  C     0.81262   0.85481   0.85603   0.00000  Uiso   1.00
C1260  C     0.80799   0.86686   0.89815   0.00000  Uiso   1.00
C1261  C     0.86368   0.80040   0.60179   0.00000  Uiso   1.00
C1262  C     0.79713   0.91905   0.95460   0.00000  Uiso   1.00
C1263  C     0.91440   0.69824   0.51295   0.00000  Uiso   1.00
C1264  C     0.82087   0.84071   0.91931   0.00000  Uiso   1.00
C1265  C     0.91660   0.98575   0.99687   0.00000  Uiso   1.00
C1266  C     0.91661   0.73927   0.61640   0.00000  Uiso   1.00
C1267  C     0.92988   0.69933   0.62452   0.00000  Uiso   1.00
C1268  C     0.82202   0.85287   0.95850   0.00000  Uiso   1.00
C1269  C     0.81151   0.89342   0.97543   0.00000  Uiso   1.00
C1270  C     0.83447   0.82642   0.98079   0.00000  Uiso   1.00
C1271  C     0.83985   0.84227   0.51868   0.00000  Uiso   1.00
C1272  C     0.83112   0.88382   0.53350   0.00000  Uiso   1.00
C1273  C     0.81629   0.90837   0.51262   0.00000  Uiso   1.00
H1274  H     0.80922   0.93971   0.52547   0.00000  Uiso   1.00
H1275  H     0.83166   0.81171   0.90376   0.00000  Uiso   1.00
H1276  H     0.83475   0.89848   0.56152   0.00000  Uiso   1.00
H1277  H     0.83455   0.76924   0.93961   0.00000  Uiso   1.00
H1278  H     0.93588   0.70656   0.53281   0.00000  Uiso   1.00
H1279  H     0.92653   0.71749   0.98782   0.00000  Uiso   1.00
H1280  H     0.89577   0.97652   0.97656   0.00000  Uiso   1.00
H1281  H     0.95040   0.98074   0.98066   0.00000  Uiso   1.00
H1282  H     0.90539   0.96577   0.52137   0.00000  Uiso   1.00
H1283  H     0.91430   0.76218   0.64300   0.00000  Uiso   1.00
H1284  H     0.94259   0.75206   0.59156   0.00000  Uiso   1.00
H1285  H     0.68331   0.86035   0.71534   0.00000  Uiso   1.00
H1286  H     0.93344   0.67603   0.59811   0.00000  Uiso   1.00
H1287  H     0.96119   0.70628   0.63211   0.00000  Uiso   1.00
H1288  H     0.90498   0.68588   0.64941   0.00000  Uiso   1.00
H1289  H     0.98479   0.80630   0.78453   0.00000  Uiso   1.00
H1290  H     0.87597   0.66987   0.71794   0.00000  Uiso   1.00
H1291  H     0.78933   0.99838   0.78235   0.00000  Uiso   1.00
H1292  H     0.85092   0.85942   0.59368   0.00000  Uiso   1.00
H1293  H     0.85578   0.72636   0.97622   0.00000  Uiso   1.00
H1294  H     0.78853   0.94989   0.96764   0.00000  Uiso   1.00
H1295  H     0.78509   0.92647   0.90032   0.00000  Uiso   1.00
O1296  O     0.83333   0.83333   0.75000   0.00000  Uiso   1.00
O1297  O     0.82360   0.79060   0.66625   0.00000  Uiso   1.00
O1298  O     0.79354   0.87313   0.83749   0.00000  Uiso   1.00
O1299  O     0.87755   0.84159   0.65877   0.00000  Uiso   1.00
O1300  O     0.83865   0.82802   0.83749   0.00000  Uiso   1.00
O1301  O     0.87123   0.70395   0.53338   0.00000  Uiso   1.00
O1302  O     0.87595   0.73000   0.60820   0.00000  Uiso   1.00
O1303  O     0.84515   0.74768   0.77821   0.00000  Uiso   1.00
O1304  O     0.81247   0.92803   0.76767   0.00000  Uiso   1.00
O1305  O     0.74119   0.79917   0.73607   0.00000  Uiso   1.00
O1306  O     0.93452   0.85845   0.71806   0.00000  Uiso   1.00
O1307  O     0.73656   0.85627   0.77820   0.00000  Uiso   1.00
O1308  O     0.92106   0.81944   0.76768   0.00000  Uiso   1.00
O1309  O     0.80467   0.73570   0.73607   0.00000  Uiso   1.00
O1310  O     0.87104   0.92193   0.71806   0.00000  Uiso   1.00
Zn1311 Zn    0.85910   0.80756   0.78278   0.00000  Uiso   1.00
Zn1312 Zn    0.80125   0.79044   0.72258   0.00000  Uiso   1.00
Zn1313 Zn    0.87833   0.86331   0.71188   0.00000  Uiso   1.00
Zn1314 Zn    0.79465   0.87202   0.78277   0.00000  Uiso   1.00
loop_
_geom_bond_atom_site_label_1
_geom_bond_atom_site_label_2
_geom_bond_distance
_geom_bond_site_symmetry_2
_ccdc_geom_bond_type
C1     O66     1.268   .     A
C1     O64     1.268   .     A
C1     C11     1.437   .     S
C2     C3      1.381   .     A
C2     C29     1.412   .     A
C2     H36     1.076   .     S
C3     H52     1.083   .     S
C3     C662    1.394   .     S
C4     C10     1.455   .     S
C4     O65     1.284   .     A
C4     O67     1.280   .     A
C5     C6      1.424   .     A
C5     C7      1.413   .     A
C5     C660    1.394   1_554 S
C6     C9      1.411   .     A
C6     C30     1.432   .     A
C7     C8      1.398   .     A
C7     O60     1.384   .     S
C8     O61     1.386   .     S
C8     C20     1.407   .     A
C9     H51     1.076   .     S
C9     C20     1.392   .     A
C10    C84     1.335   .     S
C10    H117    1.088   .     S
C11    C156    1.335   1_455 S
C11    H194    1.086   1_455 S
C12    C19     1.400   .     A
C12    C21     1.394   .     A
C12    H54     1.083   .     S
C13    C16     1.451   .     S
C13    C233    1.331   .     S
C13    H268    1.087   .     S
C14    C15     1.436   .     S
C14    C451    1.331   1_545 S
C14    H488    1.086   1_545 S
C15    O68     1.274   .     A
C15    O62     1.276   .     A
C16    O63     1.273   .     A
C16    O69     1.273   .     A
C17    O58     1.276   .     A
C17    O56     1.269   .     A
C17    C20     1.457   .     S
C18    O57     1.283   .     A
C18    O59     1.284   .     A
C18    C19     1.470   .     S
C19    C23     1.397   .     A
C21    H53     1.084   .     S
C21    C28     1.404   .     A
C22    H37     1.112   .     S
C22    O60     1.411   .     S
C22    C1119   1.521   1_544 S
C22    H695    1.114   1_554 S
C23    C27     1.409   .     A
C23    H34     1.076   .     S
C24    H40     1.110   .     S
C24    H39     1.111   .     S
C24    C898    1.521   .     S
C24    H698    1.111   .     S
C25    H42     1.111   .     S
C25    O61     1.415   .     S
C25    H43     1.117   .     S
C25    C26     1.521   .     S
C26    H47     1.110   .     S
C26    H46     1.110   .     S
C26    H45     1.111   .     S
C27    C29     1.426   .     A
C27    C28     1.417   .     A
C28    C689    1.391   .     S
C29    C687    1.427   .     S
C30    C31     1.417   .     A
C30    C686    1.427   1_554 S
C31    H35     1.075   .     S
C31    C32     1.388   .     A
C32    H33     1.084   .     S
C32    C685    1.391   1_554 S
H38    C679    1.114   .     S
H41    C681    1.111   1_554 S
H44    C156    1.088   1_455 S
H48    C84     1.086   .     S
H49    C451    1.087   1_545 S
H50    C233    1.086   .     S
O55    Zn72    1.939   .     S
O55    Zn70    1.962   .     S
O55    Zn73    1.935   .     S
O55    Zn71    1.934   .     S
O56    Zn71    1.936   .     S
O57    Zn73    1.942   .     S
O58    Zn72    1.933   .     S
O59    Zn70    1.929   .     S
O62    Zn70    1.925   .     S
O63    Zn73    1.932   .     S
O64    Zn71    1.929   .     S
O65    Zn72    1.936   .     S
O66    Zn73    1.928   .     S
O67    Zn70    1.924   .     S
O68    Zn71    1.939   .     S
O69    Zn72    1.930   .     S
C74    O139    1.268   .     A
C74    O137    1.268   .     A
C74    C84     1.437   .     S
C75    C76     1.381   .     A
C75    C102    1.412   .     A
C75    H109    1.076   .     S
C76    H125    1.083   .     S
C76    C735    1.394   .     S
C77    C83     1.455   .     S
C77    O138    1.284   .     A
C77    O140    1.280   .     A
C78    C79     1.424   .     A
C78    C80     1.413   .     A
C78    C733    1.394   1_554 S
C79    C82     1.411   .     A
C79    C103    1.432   .     A
C80    C81     1.398   .     A
C80    O133    1.384   .     S
C81    O134    1.386   .     S
C81    C93     1.407   .     A
C82    H124    1.076   .     S
C82    C93     1.392   .     A
C83    C157    1.335   .     S
C83    H190    1.088   .     S
C85    C92     1.400   .     A
C85    C94     1.394   .     A
C85    H127    1.083   .     S
C86    C89     1.451   .     S
C86    C306    1.331   .     S
C86    H341    1.087   .     S
C87    C88     1.436   .     S
C87    C524    1.331   1_545 S
C87    H561    1.086   1_545 S
C88    O141    1.274   .     A
C88    O135    1.276   .     A
C89    O136    1.273   .     A
C89    O142    1.273   .     A
C90    O131    1.276   .     A
C90    O129    1.269   .     A
C90    C93     1.457   .     S
C91    O130    1.283   .     A
C91    O132    1.284   .     A
C91    C92     1.470   .     S
C92    C96     1.397   .     A
C94    H126    1.084   .     S
C94    C101    1.404   .     A
C95    H110    1.112   .     S
C95    O133    1.411   .     S
C95    C1192   1.521   1_544 S
C95    H768    1.114   1_554 S
C96    C100    1.409   .     A
C96    H107    1.076   .     S
C97    H113    1.110   .     S
C97    H112    1.111   .     S
C97    C971    1.521   .     S
C97    H771    1.111   .     S
C98    H115    1.111   .     S
C98    O134    1.415   .     S
C98    H116    1.117   .     S
C98    C99     1.521   .     S
C99    H120    1.110   .     S
C99    H119    1.110   .     S
C99    H118    1.111   .     S
C100   C102    1.426   .     A
C100   C101    1.417   .     A
C101   C762    1.391   .     S
C102   C760    1.427   .     S
C103   C104    1.417   .     A
C103   C759    1.427   1_554 S
C104   H108    1.075   .     S
C104   C105    1.388   .     A
C105   H106    1.084   .     S
C105   C758    1.391   1_554 S
H111   C752    1.114   .     S
H114   C754    1.111   1_554 S
H121   C157    1.086   .     S
H122   C524    1.087   1_545 S
H123   C306    1.086   .     S
O128   Zn145   1.939   .     S
O128   Zn143   1.962   .     S
O128   Zn146   1.935   .     S
O128   Zn144   1.934   .     S
O129   Zn144   1.936   .     S
O130   Zn146   1.942   .     S
O131   Zn145   1.933   .     S
O132   Zn143   1.929   .     S
O135   Zn143   1.925   .     S
O136   Zn146   1.932   .     S
O137   Zn144   1.929   .     S
O138   Zn145   1.936   .     S
O139   Zn146   1.928   .     S
O140   Zn143   1.924   .     S
O141   Zn144   1.939   .     S
O142   Zn145   1.930   .     S
C147   O212    1.268   .     A
C147   O210    1.268   .     A
C147   C157    1.437   .     S
C148   C149    1.381   .     A
C148   C175    1.412   .     A
C148   H182    1.076   .     S
C149   H198    1.083   .     S
C149   C808    1.394   .     S
C150   C156    1.455   .     S
C150   O211    1.284   .     A
C150   O213    1.280   .     A
C151   C152    1.424   .     A
C151   C153    1.413   .     A
C151   C806    1.394   1_554 S
C152   C155    1.411   .     A
C152   C176    1.432   .     A
C153   C154    1.398   .     A
C153   O206    1.384   .     S
C154   O207    1.386   .     S
C154   C166    1.407   .     A
C155   H197    1.076   .     S
C155   C166    1.392   .     A
C156   C11     1.335   1_655 S
C156   H44     1.088   1_655 S
C158   C165    1.400   .     A
C158   C167    1.394   .     A
C158   H200    1.083   .     S
C159   C162    1.451   .     S
C159   C379    1.331   .     S
C159   H414    1.087   .     S
C160   C161    1.436   .     S
C160   C597    1.331   1_545 S
C160   H634    1.086   1_545 S
C161   O214    1.274   .     A
C161   O208    1.276   .     A
C162   O209    1.273   .     A
C162   O215    1.273   .     A
C163   O204    1.276   .     A
C163   O202    1.269   .     A
C163   C166    1.457   .     S
C164   O203    1.283   .     A
C164   O205    1.284   .     A
C164   C165    1.470   .     S
C165   C169    1.397   .     A
C167   H199    1.084   .     S
C167   C174    1.404   .     A
C168   H183    1.112   .     S
C168   O206    1.411   .     S
C168   C1265   1.521   1_544 S
C168   H841    1.114   1_554 S
C169   C173    1.409   .     A
C169   H180    1.076   .     S
C170   H186    1.110   .     S
C170   H185    1.111   .     S
C170   C1044   1.521   .     S
C170   H844    1.111   .     S
C171   H188    1.111   .     S
C171   O207    1.415   .     S
C171   H189    1.117   .     S
C171   C172    1.521   .     S
C172   H193    1.110   .     S
C172   H192    1.110   .     S
C172   H191    1.111   .     S
C173   C175    1.426   .     A
C173   C174    1.417   .     A
C174   C835    1.391   .     S
C175   C833    1.427   .     S
C176   C177    1.417   .     A
C176   C832    1.427   1_554 S
C177   H181    1.075   .     S
C177   C178    1.388   .     A
C178   H179    1.084   .     S
C178   C831    1.391   1_554 S
H184   C825    1.114   .     S
H187   C827    1.111   1_554 S
H194   C11     1.086   1_655 S
H195   C597    1.087   1_545 S
H196   C379    1.086   .     S
O201   Zn218   1.939   .     S
O201   Zn216   1.962   .     S
O201   Zn219   1.935   .     S
O201   Zn217   1.934   .     S
O202   Zn217   1.936   .     S
O203   Zn219   1.942   .     S
O204   Zn218   1.933   .     S
O205   Zn216   1.929   .     S
O208   Zn216   1.925   .     S
O209   Zn219   1.932   .     S
O210   Zn217   1.929   .     S
O211   Zn218   1.936   .     S
O212   Zn219   1.928   .     S
O213   Zn216   1.924   .     S
O214   Zn217   1.939   .     S
O215   Zn218   1.930   .     S
C220   O285    1.268   .     A
C220   O283    1.268   .     A
C220   C230    1.437   .     S
C221   C222    1.381   .     A
C221   C248    1.412   .     A
C221   H255    1.076   .     S
C222   H271    1.083   .     S
C222   C881    1.394   .     S
C223   C229    1.455   .     S
C223   O284    1.284   .     A
C223   O286    1.280   .     A
C224   C225    1.424   .     A
C224   C226    1.413   .     A
C224   C879    1.394   1_554 S
C225   C228    1.411   .     A
C225   C249    1.432   .     A
C226   C227    1.398   .     A
C226   O279    1.384   .     S
C227   O280    1.386   .     S
C227   C239    1.407   .     A
C228   H270    1.076   .     S
C228   C239    1.392   .     A
C229   C303    1.335   .     S
C229   H336    1.088   .     S
C230   C375    1.335   1_455 S
C230   H413    1.086   1_455 S
C231   C238    1.400   .     A
C231   C240    1.394   .     A
C231   H273    1.083   .     S
C232   C235    1.451   .     S
C232   C452    1.331   .     S
C232   H487    1.087   .     S
C233   C234    1.436   .     S
C234   O287    1.274   .     A
C234   O281    1.276   .     A
C235   O282    1.273   .     A
C235   O288    1.273   .     A
C236   O277    1.276   .     A
C236   O275    1.269   .     A
C236   C239    1.457   .     S
C237   O276    1.283   .     A
C237   O278    1.284   .     A
C237   C238    1.470   .     S
C238   C242    1.397   .     A
C240   H272    1.084   .     S
C240   C247    1.404   .     A
C241   H256    1.112   .     S
C241   O279    1.411   .     S
C241   C681    1.521   1_554 S
C241   H914    1.114   1_554 S
C242   C246    1.409   .     A
C242   H253    1.076   .     S
C243   H259    1.110   .     S
C243   H258    1.111   .     S
C243   C1117   1.521   .     S
C243   H917    1.111   .     S
C244   H261    1.111   .     S
C244   O280    1.415   .     S
C244   H262    1.117   .     S
C244   C245    1.521   .     S
C245   H266    1.110   .     S
C245   H265    1.110   .     S
C245   H264    1.111   .     S
C246   C248    1.426   .     A
C246   C247    1.417   .     A
C247   C908    1.391   .     S
C248   C906    1.427   .     S
C249   C250    1.417   .     A
C249   C905    1.427   1_554 S
C250   H254    1.075   .     S
C250   C251    1.388   .     A
C251   H252    1.084   .     S
C251   C904    1.391   1_554 S
H257   C898    1.114   .     S
H260   C900    1.111   1_554 S
H263   C375    1.088   1_455 S
H267   C303    1.086   .     S
H269   C452    1.086   .     S
O274   Zn291   1.939   .     S
O274   Zn289   1.962   .     S
O274   Zn292   1.935   .     S
O274   Zn290   1.934   .     S
O275   Zn290   1.936   .     S
O276   Zn292   1.942   .     S
O277   Zn291   1.933   .     S
O278   Zn289   1.929   .     S
O281   Zn289   1.925   .     S
O282   Zn292   1.932   .     S
O283   Zn290   1.929   .     S
O284   Zn291   1.936   .     S
O285   Zn292   1.928   .     S
O286   Zn289   1.924   .     S
O287   Zn290   1.939   .     S
O288   Zn291   1.930   .     S
C293   O358    1.268   .     A
C293   O356    1.268   .     A
C293   C303    1.437   .     S
C294   C295    1.381   .     A
C294   C321    1.412   .     A
C294   H328    1.076   .     S
C295   H344    1.083   .     S
C295   C954    1.394   .     S
C296   C302    1.455   .     S
C296   O357    1.284   .     A
C296   O359    1.280   .     A
C297   C298    1.424   .     A
C297   C299    1.413   .     A
C297   C952    1.394   1_554 S
C298   C301    1.411   .     A
C298   C322    1.432   .     A
C299   C300    1.398   .     A
C299   O352    1.384   .     S
C300   O353    1.386   .     S
C300   C312    1.407   .     A
C301   H343    1.076   .     S
C301   C312    1.392   .     A
C302   C376    1.335   .     S
C302   H409    1.088   .     S
C304   C311    1.400   .     A
C304   C313    1.394   .     A
C304   H346    1.083   .     S
C305   C308    1.451   .     S
C305   C525    1.331   .     S
C305   H560    1.087   .     S
C306   C307    1.436   .     S
C307   O360    1.274   .     A
C307   O354    1.276   .     A
C308   O355    1.273   .     A
C308   O361    1.273   .     A
C309   O350    1.276   .     A
C309   O348    1.269   .     A
C309   C312    1.457   .     S
C310   O349    1.283   .     A
C310   O351    1.284   .     A
C310   C311    1.470   .     S
C311   C315    1.397   .     A
C313   H345    1.084   .     S
C313   C320    1.404   .     A
C314   H329    1.112   .     S
C314   O352    1.411   .     S
C314   C754    1.521   1_554 S
C314   H987    1.114   1_554 S
C315   C319    1.409   .     A
C315   H326    1.076   .     S
C316   H332    1.110   .     S
C316   H331    1.111   .     S
C316   C1190   1.521   .     S
C316   H990    1.111   .     S
C317   H334    1.111   .     S
C317   O353    1.415   .     S
C317   H335    1.117   .     S
C317   C318    1.521   .     S
C318   H339    1.110   .     S
C318   H338    1.110   .     S
C318   H337    1.111   .     S
C319   C321    1.426   .     A
C319   C320    1.417   .     A
C320   C981    1.391   .     S
C321   C979    1.427   .     S
C322   C323    1.417   .     A
C322   C978    1.427   1_554 S
C323   H327    1.075   .     S
C323   C324    1.388   .     A
C324   H325    1.084   .     S
C324   C977    1.391   1_554 S
H330   C971    1.114   .     S
H333   C973    1.111   1_554 S
H340   C376    1.086   .     S
H342   C525    1.086   .     S
O347   Zn364   1.939   .     S
O347   Zn362   1.962   .     S
O347   Zn365   1.935   .     S
O347   Zn363   1.934   .     S
O348   Zn363   1.936   .     S
O349   Zn365   1.942   .     S
O350   Zn364   1.933   .     S
O351   Zn362   1.929   .     S
O354   Zn362   1.925   .     S
O355   Zn365   1.932   .     S
O356   Zn363   1.929   .     S
O357   Zn364   1.936   .     S
O358   Zn365   1.928   .     S
O359   Zn362   1.924   .     S
O360   Zn363   1.939   .     S
O361   Zn364   1.930   .     S
C366   O431    1.268   .     A
C366   O429    1.268   .     A
C366   C376    1.437   .     S
C367   C368    1.381   .     A
C367   C394    1.412   .     A
C367   H401    1.076   .     S
C368   H417    1.083   .     S
C368   C1027   1.394   .     S
C369   C375    1.455   .     S
C369   O430    1.284   .     A
C369   O432    1.280   .     A
C370   C371    1.424   .     A
C370   C372    1.413   .     A
C370   C1025   1.394   1_554 S
C371   C374    1.411   .     A
C371   C395    1.432   .     A
C372   C373    1.398   .     A
C372   O425    1.384   .     S
C373   O426    1.386   .     S
C373   C385    1.407   .     A
C374   H416    1.076   .     S
C374   C385    1.392   .     A
C375   C230    1.335   1_655 S
C375   H263    1.088   1_655 S
C377   C384    1.400   .     A
C377   C386    1.394   .     A
C377   H419    1.083   .     S
C378   C381    1.451   .     S
C378   C598    1.331   .     S
C378   H633    1.087   .     S
C379   C380    1.436   .     S
C380   O433    1.274   .     A
C380   O427    1.276   .     A
C381   O428    1.273   .     A
C381   O434    1.273   .     A
C382   O423    1.276   .     A
C382   O421    1.269   .     A
C382   C385    1.457   .     S
C383   O422    1.283   .     A
C383   O424    1.284   .     A
C383   C384    1.470   .     S
C384   C388    1.397   .     A
C386   H418    1.084   .     S
C386   C393    1.404   .     A
C387   H402    1.112   .     S
C387   O425    1.411   .     S
C387   C827    1.521   1_554 S
C387   H1060   1.114   1_554 S
C388   C392    1.409   .     A
C388   H399    1.076   .     S
C389   H405    1.110   .     S
C389   H404    1.111   .     S
C389   C1263   1.521   .     S
C389   H1063   1.111   .     S
C390   H407    1.111   .     S
C390   O426    1.415   .     S
C390   H408    1.117   .     S
C390   C391    1.521   .     S
C391   H412    1.110   .     S
C391   H411    1.110   .     S
C391   H410    1.111   .     S
C392   C394    1.426   .     A
C392   C393    1.417   .     A
C393   C1054   1.391   .     S
C394   C1052   1.427   .     S
C395   C396    1.417   .     A
C395   C1051   1.427   1_554 S
C396   H400    1.075   .     S
C396   C397    1.388   .     A
C397   H398    1.084   .     S
C397   C1050   1.391   1_554 S
H403   C1044   1.114   .     S
H406   C1046   1.111   1_554 S
H413   C230    1.086   1_655 S
H415   C598    1.086   .     S
O420   Zn437   1.939   .     S
O420   Zn435   1.962   .     S
O420   Zn438   1.935   .     S
O420   Zn436   1.934   .     S
O421   Zn436   1.936   .     S
O422   Zn438   1.942   .     S
O423   Zn437   1.933   .     S
O424   Zn435   1.929   .     S
O427   Zn435   1.925   .     S
O428   Zn438   1.932   .     S
O429   Zn436   1.929   .     S
O430   Zn437   1.936   .     S
O431   Zn438   1.928   .     S
O432   Zn435   1.924   .     S
O433   Zn436   1.939   .     S
O434   Zn437   1.930   .     S
C439   O504    1.268   .     A
C439   O502    1.268   .     A
C439   C449    1.437   .     S
C440   C441    1.381   .     A
C440   C467    1.412   .     A
C440   H474    1.076   .     S
C441   H490    1.083   .     S
C441   C1100   1.394   .     S
C442   C448    1.455   .     S
C442   O503    1.284   .     A
C442   O505    1.280   .     A
C443   C444    1.424   .     A
C443   C445    1.413   .     A
C443   C1098   1.394   1_554 S
C444   C447    1.411   .     A
C444   C468    1.432   .     A
C445   C446    1.398   .     A
C445   O498    1.384   .     S
C446   O499    1.386   .     S
C446   C458    1.407   .     A
C447   H489    1.076   .     S
C447   C458    1.392   .     A
C448   C522    1.335   .     S
C448   H555    1.088   .     S
C449   C594    1.335   1_455 S
C449   H632    1.086   1_455 S
C450   C457    1.400   .     A
C450   C459    1.394   .     A
C450   H492    1.083   .     S
C451   C454    1.451   .     S
C451   C14     1.331   1_565 S
C451   H49     1.087   1_565 S
C452   C453    1.436   .     S
C453   O506    1.274   .     A
C453   O500    1.276   .     A
C454   O501    1.273   .     A
C454   O507    1.273   .     A
C455   O496    1.276   .     A
C455   O494    1.269   .     A
C455   C458    1.457   .     S
C456   O495    1.283   .     A
C456   O497    1.284   .     A
C456   C457    1.470   .     S
C457   C461    1.397   .     A
C459   H491    1.084   .     S
C459   C466    1.404   .     A
C460   H475    1.112   .     S
C460   O498    1.411   .     S
C460   C900    1.521   1_554 S
C460   H1133   1.114   1_554 S
C461   C465    1.409   .     A
C461   H472    1.076   .     S
C462   H478    1.110   .     S
C462   H477    1.111   .     S
C462   C679    1.521   1_565 S
C462   H1136   1.111   .     S
C463   H480    1.111   .     S
C463   O499    1.415   .     S
C463   H481    1.117   .     S
C463   C464    1.521   .     S
C464   H485    1.110   .     S
C464   H484    1.110   .     S
C464   H483    1.111   .     S
C465   C467    1.426   .     A
C465   C466    1.417   .     A
C466   C1127   1.391   .     S
C467   C1125   1.427   .     S
C468   C469    1.417   .     A
C468   C1124   1.427   1_554 S
C469   H473    1.075   .     S
C469   C470    1.388   .     A
C470   H471    1.084   .     S
C470   C1123   1.391   1_554 S
H476   C1117   1.114   .     S
H479   C1119   1.111   1_554 S
H482   C594    1.088   1_455 S
H486   C522    1.086   .     S
H488   C14     1.086   1_565 S
O493   Zn510   1.939   .     S
O493   Zn508   1.962   .     S
O493   Zn511   1.935   .     S
O493   Zn509   1.934   .     S
O494   Zn509   1.936   .     S
O495   Zn511   1.942   .     S
O496   Zn510   1.933   .     S
O497   Zn508   1.929   .     S
O500   Zn508   1.925   .     S
O501   Zn511   1.932   .     S
O502   Zn509   1.929   .     S
O503   Zn510   1.936   .     S
O504   Zn511   1.928   .     S
O505   Zn508   1.924   .     S
O506   Zn509   1.939   .     S
O507   Zn510   1.930   .     S
C512   O577    1.268   .     A
C512   O575    1.268   .     A
C512   C522    1.437   .     S
C513   C514    1.381   .     A
C513   C540    1.412   .     A
C513   H547    1.076   .     S
C514   H563    1.083   .     S
C514   C1173   1.394   .     S
C515   C521    1.455   .     S
C515   O576    1.284   .     A
C515   O578    1.280   .     A
C516   C517    1.424   .     A
C516   C518    1.413   .     A
C516   C1171   1.394   1_554 S
C517   C520    1.411   .     A
C517   C541    1.432   .     A
C518   C519    1.398   .     A
C518   O571    1.384   .     S
C519   O572    1.386   .     S
C519   C531    1.407   .     A
C520   H562    1.076   .     S
C520   C531    1.392   .     A
C521   C595    1.335   .     S
C521   H628    1.088   .     S
C523   C530    1.400   .     A
C523   C532    1.394   .     A
C523   H565    1.083   .     S
C524   C527    1.451   .     S
C524   C87     1.331   1_565 S
C524   H122    1.087   1_565 S
C525   C526    1.436   .     S
C526   O579    1.274   .     A
C526   O573    1.276   .     A
C527   O574    1.273   .     A
C527   O580    1.273   .     A
C528   O569    1.276   .     A
C528   O567    1.269   .     A
C528   C531    1.457   .     S
C529   O568    1.283   .     A
C529   O570    1.284   .     A
C529   C530    1.470   .     S
C530   C534    1.397   .     A
C532   H564    1.084   .     S
C532   C539    1.404   .     A
C533   H548    1.112   .     S
C533   O571    1.411   .     S
C533   C973    1.521   1_554 S
C533   H1206   1.114   1_554 S
C534   C538    1.409   .     A
C534   H545    1.076   .     S
C535   H551    1.110   .     S
C535   H550    1.111   .     S
C535   C752    1.521   1_565 S
C535   H1209   1.111   .     S
C536   H553    1.111   .     S
C536   O572    1.415   .     S
C536   H554    1.117   .     S
C536   C537    1.521   .     S
C537   H558    1.110   .     S
C537   H557    1.110   .     S
C537   H556    1.111   .     S
C538   C540    1.426   .     A
C538   C539    1.417   .     A
C539   C1200   1.391   .     S
C540   C1198   1.427   .     S
C541   C542    1.417   .     A
C541   C1197   1.427   1_554 S
C542   H546    1.075   .     S
C542   C543    1.388   .     A
C543   H544    1.084   .     S
C543   C1196   1.391   1_554 S
H549   C1190   1.114   .     S
H552   C1192   1.111   1_554 S
H559   C595    1.086   .     S
H561   C87     1.086   1_565 S
O566   Zn583   1.939   .     S
O566   Zn581   1.962   .     S
O566   Zn584   1.935   .     S
O566   Zn582   1.934   .     S
O567   Zn582   1.936   .     S
O568   Zn584   1.942   .     S
O569   Zn583   1.933   .     S
O570   Zn581   1.929   .     S
O573   Zn581   1.925   .     S
O574   Zn584   1.932   .     S
O575   Zn582   1.929   .     S
O576   Zn583   1.936   .     S
O577   Zn584   1.928   .     S
O578   Zn581   1.924   .     S
O579   Zn582   1.939   .     S
O580   Zn583   1.930   .     S
C585   O650    1.268   .     A
C585   O648    1.268   .     A
C585   C595    1.437   .     S
C586   C587    1.381   .     A
C586   C613    1.412   .     A
C586   H620    1.076   .     S
C587   H636    1.083   .     S
C587   C1246   1.394   .     S
C588   C594    1.455   .     S
C588   O649    1.284   .     A
C588   O651    1.280   .     A
C589   C590    1.424   .     A
C589   C591    1.413   .     A
C589   C1244   1.394   1_554 S
C590   C593    1.411   .     A
C590   C614    1.432   .     A
C591   C592    1.398   .     A
C591   O644    1.384   .     S
C592   O645    1.386   .     S
C592   C604    1.407   .     A
C593   H635    1.076   .     S
C593   C604    1.392   .     A
C594   C449    1.335   1_655 S
C594   H482    1.088   1_655 S
C596   C603    1.400   .     A
C596   C605    1.394   .     A
C596   H638    1.083   .     S
C597   C600    1.451   .     S
C597   C160    1.331   1_565 S
C597   H195    1.087   1_565 S
C598   C599    1.436   .     S
C599   O652    1.274   .     A
C599   O646    1.276   .     A
C600   O647    1.273   .     A
C600   O653    1.273   .     A
C601   O642    1.276   .     A
C601   O640    1.269   .     A
C601   C604    1.457   .     S
C602   O641    1.283   .     A
C602   O643    1.284   .     A
C602   C603    1.470   .     S
C603   C607    1.397   .     A
C605   H637    1.084   .     S
C605   C612    1.404   .     A
C606   H621    1.112   .     S
C606   O644    1.411   .     S
C606   C1046   1.521   1_554 S
C606   H1279   1.114   1_554 S
C607   C611    1.409   .     A
C607   H618    1.076   .     S
C608   H624    1.110   .     S
C608   H623    1.111   .     S
C608   C825    1.521   1_565 S
C608   H1282   1.111   .     S
C609   H626    1.111   .     S
C609   O645    1.415   .     S
C609   H627    1.117   .     S
C609   C610    1.521   .     S
C610   H631    1.110   .     S
C610   H630    1.110   .     S
C610   H629    1.111   .     S
C611   C613    1.426   .     A
C611   C612    1.417   .     A
C612   C1273   1.391   .     S
C613   C1271   1.427   .     S
C614   C615    1.417   .     A
C614   C1270   1.427   1_554 S
C615   H619    1.075   .     S
C615   C616    1.388   .     A
C616   H617    1.084   .     S
C616   C1269   1.391   1_554 S
H622   C1263   1.114   .     S
H625   C1265   1.111   1_554 S
H632   C449    1.086   1_655 S
H634   C160    1.086   1_565 S
O639   Zn656   1.939   .     S
O639   Zn654   1.962   .     S
O639   Zn657   1.935   .     S
O639   Zn655   1.934   .     S
O640   Zn655   1.936   .     S
O641   Zn657   1.942   .     S
O642   Zn656   1.933   .     S
O643   Zn654   1.929   .     S
O646   Zn654   1.925   .     S
O647   Zn657   1.932   .     S
O648   Zn655   1.929   .     S
O649   Zn656   1.936   .     S
O650   Zn657   1.928   .     S
O651   Zn654   1.924   .     S
O652   Zn655   1.939   .     S
O653   Zn656   1.930   .     S
C658   O723    1.268   .     A
C658   O721    1.268   .     A
C658   C668    1.437   .     S
C659   C660    1.381   .     A
C659   C686    1.412   .     A
C659   H693    1.076   .     S
C660   H709    1.083   .     S
C660   C5      1.394   1_556 S
C661   C667    1.455   .     S
C661   O722    1.284   .     A
C661   O724    1.280   .     A
C662   C663    1.424   .     A
C662   C664    1.413   .     A
C663   C666    1.411   .     A
C663   C687    1.432   .     A
C664   C665    1.398   .     A
C664   O717    1.384   .     S
C665   O718    1.386   .     S
C665   C677    1.407   .     A
C666   H708    1.076   .     S
C666   C677    1.392   .     A
C667   C741    1.335   .     S
C667   H774    1.088   .     S
C668   C813    1.335   1_455 S
C668   H851    1.086   1_455 S
C669   C676    1.400   .     A
C669   C678    1.394   .     A
C669   H711    1.083   .     S
C670   C673    1.451   .     S
C670   C890    1.331   .     S
C670   H925    1.087   .     S
C671   C672    1.436   .     S
C671   C1108   1.331   1_545 S
C671   H1145   1.086   1_545 S
C672   O725    1.274   .     A
C672   O719    1.276   .     A
C673   O720    1.273   .     A
C673   O726    1.273   .     A
C674   O715    1.276   .     A
C674   O713    1.269   .     A
C674   C677    1.457   .     S
C675   O714    1.283   .     A
C675   O716    1.284   .     A
C675   C676    1.470   .     S
C676   C680    1.397   .     A
C678   H710    1.084   .     S
C678   C685    1.404   .     A
C679   H694    1.112   .     S
C679   O717    1.411   .     S
C679   C462    1.521   1_545 S
C680   C684    1.409   .     A
C680   H691    1.076   .     S
C681   H697    1.110   .     S
C681   H696    1.111   .     S
C681   C241    1.521   1_556 S
C681   H41     1.111   1_556 S
C682   H699    1.111   .     S
C682   O718    1.415   .     S
C682   H700    1.117   .     S
C682   C683    1.521   .     S
C683   H704    1.110   .     S
C683   H703    1.110   .     S
C683   H702    1.111   .     S
C684   C686    1.426   .     A
C684   C685    1.417   .     A
C685   C32     1.391   1_556 S
C686   C30     1.427   1_556 S
C687   C688    1.417   .     A
C688   H692    1.075   .     S
C688   C689    1.388   .     A
C689   H690    1.084   .     S
H695   C22     1.114   1_556 S
H701   C813    1.088   1_455 S
H705   C741    1.086   .     S
H706   C1108   1.087   1_545 S
H707   C890    1.086   .     S
O712   Zn729   1.939   .     S
O712   Zn727   1.962   .     S
O712   Zn730   1.935   .     S
O712   Zn728   1.934   .     S
O713   Zn728   1.936   .     S
O714   Zn730   1.942   .     S
O715   Zn729   1.933   .     S
O716   Zn727   1.929   .     S
O719   Zn727   1.925   .     S
O720   Zn730   1.932   .     S
O721   Zn728   1.929   .     S
O722   Zn729   1.936   .     S
O723   Zn730   1.928   .     S
O724   Zn727   1.924   .     S
O725   Zn728   1.939   .     S
O726   Zn729   1.930   .     S
C731   O796    1.268   .     A
C731   O794    1.268   .     A
C731   C741    1.437   .     S
C732   C733    1.381   .     A
C732   C759    1.412   .     A
C732   H766    1.076   .     S
C733   H782    1.083   .     S
C733   C78     1.394   1_556 S
C734   C740    1.455   .     S
C734   O795    1.284   .     A
C734   O797    1.280   .     A
C735   C736    1.424   .     A
C735   C737    1.413   .     A
C736   C739    1.411   .     A
C736   C760    1.432   .     A
C737   C738    1.398   .     A
C737   O790    1.384   .     S
C738   O791    1.386   .     S
C738   C750    1.407   .     A
C739   H781    1.076   .     S
C739   C750    1.392   .     A
C740   C814    1.335   .     S
C740   H847    1.088   .     S
C742   C749    1.400   .     A
C742   C751    1.394   .     A
C742   H784    1.083   .     S
C743   C746    1.451   .     S
C743   C963    1.331   .     S
C743   H998    1.087   .     S
C744   C745    1.436   .     S
C744   C1181   1.331   1_545 S
C744   H1218   1.086   1_545 S
C745   O798    1.274   .     A
C745   O792    1.276   .     A
C746   O793    1.273   .     A
C746   O799    1.273   .     A
C747   O788    1.276   .     A
C747   O786    1.269   .     A
C747   C750    1.457   .     S
C748   O787    1.283   .     A
C748   O789    1.284   .     A
C748   C749    1.470   .     S
C749   C753    1.397   .     A
C751   H783    1.084   .     S
C751   C758    1.404   .     A
C752   H767    1.112   .     S
C752   O790    1.411   .     S
C752   C535    1.521   1_545 S
C753   C757    1.409   .     A
C753   H764    1.076   .     S
C754   H770    1.110   .     S
C754   H769    1.111   .     S
C754   C314    1.521   1_556 S
C754   H114    1.111   1_556 S
C755   H772    1.111   .     S
C755   O791    1.415   .     S
C755   H773    1.117   .     S
C755   C756    1.521   .     S
C756   H777    1.110   .     S
C756   H776    1.110   .     S
C756   H775    1.111   .     S
C757   C759    1.426   .     A
C757   C758    1.417   .     A
C758   C105    1.391   1_556 S
C759   C103    1.427   1_556 S
C760   C761    1.417   .     A
C761   H765    1.075   .     S
C761   C762    1.388   .     A
C762   H763    1.084   .     S
H768   C95     1.114   1_556 S
H778   C814    1.086   .     S
H779   C1181   1.087   1_545 S
H780   C963    1.086   .     S
O785   Zn802   1.939   .     S
O785   Zn800   1.962   .     S
O785   Zn803   1.935   .     S
O785   Zn801   1.934   .     S
O786   Zn801   1.936   .     S
O787   Zn803   1.942   .     S
O788   Zn802   1.933   .     S
O789   Zn800   1.929   .     S
O792   Zn800   1.925   .     S
O793   Zn803   1.932   .     S
O794   Zn801   1.929   .     S
O795   Zn802   1.936   .     S
O796   Zn803   1.928   .     S
O797   Zn800   1.924   .     S
O798   Zn801   1.939   .     S
O799   Zn802   1.930   .     S
C804   O869    1.268   .     A
C804   O867    1.268   .     A
C804   C814    1.437   .     S
C805   C806    1.381   .     A
C805   C832    1.412   .     A
C805   H839    1.076   .     S
C806   H855    1.083   .     S
C806   C151    1.394   1_556 S
C807   C813    1.455   .     S
C807   O868    1.284   .     A
C807   O870    1.280   .     A
C808   C809    1.424   .     A
C808   C810    1.413   .     A
C809   C812    1.411   .     A
C809   C833    1.432   .     A
C810   C811    1.398   .     A
C810   O863    1.384   .     S
C811   O864    1.386   .     S
C811   C823    1.407   .     A
C812   H854    1.076   .     S
C812   C823    1.392   .     A
C813   C668    1.335   1_655 S
C813   H701    1.088   1_655 S
C815   C822    1.400   .     A
C815   C824    1.394   .     A
C815   H857    1.083   .     S
C816   C819    1.451   .     S
C816   C1036   1.331   .     S
C816   H1071   1.087   .     S
C817   C818    1.436   .     S
C817   C1254   1.331   1_545 S
C817   H1291   1.086   1_545 S
C818   O871    1.274   .     A
C818   O865    1.276   .     A
C819   O866    1.273   .     A
C819   O872    1.273   .     A
C820   O861    1.276   .     A
C820   O859    1.269   .     A
C820   C823    1.457   .     S
C821   O860    1.283   .     A
C821   O862    1.284   .     A
C821   C822    1.470   .     S
C822   C826    1.397   .     A
C824   H856    1.084   .     S
C824   C831    1.404   .     A
C825   H840    1.112   .     S
C825   O863    1.411   .     S
C825   C608    1.521   1_545 S
C826   C830    1.409   .     A
C826   H837    1.076   .     S
C827   H843    1.110   .     S
C827   H842    1.111   .     S
C827   C387    1.521   1_556 S
C827   H187    1.111   1_556 S
C828   H845    1.111   .     S
C828   O864    1.415   .     S
C828   H846    1.117   .     S
C828   C829    1.521   .     S
C829   H850    1.110   .     S
C829   H849    1.110   .     S
C829   H848    1.111   .     S
C830   C832    1.426   .     A
C830   C831    1.417   .     A
C831   C178    1.391   1_556 S
C832   C176    1.427   1_556 S
C833   C834    1.417   .     A
C834   H838    1.075   .     S
C834   C835    1.388   .     A
C835   H836    1.084   .     S
H841   C168    1.114   1_556 S
H851   C668    1.086   1_655 S
H852   C1254   1.087   1_545 S
H853   C1036   1.086   .     S
O858   Zn875   1.939   .     S
O858   Zn873   1.962   .     S
O858   Zn876   1.935   .     S
O858   Zn874   1.934   .     S
O859   Zn874   1.936   .     S
O860   Zn876   1.942   .     S
O861   Zn875   1.933   .     S
O862   Zn873   1.929   .     S
O865   Zn873   1.925   .     S
O866   Zn876   1.932   .     S
O867   Zn874   1.929   .     S
O868   Zn875   1.936   .     S
O869   Zn876   1.928   .     S
O870   Zn873   1.924   .     S
O871   Zn874   1.939   .     S
O872   Zn875   1.930   .     S
C877   O942    1.268   .     A
C877   O940    1.268   .     A
C877   C887    1.437   .     S
C878   C879    1.381   .     A
C878   C905    1.412   .     A
C878   H912    1.076   .     S
C879   H928    1.083   .     S
C879   C224    1.394   1_556 S
C880   C886    1.455   .     S
C880   O941    1.284   .     A
C880   O943    1.280   .     A
C881   C882    1.424   .     A
C881   C883    1.413   .     A
C882   C885    1.411   .     A
C882   C906    1.432   .     A
C883   C884    1.398   .     A
C883   O936    1.384   .     S
C884   O937    1.386   .     S
C884   C896    1.407   .     A
C885   H927    1.076   .     S
C885   C896    1.392   .     A
C886   C960    1.335   .     S
C886   H993    1.088   .     S
C887   C1032   1.335   1_455 S
C887   H1070   1.086   1_455 S
C888   C895    1.400   .     A
C888   C897    1.394   .     A
C888   H930    1.083   .     S
C889   C892    1.451   .     S
C889   C1109   1.331   .     S
C889   H1144   1.087   .     S
C890   C891    1.436   .     S
C891   O944    1.274   .     A
C891   O938    1.276   .     A
C892   O939    1.273   .     A
C892   O945    1.273   .     A
C893   O934    1.276   .     A
C893   O932    1.269   .     A
C893   C896    1.457   .     S
C894   O933    1.283   .     A
C894   O935    1.284   .     A
C894   C895    1.470   .     S
C895   C899    1.397   .     A
C897   H929    1.084   .     S
C897   C904    1.404   .     A
C898   H913    1.112   .     S
C898   O936    1.411   .     S
C899   C903    1.409   .     A
C899   H910    1.076   .     S
C900   H916    1.110   .     S
C900   H915    1.111   .     S
C900   C460    1.521   1_556 S
C900   H260    1.111   1_556 S
C901   H918    1.111   .     S
C901   O937    1.415   .     S
C901   H919    1.117   .     S
C901   C902    1.521   .     S
C902   H923    1.110   .     S
C902   H922    1.110   .     S
C902   H921    1.111   .     S
C903   C905    1.426   .     A
C903   C904    1.417   .     A
C904   C251    1.391   1_556 S
C905   C249    1.427   1_556 S
C906   C907    1.417   .     A
C907   H911    1.075   .     S
C907   C908    1.388   .     A
C908   H909    1.084   .     S
H914   C241    1.114   1_556 S
H920   C1032   1.088   1_455 S
H924   C960    1.086   .     S
H926   C1109   1.086   .     S
O931   Zn948   1.939   .     S
O931   Zn946   1.962   .     S
O931   Zn949   1.935   .     S
O931   Zn947   1.934   .     S
O932   Zn947   1.936   .     S
O933   Zn949   1.942   .     S
O934   Zn948   1.933   .     S
O935   Zn946   1.929   .     S
O938   Zn946   1.925   .     S
O939   Zn949   1.932   .     S
O940   Zn947   1.929   .     S
O941   Zn948   1.936   .     S
O942   Zn949   1.928   .     S
O943   Zn946   1.924   .     S
O944   Zn947   1.939   .     S
O945   Zn948   1.930   .     S
C950   O1015   1.268   .     A
C950   O1013   1.268   .     A
C950   C960    1.437   .     S
C951   C952    1.381   .     A
C951   C978    1.412   .     A
C951   H985    1.076   .     S
C952   H1001   1.083   .     S
C952   C297    1.394   1_556 S
C953   C959    1.455   .     S
C953   O1014   1.284   .     A
C953   O1016   1.280   .     A
C954   C955    1.424   .     A
C954   C956    1.413   .     A
C955   C958    1.411   .     A
C955   C979    1.432   .     A
C956   C957    1.398   .     A
C956   O1009   1.384   .     S
C957   O1010   1.386   .     S
C957   C969    1.407   .     A
C958   H1000   1.076   .     S
C958   C969    1.392   .     A
C959   C1033   1.335   .     S
C959   H1066   1.088   .     S
C961   C968    1.400   .     A
C961   C970    1.394   .     A
C961   H1003   1.083   .     S
C962   C965    1.451   .     S
C962   C1182   1.331   .     S
C962   H1217   1.087   .     S
C963   C964    1.436   .     S
C964   O1017   1.274   .     A
C964   O1011   1.276   .     A
C965   O1012   1.273   .     A
C965   O1018   1.273   .     A
C966   O1007   1.276   .     A
C966   O1005   1.269   .     A
C966   C969    1.457   .     S
C967   O1006   1.283   .     A
C967   O1008   1.284   .     A
C967   C968    1.470   .     S
C968   C972    1.397   .     A
C970   H1002   1.084   .     S
C970   C977    1.404   .     A
C971   H986    1.112   .     S
C971   O1009   1.411   .     S
C972   C976    1.409   .     A
C972   H983    1.076   .     S
C973   H989    1.110   .     S
C973   H988    1.111   .     S
C973   C533    1.521   1_556 S
C973   H333    1.111   1_556 S
C974   H991    1.111   .     S
C974   O1010   1.415   .     S
C974   H992    1.117   .     S
C974   C975    1.521   .     S
C975   H996    1.110   .     S
C975   H995    1.110   .     S
C975   H994    1.111   .     S
C976   C978    1.426   .     A
C976   C977    1.417   .     A
C977   C324    1.391   1_556 S
C978   C322    1.427   1_556 S
C979   C980    1.417   .     A
C980   H984    1.075   .     S
C980   C981    1.388   .     A
C981   H982    1.084   .     S
H987   C314    1.114   1_556 S
H997   C1033   1.086   .     S
H999   C1182   1.086   .     S
O1004  Zn1021  1.939   .     S
O1004  Zn1019  1.962   .     S
O1004  Zn1022  1.935   .     S
O1004  Zn1020  1.934   .     S
O1005  Zn1020  1.936   .     S
O1006  Zn1022  1.942   .     S
O1007  Zn1021  1.933   .     S
O1008  Zn1019  1.929   .     S
O1011  Zn1019  1.925   .     S
O1012  Zn1022  1.932   .     S
O1013  Zn1020  1.929   .     S
O1014  Zn1021  1.936   .     S
O1015  Zn1022  1.928   .     S
O1016  Zn1019  1.924   .     S
O1017  Zn1020  1.939   .     S
O1018  Zn1021  1.930   .     S
C1023  O1088   1.268   .     A
C1023  O1086   1.268   .     A
C1023  C1033   1.437   .     S
C1024  C1025   1.381   .     A
C1024  C1051   1.412   .     A
C1024  H1058   1.076   .     S
C1025  H1074   1.083   .     S
C1025  C370    1.394   1_556 S
C1026  C1032   1.455   .     S
C1026  O1087   1.284   .     A
C1026  O1089   1.280   .     A
C1027  C1028   1.424   .     A
C1027  C1029   1.413   .     A
C1028  C1031   1.411   .     A
C1028  C1052   1.432   .     A
C1029  C1030   1.398   .     A
C1029  O1082   1.384   .     S
C1030  O1083   1.386   .     S
C1030  C1042   1.407   .     A
C1031  H1073   1.076   .     S
C1031  C1042   1.392   .     A
C1032  C887    1.335   1_655 S
C1032  H920    1.088   1_655 S
C1034  C1041   1.400   .     A
C1034  C1043   1.394   .     A
C1034  H1076   1.083   .     S
C1035  C1038   1.451   .     S
C1035  C1255   1.331   .     S
C1035  H1290   1.087   .     S
C1036  C1037   1.436   .     S
C1037  O1090   1.274   .     A
C1037  O1084   1.276   .     A
C1038  O1085   1.273   .     A
C1038  O1091   1.273   .     A
C1039  O1080   1.276   .     A
C1039  O1078   1.269   .     A
C1039  C1042   1.457   .     S
C1040  O1079   1.283   .     A
C1040  O1081   1.284   .     A
C1040  C1041   1.470   .     S
C1041  C1045   1.397   .     A
C1043  H1075   1.084   .     S
C1043  C1050   1.404   .     A
C1044  H1059   1.112   .     S
C1044  O1082   1.411   .     S
C1045  C1049   1.409   .     A
C1045  H1056   1.076   .     S
C1046  H1062   1.110   .     S
C1046  H1061   1.111   .     S
C1046  C606    1.521   1_556 S
C1046  H406    1.111   1_556 S
C1047  H1064   1.111   .     S
C1047  O1083   1.415   .     S
C1047  H1065   1.117   .     S
C1047  C1048   1.521   .     S
C1048  H1069   1.110   .     S
C1048  H1068   1.110   .     S
C1048  H1067   1.111   .     S
C1049  C1051   1.426   .     A
C1049  C1050   1.417   .     A
C1050  C397    1.391   1_556 S
C1051  C395    1.427   1_556 S
C1052  C1053   1.417   .     A
C1053  H1057   1.075   .     S
C1053  C1054   1.388   .     A
C1054  H1055   1.084   .     S
H1060  C387    1.114   1_556 S
H1070  C887    1.086   1_655 S
H1072  C1255   1.086   .     S
O1077  Zn1094  1.939   .     S
O1077  Zn1092  1.962   .     S
O1077  Zn1095  1.935   .     S
O1077  Zn1093  1.934   .     S
O1078  Zn1093  1.936   .     S
O1079  Zn1095  1.942   .     S
O1080  Zn1094  1.933   .     S
O1081  Zn1092  1.929   .     S
O1084  Zn1092  1.925   .     S
O1085  Zn1095  1.932   .     S
O1086  Zn1093  1.929   .     S
O1087  Zn1094  1.936   .     S
O1088  Zn1095  1.928   .     S
O1089  Zn1092  1.924   .     S
O1090  Zn1093  1.939   .     S
O1091  Zn1094  1.930   .     S
C1096  O1161   1.268   .     A
C1096  O1159   1.268   .     A
C1096  C1106   1.437   .     S
C1097  C1098   1.381   .     A
C1097  C1124   1.412   .     A
C1097  H1131   1.076   .     S
C1098  H1147   1.083   .     S
C1098  C443    1.394   1_556 S
C1099  C1105   1.455   .     S
C1099  O1160   1.284   .     A
C1099  O1162   1.280   .     A
C1100  C1101   1.424   .     A
C1100  C1102   1.413   .     A
C1101  C1104   1.411   .     A
C1101  C1125   1.432   .     A
C1102  C1103   1.398   .     A
C1102  O1155   1.384   .     S
C1103  O1156   1.386   .     S
C1103  C1115   1.407   .     A
C1104  H1146   1.076   .     S
C1104  C1115   1.392   .     A
C1105  C1179   1.335   .     S
C1105  H1212   1.088   .     S
C1106  C1251   1.335   1_455 S
C1106  H1289   1.086   1_455 S
C1107  C1114   1.400   .     A
C1107  C1116   1.394   .     A
C1107  H1149   1.083   .     S
C1108  C1111   1.451   .     S
C1108  C671    1.331   1_565 S
C1108  H706    1.087   1_565 S
C1109  C1110   1.436   .     S
C1110  O1163   1.274   .     A
C1110  O1157   1.276   .     A
C1111  O1158   1.273   .     A
C1111  O1164   1.273   .     A
C1112  O1153   1.276   .     A
C1112  O1151   1.269   .     A
C1112  C1115   1.457   .     S
C1113  O1152   1.283   .     A
C1113  O1154   1.284   .     A
C1113  C1114   1.470   .     S
C1114  C1118   1.397   .     A
C1116  H1148   1.084   .     S
C1116  C1123   1.404   .     A
C1117  H1132   1.112   .     S
C1117  O1155   1.411   .     S
C1118  C1122   1.409   .     A
C1118  H1129   1.076   .     S
C1119  H1135   1.110   .     S
C1119  H1134   1.111   .     S
C1119  C22     1.521   1_566 S
C1119  H479    1.111   1_556 S
C1120  H1137   1.111   .     S
C1120  O1156   1.415   .     S
C1120  H1138   1.117   .     S
C1120  C1121   1.521   .     S
C1121  H1142   1.110   .     S
C1121  H1141   1.110   .     S
C1121  H1140   1.111   .     S
C1122  C1124   1.426   .     A
C1122  C1123   1.417   .     A
C1123  C470    1.391   1_556 S
C1124  C468    1.427   1_556 S
C1125  C1126   1.417   .     A
C1126  H1130   1.075   .     S
C1126  C1127   1.388   .     A
C1127  H1128   1.084   .     S
H1133  C460    1.114   1_556 S
H1139  C1251   1.088   1_455 S
H1143  C1179   1.086   .     S
H1145  C671    1.086   1_565 S
O1150  Zn1167  1.939   .     S
O1150  Zn1165  1.962   .     S
O1150  Zn1168  1.935   .     S
O1150  Zn1166  1.934   .     S
O1151  Zn1166  1.936   .     S
O1152  Zn1168  1.942   .     S
O1153  Zn1167  1.933   .     S
O1154  Zn1165  1.929   .     S
O1157  Zn1165  1.925   .     S
O1158  Zn1168  1.932   .     S
O1159  Zn1166  1.929   .     S
O1160  Zn1167  1.936   .     S
O1161  Zn1168  1.928   .     S
O1162  Zn1165  1.924   .     S
O1163  Zn1166  1.939   .     S
O1164  Zn1167  1.930   .     S
C1169  O1234   1.268   .     A
C1169  O1232   1.268   .     A
C1169  C1179   1.437   .     S
C1170  C1171   1.381   .     A
C1170  C1197   1.412   .     A
C1170  H1204   1.076   .     S
C1171  H1220   1.083   .     S
C1171  C516    1.394   1_556 S
C1172  C1178   1.455   .     S
C1172  O1233   1.284   .     A
C1172  O1235   1.280   .     A
C1173  C1174   1.424   .     A
C1173  C1175   1.413   .     A
C1174  C1177   1.411   .     A
C1174  C1198   1.432   .     A
C1175  C1176   1.398   .     A
C1175  O1228   1.384   .     S
C1176  O1229   1.386   .     S
C1176  C1188   1.407   .     A
C1177  H1219   1.076   .     S
C1177  C1188   1.392   .     A
C1178  C1252   1.335   .     S
C1178  H1285   1.088   .     S
C1180  C1187   1.400   .     A
C1180  C1189   1.394   .     A
C1180  H1222   1.083   .     S
C1181  C1184   1.451   .     S
C1181  C744    1.331   1_565 S
C1181  H779    1.087   1_565 S
C1182  C1183   1.436   .     S
C1183  O1236   1.274   .     A
C1183  O1230   1.276   .     A
C1184  O1231   1.273   .     A
C1184  O1237   1.273   .     A
C1185  O1226   1.276   .     A
C1185  O1224   1.269   .     A
C1185  C1188   1.457   .     S
C1186  O1225   1.283   .     A
C1186  O1227   1.284   .     A
C1186  C1187   1.470   .     S
C1187  C1191   1.397   .     A
C1189  H1221   1.084   .     S
C1189  C1196   1.404   .     A
C1190  H1205   1.112   .     S
C1190  O1228   1.411   .     S
C1191  C1195   1.409   .     A
C1191  H1202   1.076   .     S
C1192  H1208   1.110   .     S
C1192  H1207   1.111   .     S
C1192  C95     1.521   1_566 S
C1192  H552    1.111   1_556 S
C1193  H1210   1.111   .     S
C1193  O1229   1.415   .     S
C1193  H1211   1.117   .     S
C1193  C1194   1.521   .     S
C1194  H1215   1.110   .     S
C1194  H1214   1.110   .     S
C1194  H1213   1.111   .     S
C1195  C1197   1.426   .     A
C1195  C1196   1.417   .     A
C1196  C543    1.391   1_556 S
C1197  C541    1.427   1_556 S
C1198  C1199   1.417   .     A
C1199  H1203   1.075   .     S
C1199  C1200   1.388   .     A
C1200  H1201   1.084   .     S
H1206  C533    1.114   1_556 S
H1216  C1252   1.086   .     S
H1218  C744    1.086   1_565 S
O1223  Zn1240  1.939   .     S
O1223  Zn1238  1.962   .     S
O1223  Zn1241  1.935   .     S
O1223  Zn1239  1.934   .     S
O1224  Zn1239  1.936   .     S
O1225  Zn1241  1.942   .     S
O1226  Zn1240  1.933   .     S
O1227  Zn1238  1.929   .     S
O1230  Zn1238  1.925   .     S
O1231  Zn1241  1.932   .     S
O1232  Zn1239  1.929   .     S
O1233  Zn1240  1.936   .     S
O1234  Zn1241  1.928   .     S
O1235  Zn1238  1.924   .     S
O1236  Zn1239  1.939   .     S
O1237  Zn1240  1.930   .     S
C1242  O1307   1.268   .     A
C1242  O1305   1.268   .     A
C1242  C1252   1.437   .     S
C1243  C1244   1.381   .     A
C1243  C1270   1.412   .     A
C1243  H1277   1.076   .     S
C1244  H1293   1.083   .     S
C1244  C589    1.394   1_556 S
C1245  C1251   1.455   .     S
C1245  O1306   1.284   .     A
C1245  O1308   1.280   .     A
C1246  C1247   1.424   .     A
C1246  C1248   1.413   .     A
C1247  C1250   1.411   .     A
C1247  C1271   1.432   .     A
C1248  C1249   1.398   .     A
C1248  O1301   1.384   .     S
C1249  O1302   1.386   .     S
C1249  C1261   1.407   .     A
C1250  H1292   1.076   .     S
C1250  C1261   1.392   .     A
C1251  C1106   1.335   1_655 S
C1251  H1139   1.088   1_655 S
C1253  C1260   1.400   .     A
C1253  C1262   1.394   .     A
C1253  H1295   1.083   .     S
C1254  C1257   1.451   .     S
C1254  C817    1.331   1_565 S
C1254  H852    1.087   1_565 S
C1255  C1256   1.436   .     S
C1256  O1309   1.274   .     A
C1256  O1303   1.276   .     A
C1257  O1304   1.273   .     A
C1257  O1310   1.273   .     A
C1258  O1299   1.276   .     A
C1258  O1297   1.269   .     A
C1258  C1261   1.457   .     S
C1259  O1298   1.283   .     A
C1259  O1300   1.284   .     A
C1259  C1260   1.470   .     S
C1260  C1264   1.397   .     A
C1262  H1294   1.084   .     S
C1262  C1269   1.404   .     A
C1263  H1278   1.112   .     S
C1263  O1301   1.411   .     S
C1264  C1268   1.409   .     A
C1264  H1275   1.076   .     S
C1265  H1281   1.110   .     S
C1265  H1280   1.111   .     S
C1265  C168    1.521   1_566 S
C1265  H625    1.111   1_556 S
C1266  H1283   1.111   .     S
C1266  O1302   1.415   .     S
C1266  H1284   1.117   .     S
C1266  C1267   1.521   .     S
C1267  H1288   1.110   .     S
C1267  H1287   1.110   .     S
C1267  H1286   1.111   .     S
C1268  C1270   1.426   .     A
C1268  C1269   1.417   .     A
C1269  C616    1.391   1_556 S
C1270  C614    1.427   1_556 S
C1271  C1272   1.417   .     A
C1272  H1276   1.075   .     S
C1272  C1273   1.388   .     A
C1273  H1274   1.084   .     S
H1279  C606    1.114   1_556 S
H1289  C1106   1.086   1_655 S
H1291  C817    1.086   1_565 S
O1296  Zn1313  1.939   .     S
O1296  Zn1311  1.962   .     S
O1296  Zn1314  1.935   .     S
O1296  Zn1312  1.934   .     S
O1297  Zn1312  1.936   .     S
O1298  Zn1314  1.942   .     S
O1299  Zn1313  1.933   .     S
O1300  Zn1311  1.929   .     S
O1303  Zn1311  1.925   .     S
O1304  Zn1314  1.932   .     S
O1305  Zn1312  1.929   .     S
O1306  Zn1313  1.936   .     S
O1307  Zn1314  1.928   .     S
O1308  Zn1311  1.924   .     S
O1309  Zn1312  1.939   .     S
O1310  Zn1313  1.930   .     S
