data_str_m3_o1_o18_pcu_sym.124
_audit_creation_date              2020-01-03
_audit_creation_method            'Materials Studio'
_symmetry_space_group_name_H-M    'P1'
_symmetry_Int_Tables_number       1
_symmetry_cell_setting            triclinic
loop_
_symmetry_equiv_pos_as_xyz
  x,y,z
_cell_length_a                    30.2546
_cell_length_b                    31.8525
_cell_length_c                    30.7659
_cell_angle_alpha                 90.5622
_cell_angle_beta                  69.3648
_cell_angle_gamma                 90.8610
loop_
_atom_site_label
_atom_site_type_symbol
_atom_site_fract_x
_atom_site_fract_y
_atom_site_fract_z
_atom_site_U_iso_or_equiv
_atom_site_adp_type
_atom_site_occupancy
C1     C     0.16717   0.24626   0.24941   0.00000  Uiso   1.00
C2     C     0.16594   0.08711   0.25116   0.00000  Uiso   1.00
C3     C     0.11332   0.21311   0.04952   0.00000  Uiso   1.00
C4     C     0.22149   0.21836   0.45185   0.00000  Uiso   1.00
C5     C     0.08176   0.21763   0.02612   0.00000  Uiso   1.00
C6     C     0.25203   0.22708   0.47591   0.00000  Uiso   1.00
C7     C     0.16903   0.31127   0.28924   0.00000  Uiso   1.00
C8     C     0.16311   0.02207   0.21228   0.00000  Uiso   1.00
C9     C     0.16757   0.02159   0.29081   0.00000  Uiso   1.00
C10    C     0.16434   0.31191   0.21092   0.00000  Uiso   1.00
C11    C     0.16482   0.04282   0.25194   0.00000  Uiso   1.00
C12    C     0.16776   0.29061   0.24934   0.00000  Uiso   1.00
C13    C     0.31631   0.13472   0.22967   0.00000  Uiso   1.00
C14    C     0.01734   0.19924   0.26919   0.00000  Uiso   1.00
C15    C     0.03006   0.13433   0.23036   0.00000  Uiso   1.00
C16    C     0.30335   0.19921   0.26923   0.00000  Uiso   1.00
C17    C     0.13722   0.16625   0.33802   0.00000  Uiso   1.00
C18    C     0.19636   0.16772   0.16214   0.00000  Uiso   1.00
C19    C     0.12105   0.17091   0.38917   0.00000  Uiso   1.00
C20    C     0.21393   0.17813   0.11220   0.00000  Uiso   1.00
C21    C     0.05984   0.18800   0.46283   0.00000  Uiso   1.00
C22    C     0.27050   0.21514   0.04664   0.00000  Uiso   1.00
C23    C     0.07257   0.17307   0.41733   0.00000  Uiso   1.00
C24    C     0.25849   0.19773   0.09106   0.00000  Uiso   1.00
C25    C     0.15538   0.17655   0.41060   0.00000  Uiso   1.00
C26    C     0.18230   0.17599   0.08811   0.00000  Uiso   1.00
C27    C     0.14219   0.19477   0.45483   0.00000  Uiso   1.00
C28    C     0.19327   0.19744   0.04571   0.00000  Uiso   1.00
C29    C     0.09408   0.20103   0.48092   0.00000  Uiso   1.00
C30    C     0.23923   0.21340   0.02259   0.00000  Uiso   1.00
C31    C     0.17544   0.20365   0.47606   0.00000  Uiso   1.00
C32    C     0.15998   0.20212   0.02445   0.00000  Uiso   1.00
H33    H     0.02321   0.18708   0.48492   0.00000  Uiso   1.00
H34    H     0.30364   0.23095   0.03122   0.00000  Uiso   1.00
H35    H     0.10314   0.22281   0.08547   0.00000  Uiso   1.00
H36    H     0.23225   0.22685   0.41559   0.00000  Uiso   1.00
N37    N     0.04759   0.16668   0.25001   0.00000  Uiso   1.00
N38    N     0.28574   0.16666   0.24999   0.00000  Uiso   1.00
O39    O     0.12846   0.22775   0.25001   0.00000  Uiso   1.00
O40    O     0.20488   0.10558   0.25000   0.00000  Uiso   1.00
O41    O     0.20490   0.22774   0.25000   0.00000  Uiso   1.00
O42    O     0.12843   0.10559   0.25000   0.00000  Uiso   1.00
O43    O     0.10661   0.16667   0.31613   0.00000  Uiso   1.00
O44    O     0.22672   0.16666   0.18388   0.00000  Uiso   1.00
O45    O     0.18305   0.16666   0.31612   0.00000  Uiso   1.00
O46    O     0.15028   0.16667   0.18388   0.00000  Uiso   1.00
Zn47   Zn    0.11562   0.16667   0.25000   0.00000  Uiso   1.00
Zn48   Zn    0.21771   0.16666   0.25000   0.00000  Uiso   1.00
N49    N     0.04090   0.24306   0.04554   0.00000  Uiso   1.00
H50    H     0.04047   0.25659   0.07680   0.00000  Uiso   1.00
H51    H     0.04434   0.26819   0.02292   0.00000  Uiso   1.00
N52    N     0.29494   0.24967   0.45219   0.00000  Uiso   1.00
H53    H     0.32343   0.23040   0.44852   0.00000  Uiso   1.00
H54    H     0.29683   0.27593   0.47213   0.00000  Uiso   1.00
N55    N     0.14255   0.14742   0.10393   0.00000  Uiso   1.00
H56    H     0.11121   0.16393   0.11846   0.00000  Uiso   1.00
H57    H     0.14103   0.12917   0.07605   0.00000  Uiso   1.00
N58    N     0.20061   0.15639   0.39275   0.00000  Uiso   1.00
H59    H     0.22466   0.17439   0.36671   0.00000  Uiso   1.00
H60    H     0.19687   0.12649   0.38015   0.00000  Uiso   1.00
N61    N     0.29103   0.20106   0.11525   0.00000  Uiso   1.00
H62    H     0.29775   0.23283   0.11934   0.00000  Uiso   1.00
H63    H     0.32215   0.18583   0.09580   0.00000  Uiso   1.00
N64    N     0.03575   0.15654   0.40268   0.00000  Uiso   1.00
H65    H     0.04537   0.12680   0.38800   0.00000  Uiso   1.00
H66    H     0.03086   0.17638   0.37815   0.00000  Uiso   1.00
N67    N     0.16871   0.28714   0.32863   0.00000  Uiso   1.00
H68    H     0.19978   0.29343   0.33512   0.00000  Uiso   1.00
H69    H     0.13974   0.29588   0.35763   0.00000  Uiso   1.00
N70    N     0.16298   0.04590   0.17283   0.00000  Uiso   1.00
H71    H     0.13228   0.03855   0.16603   0.00000  Uiso   1.00
H72    H     0.19230   0.03754   0.14398   0.00000  Uiso   1.00
C73    C     0.16660   0.04449   0.33348   0.00000  Uiso   1.00
O74    O     0.13649   0.07092   0.35071   0.00000  Uiso   1.00
O75    O     0.19960   0.03536   0.35428   0.00000  Uiso   1.00
H76    H     0.19407   0.05165   0.38415   0.00000  Uiso   1.00
C77    C     0.16461   0.28922   0.16860   0.00000  Uiso   1.00
O78    O     0.19793   0.26696   0.14771   0.00000  Uiso   1.00
O79    O     0.12734   0.29388   0.15230   0.00000  Uiso   1.00
H80    H     0.13236   0.27759   0.12253   0.00000  Uiso   1.00
C81    C     0.30122   0.10001   0.20594   0.00000  Uiso   1.00
O82    O     0.29206   0.10685   0.17107   0.00000  Uiso   1.00
O83    O     0.29906   0.05907   0.22260   0.00000  Uiso   1.00
H84    H     0.28819   0.03791   0.20354   0.00000  Uiso   1.00
C85    C     0.03363   0.23640   0.28852   0.00000  Uiso   1.00
O86    O     0.04520   0.23315   0.32251   0.00000  Uiso   1.00
O87    O     0.03459   0.27569   0.26831   0.00000  Uiso   1.00
H88    H     0.04656   0.29883   0.28433   0.00000  Uiso   1.00
N89    N     0.05898   0.09942   0.20909   0.00000  Uiso   1.00
H90    H     0.06145   0.08004   0.23525   0.00000  Uiso   1.00
H91    H     0.09217   0.11024   0.18795   0.00000  Uiso   1.00
N92    N     0.27475   0.23463   0.28940   0.00000  Uiso   1.00
H93    H     0.27303   0.25360   0.26260   0.00000  Uiso   1.00
H94    H     0.24120   0.22449   0.31034   0.00000  Uiso   1.00
C95    C     0.50050   0.24626   0.24941   0.00000  Uiso   1.00
C96    C     0.49927   0.08711   0.25116   0.00000  Uiso   1.00
C97    C     0.44665   0.21311   0.04952   0.00000  Uiso   1.00
C98    C     0.55483   0.21836   0.45185   0.00000  Uiso   1.00
C99    C     0.41509   0.21763   0.02612   0.00000  Uiso   1.00
C100   C     0.58537   0.22708   0.47591   0.00000  Uiso   1.00
C101   C     0.50236   0.31127   0.28924   0.00000  Uiso   1.00
C102   C     0.49644   0.02207   0.21228   0.00000  Uiso   1.00
C103   C     0.50091   0.02159   0.29081   0.00000  Uiso   1.00
C104   C     0.49768   0.31191   0.21092   0.00000  Uiso   1.00
C105   C     0.49815   0.04282   0.25194   0.00000  Uiso   1.00
C106   C     0.50109   0.29061   0.24934   0.00000  Uiso   1.00
C107   C     0.64964   0.13472   0.22967   0.00000  Uiso   1.00
C108   C     0.35067   0.19924   0.26919   0.00000  Uiso   1.00
C109   C     0.36339   0.13433   0.23036   0.00000  Uiso   1.00
C110   C     0.63668   0.19921   0.26923   0.00000  Uiso   1.00
C111   C     0.47055   0.16625   0.33802   0.00000  Uiso   1.00
C112   C     0.52969   0.16772   0.16214   0.00000  Uiso   1.00
C113   C     0.45439   0.17091   0.38917   0.00000  Uiso   1.00
C114   C     0.54727   0.17813   0.11220   0.00000  Uiso   1.00
C115   C     0.39317   0.18800   0.46283   0.00000  Uiso   1.00
C116   C     0.60383   0.21514   0.04664   0.00000  Uiso   1.00
C117   C     0.40591   0.17307   0.41733   0.00000  Uiso   1.00
C118   C     0.59183   0.19773   0.09106   0.00000  Uiso   1.00
C119   C     0.48871   0.17655   0.41060   0.00000  Uiso   1.00
C120   C     0.51563   0.17599   0.08811   0.00000  Uiso   1.00
C121   C     0.47552   0.19477   0.45483   0.00000  Uiso   1.00
C122   C     0.52660   0.19744   0.04571   0.00000  Uiso   1.00
C123   C     0.42741   0.20103   0.48092   0.00000  Uiso   1.00
C124   C     0.57257   0.21340   0.02259   0.00000  Uiso   1.00
C125   C     0.50878   0.20365   0.47606   0.00000  Uiso   1.00
C126   C     0.49331   0.20212   0.02445   0.00000  Uiso   1.00
H127   H     0.35654   0.18708   0.48492   0.00000  Uiso   1.00
H128   H     0.63697   0.23095   0.03122   0.00000  Uiso   1.00
H129   H     0.43647   0.22281   0.08547   0.00000  Uiso   1.00
H130   H     0.56558   0.22685   0.41559   0.00000  Uiso   1.00
N131   N     0.38093   0.16668   0.25001   0.00000  Uiso   1.00
N132   N     0.61907   0.16666   0.24999   0.00000  Uiso   1.00
O133   O     0.46179   0.22775   0.25001   0.00000  Uiso   1.00
O134   O     0.53821   0.10558   0.25000   0.00000  Uiso   1.00
O135   O     0.53823   0.22774   0.25000   0.00000  Uiso   1.00
O136   O     0.46177   0.10559   0.25000   0.00000  Uiso   1.00
O137   O     0.43994   0.16667   0.31613   0.00000  Uiso   1.00
O138   O     0.56006   0.16666   0.18388   0.00000  Uiso   1.00
O139   O     0.51639   0.16666   0.31612   0.00000  Uiso   1.00
O140   O     0.48361   0.16667   0.18388   0.00000  Uiso   1.00
Zn141  Zn    0.44896   0.16667   0.25000   0.00000  Uiso   1.00
Zn142  Zn    0.55104   0.16666   0.25000   0.00000  Uiso   1.00
N143   N     0.37424   0.24306   0.04554   0.00000  Uiso   1.00
H144   H     0.37380   0.25659   0.07680   0.00000  Uiso   1.00
H145   H     0.37767   0.26819   0.02292   0.00000  Uiso   1.00
N146   N     0.62827   0.24967   0.45219   0.00000  Uiso   1.00
H147   H     0.65677   0.23040   0.44852   0.00000  Uiso   1.00
H148   H     0.63017   0.27593   0.47213   0.00000  Uiso   1.00
N149   N     0.47588   0.14742   0.10393   0.00000  Uiso   1.00
H150   H     0.44454   0.16393   0.11846   0.00000  Uiso   1.00
H151   H     0.47437   0.12917   0.07605   0.00000  Uiso   1.00
N152   N     0.53395   0.15639   0.39275   0.00000  Uiso   1.00
H153   H     0.55800   0.17439   0.36671   0.00000  Uiso   1.00
H154   H     0.53021   0.12649   0.38015   0.00000  Uiso   1.00
N155   N     0.62436   0.20106   0.11525   0.00000  Uiso   1.00
H156   H     0.63109   0.23283   0.11934   0.00000  Uiso   1.00
H157   H     0.65548   0.18583   0.09580   0.00000  Uiso   1.00
N158   N     0.36908   0.15654   0.40268   0.00000  Uiso   1.00
H159   H     0.37870   0.12680   0.38800   0.00000  Uiso   1.00
H160   H     0.36419   0.17638   0.37815   0.00000  Uiso   1.00
N161   N     0.50204   0.28714   0.32863   0.00000  Uiso   1.00
H162   H     0.53312   0.29343   0.33512   0.00000  Uiso   1.00
H163   H     0.47307   0.29588   0.35763   0.00000  Uiso   1.00
N164   N     0.49631   0.04590   0.17283   0.00000  Uiso   1.00
H165   H     0.46562   0.03855   0.16603   0.00000  Uiso   1.00
H166   H     0.52563   0.03754   0.14398   0.00000  Uiso   1.00
C167   C     0.49994   0.04449   0.33348   0.00000  Uiso   1.00
O168   O     0.46983   0.07092   0.35071   0.00000  Uiso   1.00
O169   O     0.53294   0.03536   0.35428   0.00000  Uiso   1.00
H170   H     0.52741   0.05165   0.38415   0.00000  Uiso   1.00
C171   C     0.49795   0.28922   0.16860   0.00000  Uiso   1.00
O172   O     0.53126   0.26696   0.14771   0.00000  Uiso   1.00
O173   O     0.46067   0.29388   0.15230   0.00000  Uiso   1.00
H174   H     0.46569   0.27759   0.12253   0.00000  Uiso   1.00
C175   C     0.63456   0.10001   0.20594   0.00000  Uiso   1.00
O176   O     0.62540   0.10685   0.17107   0.00000  Uiso   1.00
O177   O     0.63239   0.05907   0.22260   0.00000  Uiso   1.00
H178   H     0.62152   0.03791   0.20354   0.00000  Uiso   1.00
C179   C     0.36696   0.23640   0.28852   0.00000  Uiso   1.00
O180   O     0.37854   0.23315   0.32251   0.00000  Uiso   1.00
O181   O     0.36792   0.27569   0.26831   0.00000  Uiso   1.00
H182   H     0.37990   0.29883   0.28433   0.00000  Uiso   1.00
N183   N     0.39232   0.09942   0.20909   0.00000  Uiso   1.00
H184   H     0.39479   0.08004   0.23525   0.00000  Uiso   1.00
H185   H     0.42551   0.11024   0.18795   0.00000  Uiso   1.00
N186   N     0.60808   0.23463   0.28940   0.00000  Uiso   1.00
H187   H     0.60636   0.25360   0.26260   0.00000  Uiso   1.00
H188   H     0.57453   0.22449   0.31034   0.00000  Uiso   1.00
C189   C     0.83383   0.24626   0.24941   0.00000  Uiso   1.00
C190   C     0.83260   0.08711   0.25116   0.00000  Uiso   1.00
C191   C     0.77998   0.21311   0.04952   0.00000  Uiso   1.00
C192   C     0.88816   0.21836   0.45185   0.00000  Uiso   1.00
C193   C     0.74842   0.21763   0.02612   0.00000  Uiso   1.00
C194   C     0.91870   0.22708   0.47591   0.00000  Uiso   1.00
C195   C     0.83569   0.31127   0.28924   0.00000  Uiso   1.00
C196   C     0.82977   0.02207   0.21228   0.00000  Uiso   1.00
C197   C     0.83424   0.02159   0.29081   0.00000  Uiso   1.00
C198   C     0.83101   0.31191   0.21092   0.00000  Uiso   1.00
C199   C     0.83148   0.04282   0.25194   0.00000  Uiso   1.00
C200   C     0.83443   0.29061   0.24934   0.00000  Uiso   1.00
C201   C     0.98298   0.13472   0.22967   0.00000  Uiso   1.00
C202   C     0.68401   0.19924   0.26919   0.00000  Uiso   1.00
C203   C     0.69672   0.13433   0.23036   0.00000  Uiso   1.00
C204   C     0.97001   0.19921   0.26923   0.00000  Uiso   1.00
C205   C     0.80389   0.16625   0.33802   0.00000  Uiso   1.00
C206   C     0.86302   0.16772   0.16214   0.00000  Uiso   1.00
C207   C     0.78772   0.17091   0.38917   0.00000  Uiso   1.00
C208   C     0.88060   0.17813   0.11220   0.00000  Uiso   1.00
C209   C     0.72651   0.18800   0.46283   0.00000  Uiso   1.00
C210   C     0.93716   0.21514   0.04664   0.00000  Uiso   1.00
C211   C     0.73924   0.17307   0.41733   0.00000  Uiso   1.00
C212   C     0.92516   0.19773   0.09106   0.00000  Uiso   1.00
C213   C     0.82204   0.17655   0.41060   0.00000  Uiso   1.00
C214   C     0.84896   0.17599   0.08811   0.00000  Uiso   1.00
C215   C     0.80885   0.19477   0.45483   0.00000  Uiso   1.00
C216   C     0.85993   0.19744   0.04571   0.00000  Uiso   1.00
C217   C     0.76074   0.20103   0.48092   0.00000  Uiso   1.00
C218   C     0.90590   0.21340   0.02259   0.00000  Uiso   1.00
C219   C     0.84211   0.20365   0.47606   0.00000  Uiso   1.00
C220   C     0.82665   0.20212   0.02445   0.00000  Uiso   1.00
H221   H     0.68987   0.18708   0.48492   0.00000  Uiso   1.00
H222   H     0.97030   0.23095   0.03122   0.00000  Uiso   1.00
H223   H     0.76980   0.22281   0.08547   0.00000  Uiso   1.00
H224   H     0.89892   0.22685   0.41559   0.00000  Uiso   1.00
N225   N     0.71426   0.16668   0.25001   0.00000  Uiso   1.00
N226   N     0.95241   0.16666   0.24999   0.00000  Uiso   1.00
O227   O     0.79512   0.22775   0.25001   0.00000  Uiso   1.00
O228   O     0.87154   0.10558   0.25000   0.00000  Uiso   1.00
O229   O     0.87157   0.22774   0.25000   0.00000  Uiso   1.00
O230   O     0.79510   0.10559   0.25000   0.00000  Uiso   1.00
O231   O     0.77328   0.16667   0.31613   0.00000  Uiso   1.00
O232   O     0.89339   0.16666   0.18388   0.00000  Uiso   1.00
O233   O     0.84972   0.16666   0.31612   0.00000  Uiso   1.00
O234   O     0.81695   0.16667   0.18388   0.00000  Uiso   1.00
Zn235  Zn    0.78229   0.16667   0.25000   0.00000  Uiso   1.00
Zn236  Zn    0.88438   0.16666   0.25000   0.00000  Uiso   1.00
N237   N     0.70757   0.24306   0.04554   0.00000  Uiso   1.00
H238   H     0.70714   0.25659   0.07680   0.00000  Uiso   1.00
H239   H     0.71100   0.26819   0.02292   0.00000  Uiso   1.00
N240   N     0.96160   0.24967   0.45219   0.00000  Uiso   1.00
H241   H     0.99010   0.23040   0.44852   0.00000  Uiso   1.00
H242   H     0.96350   0.27593   0.47213   0.00000  Uiso   1.00
N243   N     0.80921   0.14742   0.10393   0.00000  Uiso   1.00
H244   H     0.77788   0.16393   0.11846   0.00000  Uiso   1.00
H245   H     0.80770   0.12917   0.07605   0.00000  Uiso   1.00
N246   N     0.86728   0.15639   0.39275   0.00000  Uiso   1.00
H247   H     0.89133   0.17439   0.36671   0.00000  Uiso   1.00
H248   H     0.86354   0.12649   0.38015   0.00000  Uiso   1.00
N249   N     0.95769   0.20106   0.11525   0.00000  Uiso   1.00
H250   H     0.96442   0.23283   0.11934   0.00000  Uiso   1.00
H251   H     0.98881   0.18583   0.09580   0.00000  Uiso   1.00
N252   N     0.70242   0.15654   0.40268   0.00000  Uiso   1.00
H253   H     0.71203   0.12680   0.38800   0.00000  Uiso   1.00
H254   H     0.69753   0.17638   0.37815   0.00000  Uiso   1.00
N255   N     0.83537   0.28714   0.32863   0.00000  Uiso   1.00
H256   H     0.86645   0.29343   0.33512   0.00000  Uiso   1.00
H257   H     0.80640   0.29588   0.35763   0.00000  Uiso   1.00
N258   N     0.82965   0.04590   0.17283   0.00000  Uiso   1.00
H259   H     0.79895   0.03855   0.16603   0.00000  Uiso   1.00
H260   H     0.85897   0.03754   0.14398   0.00000  Uiso   1.00
C261   C     0.83327   0.04449   0.33348   0.00000  Uiso   1.00
O262   O     0.80316   0.07092   0.35071   0.00000  Uiso   1.00
O263   O     0.86627   0.03536   0.35428   0.00000  Uiso   1.00
H264   H     0.86074   0.05165   0.38415   0.00000  Uiso   1.00
C265   C     0.83128   0.28922   0.16860   0.00000  Uiso   1.00
O266   O     0.86460   0.26696   0.14771   0.00000  Uiso   1.00
O267   O     0.79400   0.29388   0.15230   0.00000  Uiso   1.00
H268   H     0.79903   0.27759   0.12253   0.00000  Uiso   1.00
C269   C     0.96789   0.10001   0.20594   0.00000  Uiso   1.00
O270   O     0.95873   0.10685   0.17107   0.00000  Uiso   1.00
O271   O     0.96572   0.05907   0.22260   0.00000  Uiso   1.00
H272   H     0.95485   0.03791   0.20354   0.00000  Uiso   1.00
C273   C     0.70030   0.23640   0.28852   0.00000  Uiso   1.00
O274   O     0.71187   0.23315   0.32251   0.00000  Uiso   1.00
O275   O     0.70126   0.27569   0.26831   0.00000  Uiso   1.00
H276   H     0.71323   0.29883   0.28433   0.00000  Uiso   1.00
N277   N     0.72565   0.09942   0.20909   0.00000  Uiso   1.00
H278   H     0.72812   0.08004   0.23525   0.00000  Uiso   1.00
H279   H     0.75884   0.11024   0.18795   0.00000  Uiso   1.00
N280   N     0.94142   0.23463   0.28940   0.00000  Uiso   1.00
H281   H     0.93970   0.25360   0.26260   0.00000  Uiso   1.00
H282   H     0.90787   0.22449   0.31034   0.00000  Uiso   1.00
C283   C     0.16717   0.57960   0.24941   0.00000  Uiso   1.00
C284   C     0.16594   0.42044   0.25116   0.00000  Uiso   1.00
C285   C     0.11332   0.54644   0.04952   0.00000  Uiso   1.00
C286   C     0.22149   0.55169   0.45185   0.00000  Uiso   1.00
C287   C     0.08176   0.55096   0.02612   0.00000  Uiso   1.00
C288   C     0.25203   0.56041   0.47591   0.00000  Uiso   1.00
C289   C     0.16903   0.64461   0.28924   0.00000  Uiso   1.00
C290   C     0.16311   0.35541   0.21228   0.00000  Uiso   1.00
C291   C     0.16757   0.35492   0.29081   0.00000  Uiso   1.00
C292   C     0.16434   0.64524   0.21092   0.00000  Uiso   1.00
C293   C     0.16482   0.37615   0.25194   0.00000  Uiso   1.00
C294   C     0.16776   0.62394   0.24934   0.00000  Uiso   1.00
C295   C     0.31631   0.46806   0.22967   0.00000  Uiso   1.00
C296   C     0.01734   0.53257   0.26919   0.00000  Uiso   1.00
C297   C     0.03006   0.46766   0.23036   0.00000  Uiso   1.00
C298   C     0.30335   0.53254   0.26923   0.00000  Uiso   1.00
C299   C     0.13722   0.49958   0.33802   0.00000  Uiso   1.00
C300   C     0.19636   0.50105   0.16214   0.00000  Uiso   1.00
C301   C     0.12105   0.50425   0.38917   0.00000  Uiso   1.00
C302   C     0.21393   0.51146   0.11220   0.00000  Uiso   1.00
C303   C     0.05984   0.52134   0.46283   0.00000  Uiso   1.00
C304   C     0.27050   0.54848   0.04664   0.00000  Uiso   1.00
C305   C     0.07257   0.50641   0.41733   0.00000  Uiso   1.00
C306   C     0.25849   0.53106   0.09106   0.00000  Uiso   1.00
C307   C     0.15538   0.50988   0.41060   0.00000  Uiso   1.00
C308   C     0.18230   0.50933   0.08811   0.00000  Uiso   1.00
C309   C     0.14219   0.52810   0.45483   0.00000  Uiso   1.00
C310   C     0.19327   0.53078   0.04571   0.00000  Uiso   1.00
C311   C     0.09408   0.53436   0.48092   0.00000  Uiso   1.00
C312   C     0.23923   0.54673   0.02259   0.00000  Uiso   1.00
C313   C     0.17544   0.53698   0.47606   0.00000  Uiso   1.00
C314   C     0.15998   0.53546   0.02445   0.00000  Uiso   1.00
H315   H     0.02321   0.52042   0.48492   0.00000  Uiso   1.00
H316   H     0.30364   0.56428   0.03122   0.00000  Uiso   1.00
H317   H     0.10314   0.55614   0.08547   0.00000  Uiso   1.00
H318   H     0.23225   0.56018   0.41559   0.00000  Uiso   1.00
N319   N     0.04759   0.50001   0.25001   0.00000  Uiso   1.00
N320   N     0.28574   0.49999   0.24999   0.00000  Uiso   1.00
O321   O     0.12846   0.56108   0.25001   0.00000  Uiso   1.00
O322   O     0.20488   0.43892   0.25000   0.00000  Uiso   1.00
O323   O     0.20490   0.56107   0.25000   0.00000  Uiso   1.00
O324   O     0.12843   0.43893   0.25000   0.00000  Uiso   1.00
O325   O     0.10661   0.50001   0.31613   0.00000  Uiso   1.00
O326   O     0.22672   0.49999   0.18388   0.00000  Uiso   1.00
O327   O     0.18305   0.50000   0.31612   0.00000  Uiso   1.00
O328   O     0.15028   0.50000   0.18388   0.00000  Uiso   1.00
Zn329  Zn    0.11562   0.50001   0.25000   0.00000  Uiso   1.00
Zn330  Zn    0.21771   0.49999   0.25000   0.00000  Uiso   1.00
N331   N     0.04090   0.57639   0.04554   0.00000  Uiso   1.00
H332   H     0.04047   0.58992   0.07680   0.00000  Uiso   1.00
H333   H     0.04434   0.60153   0.02292   0.00000  Uiso   1.00
N334   N     0.29494   0.58301   0.45219   0.00000  Uiso   1.00
H335   H     0.32343   0.56373   0.44852   0.00000  Uiso   1.00
H336   H     0.29683   0.60927   0.47213   0.00000  Uiso   1.00
N337   N     0.14255   0.48076   0.10393   0.00000  Uiso   1.00
H338   H     0.11121   0.49726   0.11846   0.00000  Uiso   1.00
H339   H     0.14103   0.46250   0.07605   0.00000  Uiso   1.00
N340   N     0.20061   0.48972   0.39275   0.00000  Uiso   1.00
H341   H     0.22466   0.50772   0.36671   0.00000  Uiso   1.00
H342   H     0.19687   0.45982   0.38015   0.00000  Uiso   1.00
N343   N     0.29103   0.53439   0.11525   0.00000  Uiso   1.00
H344   H     0.29775   0.56616   0.11934   0.00000  Uiso   1.00
H345   H     0.32215   0.51917   0.09580   0.00000  Uiso   1.00
N346   N     0.03575   0.48987   0.40268   0.00000  Uiso   1.00
H347   H     0.04537   0.46013   0.38800   0.00000  Uiso   1.00
H348   H     0.03086   0.50971   0.37815   0.00000  Uiso   1.00
N349   N     0.16871   0.62047   0.32863   0.00000  Uiso   1.00
H350   H     0.19978   0.62676   0.33512   0.00000  Uiso   1.00
H351   H     0.13974   0.62921   0.35763   0.00000  Uiso   1.00
N352   N     0.16298   0.37923   0.17283   0.00000  Uiso   1.00
H353   H     0.13228   0.37188   0.16603   0.00000  Uiso   1.00
H354   H     0.19230   0.37087   0.14398   0.00000  Uiso   1.00
C355   C     0.16660   0.37782   0.33348   0.00000  Uiso   1.00
O356   O     0.13649   0.40425   0.35071   0.00000  Uiso   1.00
O357   O     0.19960   0.36870   0.35428   0.00000  Uiso   1.00
H358   H     0.19407   0.38498   0.38415   0.00000  Uiso   1.00
C359   C     0.16461   0.62255   0.16860   0.00000  Uiso   1.00
O360   O     0.19793   0.60029   0.14771   0.00000  Uiso   1.00
O361   O     0.12734   0.62722   0.15230   0.00000  Uiso   1.00
H362   H     0.13236   0.61093   0.12253   0.00000  Uiso   1.00
C363   C     0.30122   0.43334   0.20594   0.00000  Uiso   1.00
O364   O     0.29206   0.44018   0.17107   0.00000  Uiso   1.00
O365   O     0.29906   0.39240   0.22260   0.00000  Uiso   1.00
H366   H     0.28819   0.37124   0.20354   0.00000  Uiso   1.00
C367   C     0.03363   0.56973   0.28852   0.00000  Uiso   1.00
O368   O     0.04520   0.56648   0.32251   0.00000  Uiso   1.00
O369   O     0.03459   0.60902   0.26831   0.00000  Uiso   1.00
H370   H     0.04656   0.63217   0.28433   0.00000  Uiso   1.00
N371   N     0.05898   0.43276   0.20909   0.00000  Uiso   1.00
H372   H     0.06145   0.41337   0.23525   0.00000  Uiso   1.00
H373   H     0.09217   0.44357   0.18795   0.00000  Uiso   1.00
N374   N     0.27475   0.56796   0.28940   0.00000  Uiso   1.00
H375   H     0.27303   0.58694   0.26260   0.00000  Uiso   1.00
H376   H     0.24120   0.55782   0.31034   0.00000  Uiso   1.00
C377   C     0.50050   0.57960   0.24941   0.00000  Uiso   1.00
C378   C     0.49927   0.42044   0.25116   0.00000  Uiso   1.00
C379   C     0.44665   0.54644   0.04952   0.00000  Uiso   1.00
C380   C     0.55483   0.55169   0.45185   0.00000  Uiso   1.00
C381   C     0.41509   0.55096   0.02612   0.00000  Uiso   1.00
C382   C     0.58537   0.56041   0.47591   0.00000  Uiso   1.00
C383   C     0.50236   0.64461   0.28924   0.00000  Uiso   1.00
C384   C     0.49644   0.35541   0.21228   0.00000  Uiso   1.00
C385   C     0.50091   0.35492   0.29081   0.00000  Uiso   1.00
C386   C     0.49768   0.64524   0.21092   0.00000  Uiso   1.00
C387   C     0.49815   0.37615   0.25194   0.00000  Uiso   1.00
C388   C     0.50109   0.62394   0.24934   0.00000  Uiso   1.00
C389   C     0.64964   0.46806   0.22967   0.00000  Uiso   1.00
C390   C     0.35067   0.53257   0.26919   0.00000  Uiso   1.00
C391   C     0.36339   0.46766   0.23036   0.00000  Uiso   1.00
C392   C     0.63668   0.53254   0.26923   0.00000  Uiso   1.00
C393   C     0.47055   0.49958   0.33802   0.00000  Uiso   1.00
C394   C     0.52969   0.50105   0.16214   0.00000  Uiso   1.00
C395   C     0.45439   0.50425   0.38917   0.00000  Uiso   1.00
C396   C     0.54727   0.51146   0.11220   0.00000  Uiso   1.00
C397   C     0.39317   0.52134   0.46283   0.00000  Uiso   1.00
C398   C     0.60383   0.54848   0.04664   0.00000  Uiso   1.00
C399   C     0.40591   0.50641   0.41733   0.00000  Uiso   1.00
C400   C     0.59183   0.53106   0.09106   0.00000  Uiso   1.00
C401   C     0.48871   0.50988   0.41060   0.00000  Uiso   1.00
C402   C     0.51563   0.50933   0.08811   0.00000  Uiso   1.00
C403   C     0.47552   0.52810   0.45483   0.00000  Uiso   1.00
C404   C     0.52660   0.53078   0.04571   0.00000  Uiso   1.00
C405   C     0.42741   0.53436   0.48092   0.00000  Uiso   1.00
C406   C     0.57257   0.54673   0.02259   0.00000  Uiso   1.00
C407   C     0.50878   0.53698   0.47606   0.00000  Uiso   1.00
C408   C     0.49331   0.53546   0.02445   0.00000  Uiso   1.00
H409   H     0.35654   0.52042   0.48492   0.00000  Uiso   1.00
H410   H     0.63697   0.56428   0.03122   0.00000  Uiso   1.00
H411   H     0.43647   0.55614   0.08547   0.00000  Uiso   1.00
H412   H     0.56558   0.56018   0.41559   0.00000  Uiso   1.00
N413   N     0.38093   0.50001   0.25001   0.00000  Uiso   1.00
N414   N     0.61907   0.49999   0.24999   0.00000  Uiso   1.00
O415   O     0.46179   0.56108   0.25001   0.00000  Uiso   1.00
O416   O     0.53821   0.43892   0.25000   0.00000  Uiso   1.00
O417   O     0.53823   0.56107   0.25000   0.00000  Uiso   1.00
O418   O     0.46177   0.43893   0.25000   0.00000  Uiso   1.00
O419   O     0.43994   0.50001   0.31613   0.00000  Uiso   1.00
O420   O     0.56006   0.49999   0.18388   0.00000  Uiso   1.00
O421   O     0.51639   0.50000   0.31612   0.00000  Uiso   1.00
O422   O     0.48361   0.50000   0.18388   0.00000  Uiso   1.00
Zn423  Zn    0.44896   0.50001   0.25000   0.00000  Uiso   1.00
Zn424  Zn    0.55104   0.49999   0.25000   0.00000  Uiso   1.00
N425   N     0.37424   0.57639   0.04554   0.00000  Uiso   1.00
H426   H     0.37380   0.58992   0.07680   0.00000  Uiso   1.00
H427   H     0.37767   0.60153   0.02292   0.00000  Uiso   1.00
N428   N     0.62827   0.58301   0.45219   0.00000  Uiso   1.00
H429   H     0.65677   0.56373   0.44852   0.00000  Uiso   1.00
H430   H     0.63017   0.60927   0.47213   0.00000  Uiso   1.00
N431   N     0.47588   0.48076   0.10393   0.00000  Uiso   1.00
H432   H     0.44454   0.49726   0.11846   0.00000  Uiso   1.00
H433   H     0.47437   0.46250   0.07605   0.00000  Uiso   1.00
N434   N     0.53395   0.48972   0.39275   0.00000  Uiso   1.00
H435   H     0.55800   0.50772   0.36671   0.00000  Uiso   1.00
H436   H     0.53021   0.45982   0.38015   0.00000  Uiso   1.00
N437   N     0.62436   0.53439   0.11525   0.00000  Uiso   1.00
H438   H     0.63109   0.56616   0.11934   0.00000  Uiso   1.00
H439   H     0.65548   0.51917   0.09580   0.00000  Uiso   1.00
N440   N     0.36908   0.48987   0.40268   0.00000  Uiso   1.00
H441   H     0.37870   0.46013   0.38800   0.00000  Uiso   1.00
H442   H     0.36419   0.50971   0.37815   0.00000  Uiso   1.00
N443   N     0.50204   0.62047   0.32863   0.00000  Uiso   1.00
H444   H     0.53312   0.62676   0.33512   0.00000  Uiso   1.00
H445   H     0.47307   0.62921   0.35763   0.00000  Uiso   1.00
N446   N     0.49631   0.37923   0.17283   0.00000  Uiso   1.00
H447   H     0.46562   0.37188   0.16603   0.00000  Uiso   1.00
H448   H     0.52563   0.37087   0.14398   0.00000  Uiso   1.00
C449   C     0.49994   0.37782   0.33348   0.00000  Uiso   1.00
O450   O     0.46983   0.40425   0.35071   0.00000  Uiso   1.00
O451   O     0.53294   0.36870   0.35428   0.00000  Uiso   1.00
H452   H     0.52741   0.38498   0.38415   0.00000  Uiso   1.00
C453   C     0.49795   0.62255   0.16860   0.00000  Uiso   1.00
O454   O     0.53126   0.60029   0.14771   0.00000  Uiso   1.00
O455   O     0.46067   0.62722   0.15230   0.00000  Uiso   1.00
H456   H     0.46569   0.61093   0.12253   0.00000  Uiso   1.00
C457   C     0.63456   0.43334   0.20594   0.00000  Uiso   1.00
O458   O     0.62540   0.44018   0.17107   0.00000  Uiso   1.00
O459   O     0.63239   0.39240   0.22260   0.00000  Uiso   1.00
H460   H     0.62152   0.37124   0.20354   0.00000  Uiso   1.00
C461   C     0.36696   0.56973   0.28852   0.00000  Uiso   1.00
O462   O     0.37854   0.56648   0.32251   0.00000  Uiso   1.00
O463   O     0.36792   0.60902   0.26831   0.00000  Uiso   1.00
H464   H     0.37990   0.63217   0.28433   0.00000  Uiso   1.00
N465   N     0.39232   0.43276   0.20909   0.00000  Uiso   1.00
H466   H     0.39479   0.41337   0.23525   0.00000  Uiso   1.00
H467   H     0.42551   0.44357   0.18795   0.00000  Uiso   1.00
N468   N     0.60808   0.56796   0.28940   0.00000  Uiso   1.00
H469   H     0.60636   0.58694   0.26260   0.00000  Uiso   1.00
H470   H     0.57453   0.55782   0.31034   0.00000  Uiso   1.00
C471   C     0.83383   0.57960   0.24941   0.00000  Uiso   1.00
C472   C     0.83260   0.42044   0.25116   0.00000  Uiso   1.00
C473   C     0.77998   0.54644   0.04952   0.00000  Uiso   1.00
C474   C     0.88816   0.55169   0.45185   0.00000  Uiso   1.00
C475   C     0.74842   0.55096   0.02612   0.00000  Uiso   1.00
C476   C     0.91870   0.56041   0.47591   0.00000  Uiso   1.00
C477   C     0.83569   0.64461   0.28924   0.00000  Uiso   1.00
C478   C     0.82977   0.35541   0.21228   0.00000  Uiso   1.00
C479   C     0.83424   0.35492   0.29081   0.00000  Uiso   1.00
C480   C     0.83101   0.64524   0.21092   0.00000  Uiso   1.00
C481   C     0.83148   0.37615   0.25194   0.00000  Uiso   1.00
C482   C     0.83443   0.62394   0.24934   0.00000  Uiso   1.00
C483   C     0.98298   0.46806   0.22967   0.00000  Uiso   1.00
C484   C     0.68401   0.53257   0.26919   0.00000  Uiso   1.00
C485   C     0.69672   0.46766   0.23036   0.00000  Uiso   1.00
C486   C     0.97001   0.53254   0.26923   0.00000  Uiso   1.00
C487   C     0.80389   0.49958   0.33802   0.00000  Uiso   1.00
C488   C     0.86302   0.50105   0.16214   0.00000  Uiso   1.00
C489   C     0.78772   0.50425   0.38917   0.00000  Uiso   1.00
C490   C     0.88060   0.51146   0.11220   0.00000  Uiso   1.00
C491   C     0.72651   0.52134   0.46283   0.00000  Uiso   1.00
C492   C     0.93716   0.54848   0.04664   0.00000  Uiso   1.00
C493   C     0.73924   0.50641   0.41733   0.00000  Uiso   1.00
C494   C     0.92516   0.53106   0.09106   0.00000  Uiso   1.00
C495   C     0.82204   0.50988   0.41060   0.00000  Uiso   1.00
C496   C     0.84896   0.50933   0.08811   0.00000  Uiso   1.00
C497   C     0.80885   0.52810   0.45483   0.00000  Uiso   1.00
C498   C     0.85993   0.53078   0.04571   0.00000  Uiso   1.00
C499   C     0.76074   0.53436   0.48092   0.00000  Uiso   1.00
C500   C     0.90590   0.54673   0.02259   0.00000  Uiso   1.00
C501   C     0.84211   0.53698   0.47606   0.00000  Uiso   1.00
C502   C     0.82665   0.53546   0.02445   0.00000  Uiso   1.00
H503   H     0.68987   0.52042   0.48492   0.00000  Uiso   1.00
H504   H     0.97030   0.56428   0.03122   0.00000  Uiso   1.00
H505   H     0.76980   0.55614   0.08547   0.00000  Uiso   1.00
H506   H     0.89892   0.56018   0.41559   0.00000  Uiso   1.00
N507   N     0.71426   0.50001   0.25001   0.00000  Uiso   1.00
N508   N     0.95241   0.49999   0.24999   0.00000  Uiso   1.00
O509   O     0.79512   0.56108   0.25001   0.00000  Uiso   1.00
O510   O     0.87154   0.43892   0.25000   0.00000  Uiso   1.00
O511   O     0.87157   0.56107   0.25000   0.00000  Uiso   1.00
O512   O     0.79510   0.43893   0.25000   0.00000  Uiso   1.00
O513   O     0.77328   0.50001   0.31613   0.00000  Uiso   1.00
O514   O     0.89339   0.49999   0.18388   0.00000  Uiso   1.00
O515   O     0.84972   0.50000   0.31612   0.00000  Uiso   1.00
O516   O     0.81695   0.50000   0.18388   0.00000  Uiso   1.00
Zn517  Zn    0.78229   0.50001   0.25000   0.00000  Uiso   1.00
Zn518  Zn    0.88438   0.49999   0.25000   0.00000  Uiso   1.00
N519   N     0.70757   0.57639   0.04554   0.00000  Uiso   1.00
H520   H     0.70714   0.58992   0.07680   0.00000  Uiso   1.00
H521   H     0.71100   0.60153   0.02292   0.00000  Uiso   1.00
N522   N     0.96160   0.58301   0.45219   0.00000  Uiso   1.00
H523   H     0.99010   0.56373   0.44852   0.00000  Uiso   1.00
H524   H     0.96350   0.60927   0.47213   0.00000  Uiso   1.00
N525   N     0.80921   0.48076   0.10393   0.00000  Uiso   1.00
H526   H     0.77788   0.49726   0.11846   0.00000  Uiso   1.00
H527   H     0.80770   0.46250   0.07605   0.00000  Uiso   1.00
N528   N     0.86728   0.48972   0.39275   0.00000  Uiso   1.00
H529   H     0.89133   0.50772   0.36671   0.00000  Uiso   1.00
H530   H     0.86354   0.45982   0.38015   0.00000  Uiso   1.00
N531   N     0.95769   0.53439   0.11525   0.00000  Uiso   1.00
H532   H     0.96442   0.56616   0.11934   0.00000  Uiso   1.00
H533   H     0.98881   0.51917   0.09580   0.00000  Uiso   1.00
N534   N     0.70242   0.48987   0.40268   0.00000  Uiso   1.00
H535   H     0.71203   0.46013   0.38800   0.00000  Uiso   1.00
H536   H     0.69753   0.50971   0.37815   0.00000  Uiso   1.00
N537   N     0.83537   0.62047   0.32863   0.00000  Uiso   1.00
H538   H     0.86645   0.62676   0.33512   0.00000  Uiso   1.00
H539   H     0.80640   0.62921   0.35763   0.00000  Uiso   1.00
N540   N     0.82965   0.37923   0.17283   0.00000  Uiso   1.00
H541   H     0.79895   0.37188   0.16603   0.00000  Uiso   1.00
H542   H     0.85897   0.37087   0.14398   0.00000  Uiso   1.00
C543   C     0.83327   0.37782   0.33348   0.00000  Uiso   1.00
O544   O     0.80316   0.40425   0.35071   0.00000  Uiso   1.00
O545   O     0.86627   0.36870   0.35428   0.00000  Uiso   1.00
H546   H     0.86074   0.38498   0.38415   0.00000  Uiso   1.00
C547   C     0.83128   0.62255   0.16860   0.00000  Uiso   1.00
O548   O     0.86460   0.60029   0.14771   0.00000  Uiso   1.00
O549   O     0.79400   0.62722   0.15230   0.00000  Uiso   1.00
H550   H     0.79903   0.61093   0.12253   0.00000  Uiso   1.00
C551   C     0.96789   0.43334   0.20594   0.00000  Uiso   1.00
O552   O     0.95873   0.44018   0.17107   0.00000  Uiso   1.00
O553   O     0.96572   0.39240   0.22260   0.00000  Uiso   1.00
H554   H     0.95485   0.37124   0.20354   0.00000  Uiso   1.00
C555   C     0.70030   0.56973   0.28852   0.00000  Uiso   1.00
O556   O     0.71187   0.56648   0.32251   0.00000  Uiso   1.00
O557   O     0.70126   0.60902   0.26831   0.00000  Uiso   1.00
H558   H     0.71323   0.63217   0.28433   0.00000  Uiso   1.00
N559   N     0.72565   0.43276   0.20909   0.00000  Uiso   1.00
H560   H     0.72812   0.41337   0.23525   0.00000  Uiso   1.00
H561   H     0.75884   0.44357   0.18795   0.00000  Uiso   1.00
N562   N     0.94142   0.56796   0.28940   0.00000  Uiso   1.00
H563   H     0.93970   0.58694   0.26260   0.00000  Uiso   1.00
H564   H     0.90787   0.55782   0.31034   0.00000  Uiso   1.00
C565   C     0.16717   0.91293   0.24941   0.00000  Uiso   1.00
C566   C     0.16594   0.75378   0.25116   0.00000  Uiso   1.00
C567   C     0.11332   0.87978   0.04952   0.00000  Uiso   1.00
C568   C     0.22149   0.88502   0.45185   0.00000  Uiso   1.00
C569   C     0.08176   0.88429   0.02612   0.00000  Uiso   1.00
C570   C     0.25203   0.89374   0.47591   0.00000  Uiso   1.00
C571   C     0.16903   0.97794   0.28924   0.00000  Uiso   1.00
C572   C     0.16311   0.68874   0.21228   0.00000  Uiso   1.00
C573   C     0.16757   0.68826   0.29081   0.00000  Uiso   1.00
C574   C     0.16434   0.97858   0.21092   0.00000  Uiso   1.00
C575   C     0.16482   0.70948   0.25194   0.00000  Uiso   1.00
C576   C     0.16776   0.95728   0.24934   0.00000  Uiso   1.00
C577   C     0.31631   0.80139   0.22967   0.00000  Uiso   1.00
C578   C     0.01734   0.86590   0.26919   0.00000  Uiso   1.00
C579   C     0.03006   0.80099   0.23036   0.00000  Uiso   1.00
C580   C     0.30335   0.86587   0.26923   0.00000  Uiso   1.00
C581   C     0.13722   0.83291   0.33802   0.00000  Uiso   1.00
C582   C     0.19636   0.83438   0.16214   0.00000  Uiso   1.00
C583   C     0.12105   0.83758   0.38917   0.00000  Uiso   1.00
C584   C     0.21393   0.84479   0.11220   0.00000  Uiso   1.00
C585   C     0.05984   0.85467   0.46283   0.00000  Uiso   1.00
C586   C     0.27050   0.88181   0.04664   0.00000  Uiso   1.00
C587   C     0.07257   0.83974   0.41733   0.00000  Uiso   1.00
C588   C     0.25849   0.86439   0.09106   0.00000  Uiso   1.00
C589   C     0.15538   0.84322   0.41060   0.00000  Uiso   1.00
C590   C     0.18230   0.84266   0.08811   0.00000  Uiso   1.00
C591   C     0.14219   0.86143   0.45483   0.00000  Uiso   1.00
C592   C     0.19327   0.86411   0.04571   0.00000  Uiso   1.00
C593   C     0.09408   0.86770   0.48092   0.00000  Uiso   1.00
C594   C     0.23923   0.88006   0.02259   0.00000  Uiso   1.00
C595   C     0.17544   0.87031   0.47606   0.00000  Uiso   1.00
C596   C     0.15998   0.86879   0.02445   0.00000  Uiso   1.00
H597   H     0.02321   0.85375   0.48492   0.00000  Uiso   1.00
H598   H     0.30364   0.89761   0.03122   0.00000  Uiso   1.00
H599   H     0.10314   0.88948   0.08547   0.00000  Uiso   1.00
H600   H     0.23225   0.89351   0.41559   0.00000  Uiso   1.00
N601   N     0.04759   0.83334   0.25001   0.00000  Uiso   1.00
N602   N     0.28574   0.83332   0.24999   0.00000  Uiso   1.00
O603   O     0.12846   0.89442   0.25001   0.00000  Uiso   1.00
O604   O     0.20488   0.77225   0.25000   0.00000  Uiso   1.00
O605   O     0.20490   0.89441   0.25000   0.00000  Uiso   1.00
O606   O     0.12843   0.77226   0.25000   0.00000  Uiso   1.00
O607   O     0.10661   0.83334   0.31613   0.00000  Uiso   1.00
O608   O     0.22672   0.83333   0.18388   0.00000  Uiso   1.00
O609   O     0.18305   0.83333   0.31612   0.00000  Uiso   1.00
O610   O     0.15028   0.83334   0.18388   0.00000  Uiso   1.00
Zn611  Zn    0.11562   0.83334   0.25000   0.00000  Uiso   1.00
Zn612  Zn    0.21771   0.83333   0.25000   0.00000  Uiso   1.00
N613   N     0.04090   0.90972   0.04554   0.00000  Uiso   1.00
H614   H     0.04047   0.92326   0.07680   0.00000  Uiso   1.00
H615   H     0.04434   0.93486   0.02292   0.00000  Uiso   1.00
N616   N     0.29494   0.91634   0.45219   0.00000  Uiso   1.00
H617   H     0.32343   0.89706   0.44852   0.00000  Uiso   1.00
H618   H     0.29683   0.94260   0.47213   0.00000  Uiso   1.00
N619   N     0.14255   0.81409   0.10393   0.00000  Uiso   1.00
H620   H     0.11121   0.83060   0.11846   0.00000  Uiso   1.00
H621   H     0.14103   0.79583   0.07605   0.00000  Uiso   1.00
N622   N     0.20061   0.82305   0.39275   0.00000  Uiso   1.00
H623   H     0.22466   0.84105   0.36671   0.00000  Uiso   1.00
H624   H     0.19687   0.79315   0.38015   0.00000  Uiso   1.00
N625   N     0.29103   0.86773   0.11525   0.00000  Uiso   1.00
H626   H     0.29775   0.89949   0.11934   0.00000  Uiso   1.00
H627   H     0.32215   0.85250   0.09580   0.00000  Uiso   1.00
N628   N     0.03575   0.82321   0.40268   0.00000  Uiso   1.00
H629   H     0.04537   0.79347   0.38800   0.00000  Uiso   1.00
H630   H     0.03086   0.84305   0.37815   0.00000  Uiso   1.00
N631   N     0.16871   0.95380   0.32863   0.00000  Uiso   1.00
H632   H     0.19978   0.96010   0.33512   0.00000  Uiso   1.00
H633   H     0.13974   0.96254   0.35763   0.00000  Uiso   1.00
N634   N     0.16298   0.71257   0.17283   0.00000  Uiso   1.00
H635   H     0.13228   0.70521   0.16603   0.00000  Uiso   1.00
H636   H     0.19230   0.70420   0.14398   0.00000  Uiso   1.00
C637   C     0.16660   0.71115   0.33348   0.00000  Uiso   1.00
O638   O     0.13649   0.73758   0.35071   0.00000  Uiso   1.00
O639   O     0.19960   0.70203   0.35428   0.00000  Uiso   1.00
H640   H     0.19407   0.71832   0.38415   0.00000  Uiso   1.00
C641   C     0.16461   0.95589   0.16860   0.00000  Uiso   1.00
O642   O     0.19793   0.93362   0.14771   0.00000  Uiso   1.00
O643   O     0.12734   0.96055   0.15230   0.00000  Uiso   1.00
H644   H     0.13236   0.94426   0.12253   0.00000  Uiso   1.00
C645   C     0.30122   0.76667   0.20594   0.00000  Uiso   1.00
O646   O     0.29206   0.77352   0.17107   0.00000  Uiso   1.00
O647   O     0.29906   0.72574   0.22260   0.00000  Uiso   1.00
H648   H     0.28819   0.70457   0.20354   0.00000  Uiso   1.00
C649   C     0.03363   0.90307   0.28852   0.00000  Uiso   1.00
O650   O     0.04520   0.89981   0.32251   0.00000  Uiso   1.00
O651   O     0.03459   0.94236   0.26831   0.00000  Uiso   1.00
H652   H     0.04656   0.96550   0.28433   0.00000  Uiso   1.00
N653   N     0.05898   0.76609   0.20909   0.00000  Uiso   1.00
H654   H     0.06145   0.74670   0.23525   0.00000  Uiso   1.00
H655   H     0.09217   0.77691   0.18795   0.00000  Uiso   1.00
N656   N     0.27475   0.90129   0.28940   0.00000  Uiso   1.00
H657   H     0.27303   0.92027   0.26260   0.00000  Uiso   1.00
H658   H     0.24120   0.89116   0.31034   0.00000  Uiso   1.00
C659   C     0.50050   0.91293   0.24941   0.00000  Uiso   1.00
C660   C     0.49927   0.75378   0.25116   0.00000  Uiso   1.00
C661   C     0.44665   0.87978   0.04952   0.00000  Uiso   1.00
C662   C     0.55483   0.88502   0.45185   0.00000  Uiso   1.00
C663   C     0.41509   0.88429   0.02612   0.00000  Uiso   1.00
C664   C     0.58537   0.89374   0.47591   0.00000  Uiso   1.00
C665   C     0.50236   0.97794   0.28924   0.00000  Uiso   1.00
C666   C     0.49644   0.68874   0.21228   0.00000  Uiso   1.00
C667   C     0.50091   0.68826   0.29081   0.00000  Uiso   1.00
C668   C     0.49768   0.97858   0.21092   0.00000  Uiso   1.00
C669   C     0.49815   0.70948   0.25194   0.00000  Uiso   1.00
C670   C     0.50109   0.95728   0.24934   0.00000  Uiso   1.00
C671   C     0.64964   0.80139   0.22967   0.00000  Uiso   1.00
C672   C     0.35067   0.86590   0.26919   0.00000  Uiso   1.00
C673   C     0.36339   0.80099   0.23036   0.00000  Uiso   1.00
C674   C     0.63668   0.86587   0.26923   0.00000  Uiso   1.00
C675   C     0.47055   0.83291   0.33802   0.00000  Uiso   1.00
C676   C     0.52969   0.83438   0.16214   0.00000  Uiso   1.00
C677   C     0.45439   0.83758   0.38917   0.00000  Uiso   1.00
C678   C     0.54727   0.84479   0.11220   0.00000  Uiso   1.00
C679   C     0.39317   0.85467   0.46283   0.00000  Uiso   1.00
C680   C     0.60383   0.88181   0.04664   0.00000  Uiso   1.00
C681   C     0.40591   0.83974   0.41733   0.00000  Uiso   1.00
C682   C     0.59183   0.86439   0.09106   0.00000  Uiso   1.00
C683   C     0.48871   0.84322   0.41060   0.00000  Uiso   1.00
C684   C     0.51563   0.84266   0.08811   0.00000  Uiso   1.00
C685   C     0.47552   0.86143   0.45483   0.00000  Uiso   1.00
C686   C     0.52660   0.86411   0.04571   0.00000  Uiso   1.00
C687   C     0.42741   0.86770   0.48092   0.00000  Uiso   1.00
C688   C     0.57257   0.88006   0.02259   0.00000  Uiso   1.00
C689   C     0.50878   0.87031   0.47606   0.00000  Uiso   1.00
C690   C     0.49331   0.86879   0.02445   0.00000  Uiso   1.00
H691   H     0.35654   0.85375   0.48492   0.00000  Uiso   1.00
H692   H     0.63697   0.89761   0.03122   0.00000  Uiso   1.00
H693   H     0.43647   0.88948   0.08547   0.00000  Uiso   1.00
H694   H     0.56558   0.89351   0.41559   0.00000  Uiso   1.00
N695   N     0.38093   0.83334   0.25001   0.00000  Uiso   1.00
N696   N     0.61907   0.83332   0.24999   0.00000  Uiso   1.00
O697   O     0.46179   0.89442   0.25001   0.00000  Uiso   1.00
O698   O     0.53821   0.77225   0.25000   0.00000  Uiso   1.00
O699   O     0.53823   0.89441   0.25000   0.00000  Uiso   1.00
O700   O     0.46177   0.77226   0.25000   0.00000  Uiso   1.00
O701   O     0.43994   0.83334   0.31613   0.00000  Uiso   1.00
O702   O     0.56006   0.83333   0.18388   0.00000  Uiso   1.00
O703   O     0.51639   0.83333   0.31612   0.00000  Uiso   1.00
O704   O     0.48361   0.83334   0.18388   0.00000  Uiso   1.00
Zn705  Zn    0.44896   0.83334   0.25000   0.00000  Uiso   1.00
Zn706  Zn    0.55104   0.83333   0.25000   0.00000  Uiso   1.00
N707   N     0.37424   0.90972   0.04554   0.00000  Uiso   1.00
H708   H     0.37380   0.92326   0.07680   0.00000  Uiso   1.00
H709   H     0.37767   0.93486   0.02292   0.00000  Uiso   1.00
N710   N     0.62827   0.91634   0.45219   0.00000  Uiso   1.00
H711   H     0.65677   0.89706   0.44852   0.00000  Uiso   1.00
H712   H     0.63017   0.94260   0.47213   0.00000  Uiso   1.00
N713   N     0.47588   0.81409   0.10393   0.00000  Uiso   1.00
H714   H     0.44454   0.83060   0.11846   0.00000  Uiso   1.00
H715   H     0.47437   0.79583   0.07605   0.00000  Uiso   1.00
N716   N     0.53395   0.82305   0.39275   0.00000  Uiso   1.00
H717   H     0.55800   0.84105   0.36671   0.00000  Uiso   1.00
H718   H     0.53021   0.79315   0.38015   0.00000  Uiso   1.00
N719   N     0.62436   0.86773   0.11525   0.00000  Uiso   1.00
H720   H     0.63109   0.89949   0.11934   0.00000  Uiso   1.00
H721   H     0.65548   0.85250   0.09580   0.00000  Uiso   1.00
N722   N     0.36908   0.82321   0.40268   0.00000  Uiso   1.00
H723   H     0.37870   0.79347   0.38800   0.00000  Uiso   1.00
H724   H     0.36419   0.84305   0.37815   0.00000  Uiso   1.00
N725   N     0.50204   0.95380   0.32863   0.00000  Uiso   1.00
H726   H     0.53312   0.96010   0.33512   0.00000  Uiso   1.00
H727   H     0.47307   0.96254   0.35763   0.00000  Uiso   1.00
N728   N     0.49631   0.71257   0.17283   0.00000  Uiso   1.00
H729   H     0.46562   0.70521   0.16603   0.00000  Uiso   1.00
H730   H     0.52563   0.70420   0.14398   0.00000  Uiso   1.00
C731   C     0.49994   0.71115   0.33348   0.00000  Uiso   1.00
O732   O     0.46983   0.73758   0.35071   0.00000  Uiso   1.00
O733   O     0.53294   0.70203   0.35428   0.00000  Uiso   1.00
H734   H     0.52741   0.71832   0.38415   0.00000  Uiso   1.00
C735   C     0.49795   0.95589   0.16860   0.00000  Uiso   1.00
O736   O     0.53126   0.93362   0.14771   0.00000  Uiso   1.00
O737   O     0.46067   0.96055   0.15230   0.00000  Uiso   1.00
H738   H     0.46569   0.94426   0.12253   0.00000  Uiso   1.00
C739   C     0.63456   0.76667   0.20594   0.00000  Uiso   1.00
O740   O     0.62540   0.77352   0.17107   0.00000  Uiso   1.00
O741   O     0.63239   0.72574   0.22260   0.00000  Uiso   1.00
H742   H     0.62152   0.70457   0.20354   0.00000  Uiso   1.00
C743   C     0.36696   0.90307   0.28852   0.00000  Uiso   1.00
O744   O     0.37854   0.89981   0.32251   0.00000  Uiso   1.00
O745   O     0.36792   0.94236   0.26831   0.00000  Uiso   1.00
H746   H     0.37990   0.96550   0.28433   0.00000  Uiso   1.00
N747   N     0.39232   0.76609   0.20909   0.00000  Uiso   1.00
H748   H     0.39479   0.74670   0.23525   0.00000  Uiso   1.00
H749   H     0.42551   0.77691   0.18795   0.00000  Uiso   1.00
N750   N     0.60808   0.90129   0.28940   0.00000  Uiso   1.00
H751   H     0.60636   0.92027   0.26260   0.00000  Uiso   1.00
H752   H     0.57453   0.89116   0.31034   0.00000  Uiso   1.00
C753   C     0.83383   0.91293   0.24941   0.00000  Uiso   1.00
C754   C     0.83260   0.75378   0.25116   0.00000  Uiso   1.00
C755   C     0.77998   0.87978   0.04952   0.00000  Uiso   1.00
C756   C     0.88816   0.88502   0.45185   0.00000  Uiso   1.00
C757   C     0.74842   0.88429   0.02612   0.00000  Uiso   1.00
C758   C     0.91870   0.89374   0.47591   0.00000  Uiso   1.00
C759   C     0.83569   0.97794   0.28924   0.00000  Uiso   1.00
C760   C     0.82977   0.68874   0.21228   0.00000  Uiso   1.00
C761   C     0.83424   0.68826   0.29081   0.00000  Uiso   1.00
C762   C     0.83101   0.97858   0.21092   0.00000  Uiso   1.00
C763   C     0.83148   0.70948   0.25194   0.00000  Uiso   1.00
C764   C     0.83443   0.95728   0.24934   0.00000  Uiso   1.00
C765   C     0.98298   0.80139   0.22967   0.00000  Uiso   1.00
C766   C     0.68401   0.86590   0.26919   0.00000  Uiso   1.00
C767   C     0.69672   0.80099   0.23036   0.00000  Uiso   1.00
C768   C     0.97001   0.86587   0.26923   0.00000  Uiso   1.00
C769   C     0.80389   0.83291   0.33802   0.00000  Uiso   1.00
C770   C     0.86302   0.83438   0.16214   0.00000  Uiso   1.00
C771   C     0.78772   0.83758   0.38917   0.00000  Uiso   1.00
C772   C     0.88060   0.84479   0.11220   0.00000  Uiso   1.00
C773   C     0.72651   0.85467   0.46283   0.00000  Uiso   1.00
C774   C     0.93716   0.88181   0.04664   0.00000  Uiso   1.00
C775   C     0.73924   0.83974   0.41733   0.00000  Uiso   1.00
C776   C     0.92516   0.86439   0.09106   0.00000  Uiso   1.00
C777   C     0.82204   0.84322   0.41060   0.00000  Uiso   1.00
C778   C     0.84896   0.84266   0.08811   0.00000  Uiso   1.00
C779   C     0.80885   0.86143   0.45483   0.00000  Uiso   1.00
C780   C     0.85993   0.86411   0.04571   0.00000  Uiso   1.00
C781   C     0.76074   0.86770   0.48092   0.00000  Uiso   1.00
C782   C     0.90590   0.88006   0.02259   0.00000  Uiso   1.00
C783   C     0.84211   0.87031   0.47606   0.00000  Uiso   1.00
C784   C     0.82665   0.86879   0.02445   0.00000  Uiso   1.00
H785   H     0.68987   0.85375   0.48492   0.00000  Uiso   1.00
H786   H     0.97030   0.89761   0.03122   0.00000  Uiso   1.00
H787   H     0.76980   0.88948   0.08547   0.00000  Uiso   1.00
H788   H     0.89892   0.89351   0.41559   0.00000  Uiso   1.00
N789   N     0.71426   0.83334   0.25001   0.00000  Uiso   1.00
N790   N     0.95241   0.83332   0.24999   0.00000  Uiso   1.00
O791   O     0.79512   0.89442   0.25001   0.00000  Uiso   1.00
O792   O     0.87154   0.77225   0.25000   0.00000  Uiso   1.00
O793   O     0.87157   0.89441   0.25000   0.00000  Uiso   1.00
O794   O     0.79510   0.77226   0.25000   0.00000  Uiso   1.00
O795   O     0.77328   0.83334   0.31613   0.00000  Uiso   1.00
O796   O     0.89339   0.83333   0.18388   0.00000  Uiso   1.00
O797   O     0.84972   0.83333   0.31612   0.00000  Uiso   1.00
O798   O     0.81695   0.83334   0.18388   0.00000  Uiso   1.00
Zn799  Zn    0.78229   0.83334   0.25000   0.00000  Uiso   1.00
Zn800  Zn    0.88438   0.83333   0.25000   0.00000  Uiso   1.00
N801   N     0.70757   0.90972   0.04554   0.00000  Uiso   1.00
H802   H     0.70714   0.92326   0.07680   0.00000  Uiso   1.00
H803   H     0.71100   0.93486   0.02292   0.00000  Uiso   1.00
N804   N     0.96160   0.91634   0.45219   0.00000  Uiso   1.00
H805   H     0.99010   0.89706   0.44852   0.00000  Uiso   1.00
H806   H     0.96350   0.94260   0.47213   0.00000  Uiso   1.00
N807   N     0.80921   0.81409   0.10393   0.00000  Uiso   1.00
H808   H     0.77788   0.83060   0.11846   0.00000  Uiso   1.00
H809   H     0.80770   0.79583   0.07605   0.00000  Uiso   1.00
N810   N     0.86728   0.82305   0.39275   0.00000  Uiso   1.00
H811   H     0.89133   0.84105   0.36671   0.00000  Uiso   1.00
H812   H     0.86354   0.79315   0.38015   0.00000  Uiso   1.00
N813   N     0.95769   0.86773   0.11525   0.00000  Uiso   1.00
H814   H     0.96442   0.89949   0.11934   0.00000  Uiso   1.00
H815   H     0.98881   0.85250   0.09580   0.00000  Uiso   1.00
N816   N     0.70242   0.82321   0.40268   0.00000  Uiso   1.00
H817   H     0.71203   0.79347   0.38800   0.00000  Uiso   1.00
H818   H     0.69753   0.84305   0.37815   0.00000  Uiso   1.00
N819   N     0.83537   0.95380   0.32863   0.00000  Uiso   1.00
H820   H     0.86645   0.96010   0.33512   0.00000  Uiso   1.00
H821   H     0.80640   0.96254   0.35763   0.00000  Uiso   1.00
N822   N     0.82965   0.71257   0.17283   0.00000  Uiso   1.00
H823   H     0.79895   0.70521   0.16603   0.00000  Uiso   1.00
H824   H     0.85897   0.70420   0.14398   0.00000  Uiso   1.00
C825   C     0.83327   0.71115   0.33348   0.00000  Uiso   1.00
O826   O     0.80316   0.73758   0.35071   0.00000  Uiso   1.00
O827   O     0.86627   0.70203   0.35428   0.00000  Uiso   1.00
H828   H     0.86074   0.71832   0.38415   0.00000  Uiso   1.00
C829   C     0.83128   0.95589   0.16860   0.00000  Uiso   1.00
O830   O     0.86460   0.93362   0.14771   0.00000  Uiso   1.00
O831   O     0.79400   0.96055   0.15230   0.00000  Uiso   1.00
H832   H     0.79903   0.94426   0.12253   0.00000  Uiso   1.00
C833   C     0.96789   0.76667   0.20594   0.00000  Uiso   1.00
O834   O     0.95873   0.77352   0.17107   0.00000  Uiso   1.00
O835   O     0.96572   0.72574   0.22260   0.00000  Uiso   1.00
H836   H     0.95485   0.70457   0.20354   0.00000  Uiso   1.00
C837   C     0.70030   0.90307   0.28852   0.00000  Uiso   1.00
O838   O     0.71187   0.89981   0.32251   0.00000  Uiso   1.00
O839   O     0.70126   0.94236   0.26831   0.00000  Uiso   1.00
H840   H     0.71323   0.96550   0.28433   0.00000  Uiso   1.00
N841   N     0.72565   0.76609   0.20909   0.00000  Uiso   1.00
H842   H     0.72812   0.74670   0.23525   0.00000  Uiso   1.00
H843   H     0.75884   0.77691   0.18795   0.00000  Uiso   1.00
N844   N     0.94142   0.90129   0.28940   0.00000  Uiso   1.00
H845   H     0.93970   0.92027   0.26260   0.00000  Uiso   1.00
H846   H     0.90787   0.89116   0.31034   0.00000  Uiso   1.00
C847   C     0.16717   0.24626   0.74941   0.00000  Uiso   1.00
C848   C     0.16594   0.08711   0.75116   0.00000  Uiso   1.00
C849   C     0.11332   0.21311   0.54952   0.00000  Uiso   1.00
C850   C     0.22149   0.21836   0.95185   0.00000  Uiso   1.00
C851   C     0.08176   0.21763   0.52612   0.00000  Uiso   1.00
C852   C     0.25203   0.22708   0.97591   0.00000  Uiso   1.00
C853   C     0.16903   0.31127   0.78924   0.00000  Uiso   1.00
C854   C     0.16311   0.02207   0.71228   0.00000  Uiso   1.00
C855   C     0.16757   0.02159   0.79081   0.00000  Uiso   1.00
C856   C     0.16434   0.31191   0.71092   0.00000  Uiso   1.00
C857   C     0.16482   0.04282   0.75194   0.00000  Uiso   1.00
C858   C     0.16776   0.29061   0.74934   0.00000  Uiso   1.00
C859   C     0.31631   0.13472   0.72967   0.00000  Uiso   1.00
C860   C     0.01734   0.19924   0.76919   0.00000  Uiso   1.00
C861   C     0.03006   0.13433   0.73036   0.00000  Uiso   1.00
C862   C     0.30335   0.19921   0.76923   0.00000  Uiso   1.00
C863   C     0.13722   0.16625   0.83802   0.00000  Uiso   1.00
C864   C     0.19636   0.16772   0.66214   0.00000  Uiso   1.00
C865   C     0.12105   0.17091   0.88917   0.00000  Uiso   1.00
C866   C     0.21393   0.17813   0.61220   0.00000  Uiso   1.00
C867   C     0.05984   0.18800   0.96283   0.00000  Uiso   1.00
C868   C     0.27050   0.21514   0.54664   0.00000  Uiso   1.00
C869   C     0.07257   0.17307   0.91733   0.00000  Uiso   1.00
C870   C     0.25849   0.19773   0.59106   0.00000  Uiso   1.00
C871   C     0.15538   0.17655   0.91060   0.00000  Uiso   1.00
C872   C     0.18230   0.17599   0.58811   0.00000  Uiso   1.00
C873   C     0.14219   0.19477   0.95483   0.00000  Uiso   1.00
C874   C     0.19327   0.19744   0.54571   0.00000  Uiso   1.00
C875   C     0.09408   0.20103   0.98092   0.00000  Uiso   1.00
C876   C     0.23923   0.21340   0.52259   0.00000  Uiso   1.00
C877   C     0.17544   0.20365   0.97606   0.00000  Uiso   1.00
C878   C     0.15998   0.20212   0.52445   0.00000  Uiso   1.00
H879   H     0.02321   0.18708   0.98492   0.00000  Uiso   1.00
H880   H     0.30364   0.23095   0.53122   0.00000  Uiso   1.00
H881   H     0.10314   0.22281   0.58547   0.00000  Uiso   1.00
H882   H     0.23225   0.22685   0.91559   0.00000  Uiso   1.00
N883   N     0.04759   0.16668   0.75001   0.00000  Uiso   1.00
N884   N     0.28574   0.16666   0.74999   0.00000  Uiso   1.00
O885   O     0.12846   0.22775   0.75001   0.00000  Uiso   1.00
O886   O     0.20488   0.10558   0.75000   0.00000  Uiso   1.00
O887   O     0.20490   0.22774   0.75000   0.00000  Uiso   1.00
O888   O     0.12843   0.10559   0.75000   0.00000  Uiso   1.00
O889   O     0.10661   0.16667   0.81613   0.00000  Uiso   1.00
O890   O     0.22672   0.16666   0.68388   0.00000  Uiso   1.00
O891   O     0.18305   0.16666   0.81612   0.00000  Uiso   1.00
O892   O     0.15028   0.16667   0.68388   0.00000  Uiso   1.00
Zn893  Zn    0.11562   0.16667   0.75000   0.00000  Uiso   1.00
Zn894  Zn    0.21771   0.16666   0.75000   0.00000  Uiso   1.00
N895   N     0.04090   0.24306   0.54554   0.00000  Uiso   1.00
H896   H     0.04047   0.25659   0.57680   0.00000  Uiso   1.00
H897   H     0.04434   0.26819   0.52292   0.00000  Uiso   1.00
N898   N     0.29494   0.24967   0.95219   0.00000  Uiso   1.00
H899   H     0.32343   0.23040   0.94852   0.00000  Uiso   1.00
H900   H     0.29683   0.27593   0.97213   0.00000  Uiso   1.00
N901   N     0.14255   0.14742   0.60393   0.00000  Uiso   1.00
H902   H     0.11121   0.16393   0.61846   0.00000  Uiso   1.00
H903   H     0.14103   0.12917   0.57605   0.00000  Uiso   1.00
N904   N     0.20061   0.15639   0.89275   0.00000  Uiso   1.00
H905   H     0.22466   0.17439   0.86671   0.00000  Uiso   1.00
H906   H     0.19687   0.12649   0.88015   0.00000  Uiso   1.00
N907   N     0.29103   0.20106   0.61525   0.00000  Uiso   1.00
H908   H     0.29775   0.23283   0.61934   0.00000  Uiso   1.00
H909   H     0.32215   0.18583   0.59580   0.00000  Uiso   1.00
N910   N     0.03575   0.15654   0.90268   0.00000  Uiso   1.00
H911   H     0.04537   0.12680   0.88800   0.00000  Uiso   1.00
H912   H     0.03086   0.17638   0.87815   0.00000  Uiso   1.00
N913   N     0.16871   0.28714   0.82863   0.00000  Uiso   1.00
H914   H     0.19978   0.29343   0.83512   0.00000  Uiso   1.00
H915   H     0.13974   0.29588   0.85763   0.00000  Uiso   1.00
N916   N     0.16298   0.04590   0.67283   0.00000  Uiso   1.00
H917   H     0.13228   0.03855   0.66603   0.00000  Uiso   1.00
H918   H     0.19230   0.03754   0.64398   0.00000  Uiso   1.00
C919   C     0.16660   0.04449   0.83348   0.00000  Uiso   1.00
O920   O     0.13649   0.07092   0.85071   0.00000  Uiso   1.00
O921   O     0.19960   0.03536   0.85428   0.00000  Uiso   1.00
H922   H     0.19407   0.05165   0.88415   0.00000  Uiso   1.00
C923   C     0.16461   0.28922   0.66860   0.00000  Uiso   1.00
O924   O     0.19793   0.26696   0.64771   0.00000  Uiso   1.00
O925   O     0.12734   0.29388   0.65230   0.00000  Uiso   1.00
H926   H     0.13236   0.27759   0.62253   0.00000  Uiso   1.00
C927   C     0.30122   0.10001   0.70594   0.00000  Uiso   1.00
O928   O     0.29206   0.10685   0.67107   0.00000  Uiso   1.00
O929   O     0.29906   0.05907   0.72260   0.00000  Uiso   1.00
H930   H     0.28819   0.03791   0.70354   0.00000  Uiso   1.00
C931   C     0.03363   0.23640   0.78852   0.00000  Uiso   1.00
O932   O     0.04520   0.23315   0.82251   0.00000  Uiso   1.00
O933   O     0.03459   0.27569   0.76831   0.00000  Uiso   1.00
H934   H     0.04656   0.29883   0.78433   0.00000  Uiso   1.00
N935   N     0.05898   0.09942   0.70909   0.00000  Uiso   1.00
H936   H     0.06145   0.08004   0.73525   0.00000  Uiso   1.00
H937   H     0.09217   0.11024   0.68795   0.00000  Uiso   1.00
N938   N     0.27475   0.23463   0.78940   0.00000  Uiso   1.00
H939   H     0.27303   0.25360   0.76260   0.00000  Uiso   1.00
H940   H     0.24120   0.22449   0.81034   0.00000  Uiso   1.00
C941   C     0.50050   0.24626   0.74941   0.00000  Uiso   1.00
C942   C     0.49927   0.08711   0.75116   0.00000  Uiso   1.00
C943   C     0.44665   0.21311   0.54952   0.00000  Uiso   1.00
C944   C     0.55483   0.21836   0.95185   0.00000  Uiso   1.00
C945   C     0.41509   0.21763   0.52612   0.00000  Uiso   1.00
C946   C     0.58537   0.22708   0.97591   0.00000  Uiso   1.00
C947   C     0.50236   0.31127   0.78924   0.00000  Uiso   1.00
C948   C     0.49644   0.02207   0.71228   0.00000  Uiso   1.00
C949   C     0.50091   0.02159   0.79081   0.00000  Uiso   1.00
C950   C     0.49768   0.31191   0.71092   0.00000  Uiso   1.00
C951   C     0.49815   0.04282   0.75194   0.00000  Uiso   1.00
C952   C     0.50109   0.29061   0.74934   0.00000  Uiso   1.00
C953   C     0.64964   0.13472   0.72967   0.00000  Uiso   1.00
C954   C     0.35067   0.19924   0.76919   0.00000  Uiso   1.00
C955   C     0.36339   0.13433   0.73036   0.00000  Uiso   1.00
C956   C     0.63668   0.19921   0.76923   0.00000  Uiso   1.00
C957   C     0.47055   0.16625   0.83802   0.00000  Uiso   1.00
C958   C     0.52969   0.16772   0.66214   0.00000  Uiso   1.00
C959   C     0.45439   0.17091   0.88917   0.00000  Uiso   1.00
C960   C     0.54727   0.17813   0.61220   0.00000  Uiso   1.00
C961   C     0.39317   0.18800   0.96283   0.00000  Uiso   1.00
C962   C     0.60383   0.21514   0.54664   0.00000  Uiso   1.00
C963   C     0.40591   0.17307   0.91733   0.00000  Uiso   1.00
C964   C     0.59183   0.19773   0.59106   0.00000  Uiso   1.00
C965   C     0.48871   0.17655   0.91060   0.00000  Uiso   1.00
C966   C     0.51563   0.17599   0.58811   0.00000  Uiso   1.00
C967   C     0.47552   0.19477   0.95483   0.00000  Uiso   1.00
C968   C     0.52660   0.19744   0.54571   0.00000  Uiso   1.00
C969   C     0.42741   0.20103   0.98092   0.00000  Uiso   1.00
C970   C     0.57257   0.21340   0.52259   0.00000  Uiso   1.00
C971   C     0.50878   0.20365   0.97606   0.00000  Uiso   1.00
C972   C     0.49331   0.20212   0.52445   0.00000  Uiso   1.00
H973   H     0.35654   0.18708   0.98492   0.00000  Uiso   1.00
H974   H     0.63697   0.23095   0.53122   0.00000  Uiso   1.00
H975   H     0.43647   0.22281   0.58547   0.00000  Uiso   1.00
H976   H     0.56558   0.22685   0.91559   0.00000  Uiso   1.00
N977   N     0.38093   0.16668   0.75001   0.00000  Uiso   1.00
N978   N     0.61907   0.16666   0.74999   0.00000  Uiso   1.00
O979   O     0.46179   0.22775   0.75001   0.00000  Uiso   1.00
O980   O     0.53821   0.10558   0.75000   0.00000  Uiso   1.00
O981   O     0.53823   0.22774   0.75000   0.00000  Uiso   1.00
O982   O     0.46177   0.10559   0.75000   0.00000  Uiso   1.00
O983   O     0.43994   0.16667   0.81613   0.00000  Uiso   1.00
O984   O     0.56006   0.16666   0.68388   0.00000  Uiso   1.00
O985   O     0.51639   0.16666   0.81612   0.00000  Uiso   1.00
O986   O     0.48361   0.16667   0.68388   0.00000  Uiso   1.00
Zn987  Zn    0.44896   0.16667   0.75000   0.00000  Uiso   1.00
Zn988  Zn    0.55104   0.16666   0.75000   0.00000  Uiso   1.00
N989   N     0.37424   0.24306   0.54554   0.00000  Uiso   1.00
H990   H     0.37380   0.25659   0.57680   0.00000  Uiso   1.00
H991   H     0.37767   0.26819   0.52292   0.00000  Uiso   1.00
N992   N     0.62827   0.24967   0.95219   0.00000  Uiso   1.00
H993   H     0.65677   0.23040   0.94852   0.00000  Uiso   1.00
H994   H     0.63017   0.27593   0.97213   0.00000  Uiso   1.00
N995   N     0.47588   0.14742   0.60393   0.00000  Uiso   1.00
H996   H     0.44454   0.16393   0.61846   0.00000  Uiso   1.00
H997   H     0.47437   0.12917   0.57605   0.00000  Uiso   1.00
N998   N     0.53395   0.15639   0.89275   0.00000  Uiso   1.00
H999   H     0.55800   0.17439   0.86671   0.00000  Uiso   1.00
H1000  H     0.53021   0.12649   0.88015   0.00000  Uiso   1.00
N1001  N     0.62436   0.20106   0.61525   0.00000  Uiso   1.00
H1002  H     0.63109   0.23283   0.61934   0.00000  Uiso   1.00
H1003  H     0.65548   0.18583   0.59580   0.00000  Uiso   1.00
N1004  N     0.36908   0.15654   0.90268   0.00000  Uiso   1.00
H1005  H     0.37870   0.12680   0.88800   0.00000  Uiso   1.00
H1006  H     0.36419   0.17638   0.87815   0.00000  Uiso   1.00
N1007  N     0.50204   0.28714   0.82863   0.00000  Uiso   1.00
H1008  H     0.53312   0.29343   0.83512   0.00000  Uiso   1.00
H1009  H     0.47307   0.29588   0.85763   0.00000  Uiso   1.00
N1010  N     0.49631   0.04590   0.67283   0.00000  Uiso   1.00
H1011  H     0.46562   0.03855   0.66603   0.00000  Uiso   1.00
H1012  H     0.52563   0.03754   0.64398   0.00000  Uiso   1.00
C1013  C     0.49994   0.04449   0.83348   0.00000  Uiso   1.00
O1014  O     0.46983   0.07092   0.85071   0.00000  Uiso   1.00
O1015  O     0.53294   0.03536   0.85428   0.00000  Uiso   1.00
H1016  H     0.52741   0.05165   0.88415   0.00000  Uiso   1.00
C1017  C     0.49795   0.28922   0.66860   0.00000  Uiso   1.00
O1018  O     0.53126   0.26696   0.64771   0.00000  Uiso   1.00
O1019  O     0.46067   0.29388   0.65230   0.00000  Uiso   1.00
H1020  H     0.46569   0.27759   0.62253   0.00000  Uiso   1.00
C1021  C     0.63456   0.10001   0.70594   0.00000  Uiso   1.00
O1022  O     0.62540   0.10685   0.67107   0.00000  Uiso   1.00
O1023  O     0.63239   0.05907   0.72260   0.00000  Uiso   1.00
H1024  H     0.62152   0.03791   0.70354   0.00000  Uiso   1.00
C1025  C     0.36696   0.23640   0.78852   0.00000  Uiso   1.00
O1026  O     0.37854   0.23315   0.82251   0.00000  Uiso   1.00
O1027  O     0.36792   0.27569   0.76831   0.00000  Uiso   1.00
H1028  H     0.37990   0.29883   0.78433   0.00000  Uiso   1.00
N1029  N     0.39232   0.09942   0.70909   0.00000  Uiso   1.00
H1030  H     0.39479   0.08004   0.73525   0.00000  Uiso   1.00
H1031  H     0.42551   0.11024   0.68795   0.00000  Uiso   1.00
N1032  N     0.60808   0.23463   0.78940   0.00000  Uiso   1.00
H1033  H     0.60636   0.25360   0.76260   0.00000  Uiso   1.00
H1034  H     0.57453   0.22449   0.81034   0.00000  Uiso   1.00
C1035  C     0.83383   0.24626   0.74941   0.00000  Uiso   1.00
C1036  C     0.83260   0.08711   0.75116   0.00000  Uiso   1.00
C1037  C     0.77998   0.21311   0.54952   0.00000  Uiso   1.00
C1038  C     0.88816   0.21836   0.95185   0.00000  Uiso   1.00
C1039  C     0.74842   0.21763   0.52612   0.00000  Uiso   1.00
C1040  C     0.91870   0.22708   0.97591   0.00000  Uiso   1.00
C1041  C     0.83569   0.31127   0.78924   0.00000  Uiso   1.00
C1042  C     0.82977   0.02207   0.71228   0.00000  Uiso   1.00
C1043  C     0.83424   0.02159   0.79081   0.00000  Uiso   1.00
C1044  C     0.83101   0.31191   0.71092   0.00000  Uiso   1.00
C1045  C     0.83148   0.04282   0.75194   0.00000  Uiso   1.00
C1046  C     0.83443   0.29061   0.74934   0.00000  Uiso   1.00
C1047  C     0.98298   0.13472   0.72967   0.00000  Uiso   1.00
C1048  C     0.68401   0.19924   0.76919   0.00000  Uiso   1.00
C1049  C     0.69672   0.13433   0.73036   0.00000  Uiso   1.00
C1050  C     0.97001   0.19921   0.76923   0.00000  Uiso   1.00
C1051  C     0.80389   0.16625   0.83802   0.00000  Uiso   1.00
C1052  C     0.86302   0.16772   0.66214   0.00000  Uiso   1.00
C1053  C     0.78772   0.17091   0.88917   0.00000  Uiso   1.00
C1054  C     0.88060   0.17813   0.61220   0.00000  Uiso   1.00
C1055  C     0.72651   0.18800   0.96283   0.00000  Uiso   1.00
C1056  C     0.93716   0.21514   0.54664   0.00000  Uiso   1.00
C1057  C     0.73924   0.17307   0.91733   0.00000  Uiso   1.00
C1058  C     0.92516   0.19773   0.59106   0.00000  Uiso   1.00
C1059  C     0.82204   0.17655   0.91060   0.00000  Uiso   1.00
C1060  C     0.84896   0.17599   0.58811   0.00000  Uiso   1.00
C1061  C     0.80885   0.19477   0.95483   0.00000  Uiso   1.00
C1062  C     0.85993   0.19744   0.54571   0.00000  Uiso   1.00
C1063  C     0.76074   0.20103   0.98092   0.00000  Uiso   1.00
C1064  C     0.90590   0.21340   0.52259   0.00000  Uiso   1.00
C1065  C     0.84211   0.20365   0.97606   0.00000  Uiso   1.00
C1066  C     0.82665   0.20212   0.52445   0.00000  Uiso   1.00
H1067  H     0.68987   0.18708   0.98492   0.00000  Uiso   1.00
H1068  H     0.97030   0.23095   0.53122   0.00000  Uiso   1.00
H1069  H     0.76980   0.22281   0.58547   0.00000  Uiso   1.00
H1070  H     0.89892   0.22685   0.91559   0.00000  Uiso   1.00
N1071  N     0.71426   0.16668   0.75001   0.00000  Uiso   1.00
N1072  N     0.95241   0.16666   0.74999   0.00000  Uiso   1.00
O1073  O     0.79512   0.22775   0.75001   0.00000  Uiso   1.00
O1074  O     0.87154   0.10558   0.75000   0.00000  Uiso   1.00
O1075  O     0.87157   0.22774   0.75000   0.00000  Uiso   1.00
O1076  O     0.79510   0.10559   0.75000   0.00000  Uiso   1.00
O1077  O     0.77328   0.16667   0.81613   0.00000  Uiso   1.00
O1078  O     0.89339   0.16666   0.68388   0.00000  Uiso   1.00
O1079  O     0.84972   0.16666   0.81612   0.00000  Uiso   1.00
O1080  O     0.81695   0.16667   0.68388   0.00000  Uiso   1.00
Zn1081 Zn    0.78229   0.16667   0.75000   0.00000  Uiso   1.00
Zn1082 Zn    0.88438   0.16666   0.75000   0.00000  Uiso   1.00
N1083  N     0.70757   0.24306   0.54554   0.00000  Uiso   1.00
H1084  H     0.70714   0.25659   0.57680   0.00000  Uiso   1.00
H1085  H     0.71100   0.26819   0.52292   0.00000  Uiso   1.00
N1086  N     0.96160   0.24967   0.95219   0.00000  Uiso   1.00
H1087  H     0.99010   0.23040   0.94852   0.00000  Uiso   1.00
H1088  H     0.96350   0.27593   0.97213   0.00000  Uiso   1.00
N1089  N     0.80921   0.14742   0.60393   0.00000  Uiso   1.00
H1090  H     0.77788   0.16393   0.61846   0.00000  Uiso   1.00
H1091  H     0.80770   0.12917   0.57605   0.00000  Uiso   1.00
N1092  N     0.86728   0.15639   0.89275   0.00000  Uiso   1.00
H1093  H     0.89133   0.17439   0.86671   0.00000  Uiso   1.00
H1094  H     0.86354   0.12649   0.88015   0.00000  Uiso   1.00
N1095  N     0.95769   0.20106   0.61525   0.00000  Uiso   1.00
H1096  H     0.96442   0.23283   0.61934   0.00000  Uiso   1.00
H1097  H     0.98881   0.18583   0.59580   0.00000  Uiso   1.00
N1098  N     0.70242   0.15654   0.90268   0.00000  Uiso   1.00
H1099  H     0.71203   0.12680   0.88800   0.00000  Uiso   1.00
H1100  H     0.69753   0.17638   0.87815   0.00000  Uiso   1.00
N1101  N     0.83537   0.28714   0.82863   0.00000  Uiso   1.00
H1102  H     0.86645   0.29343   0.83512   0.00000  Uiso   1.00
H1103  H     0.80640   0.29588   0.85763   0.00000  Uiso   1.00
N1104  N     0.82965   0.04590   0.67283   0.00000  Uiso   1.00
H1105  H     0.79895   0.03855   0.66603   0.00000  Uiso   1.00
H1106  H     0.85897   0.03754   0.64398   0.00000  Uiso   1.00
C1107  C     0.83327   0.04449   0.83348   0.00000  Uiso   1.00
O1108  O     0.80316   0.07092   0.85071   0.00000  Uiso   1.00
O1109  O     0.86627   0.03536   0.85428   0.00000  Uiso   1.00
H1110  H     0.86074   0.05165   0.88415   0.00000  Uiso   1.00
C1111  C     0.83128   0.28922   0.66860   0.00000  Uiso   1.00
O1112  O     0.86460   0.26696   0.64771   0.00000  Uiso   1.00
O1113  O     0.79400   0.29388   0.65230   0.00000  Uiso   1.00
H1114  H     0.79903   0.27759   0.62253   0.00000  Uiso   1.00
C1115  C     0.96789   0.10001   0.70594   0.00000  Uiso   1.00
O1116  O     0.95873   0.10685   0.67107   0.00000  Uiso   1.00
O1117  O     0.96572   0.05907   0.72260   0.00000  Uiso   1.00
H1118  H     0.95485   0.03791   0.70354   0.00000  Uiso   1.00
C1119  C     0.70030   0.23640   0.78852   0.00000  Uiso   1.00
O1120  O     0.71187   0.23315   0.82251   0.00000  Uiso   1.00
O1121  O     0.70126   0.27569   0.76831   0.00000  Uiso   1.00
H1122  H     0.71323   0.29883   0.78433   0.00000  Uiso   1.00
N1123  N     0.72565   0.09942   0.70909   0.00000  Uiso   1.00
H1124  H     0.72812   0.08004   0.73525   0.00000  Uiso   1.00
H1125  H     0.75884   0.11024   0.68795   0.00000  Uiso   1.00
N1126  N     0.94142   0.23463   0.78940   0.00000  Uiso   1.00
H1127  H     0.93970   0.25360   0.76260   0.00000  Uiso   1.00
H1128  H     0.90787   0.22449   0.81034   0.00000  Uiso   1.00
C1129  C     0.16717   0.57960   0.74941   0.00000  Uiso   1.00
C1130  C     0.16594   0.42044   0.75116   0.00000  Uiso   1.00
C1131  C     0.11332   0.54644   0.54952   0.00000  Uiso   1.00
C1132  C     0.22149   0.55169   0.95185   0.00000  Uiso   1.00
C1133  C     0.08176   0.55096   0.52612   0.00000  Uiso   1.00
C1134  C     0.25203   0.56041   0.97591   0.00000  Uiso   1.00
C1135  C     0.16903   0.64461   0.78924   0.00000  Uiso   1.00
C1136  C     0.16311   0.35541   0.71228   0.00000  Uiso   1.00
C1137  C     0.16757   0.35492   0.79081   0.00000  Uiso   1.00
C1138  C     0.16434   0.64524   0.71092   0.00000  Uiso   1.00
C1139  C     0.16482   0.37615   0.75194   0.00000  Uiso   1.00
C1140  C     0.16776   0.62394   0.74934   0.00000  Uiso   1.00
C1141  C     0.31631   0.46806   0.72967   0.00000  Uiso   1.00
C1142  C     0.01734   0.53257   0.76919   0.00000  Uiso   1.00
C1143  C     0.03006   0.46766   0.73036   0.00000  Uiso   1.00
C1144  C     0.30335   0.53254   0.76923   0.00000  Uiso   1.00
C1145  C     0.13722   0.49958   0.83802   0.00000  Uiso   1.00
C1146  C     0.19636   0.50105   0.66214   0.00000  Uiso   1.00
C1147  C     0.12105   0.50425   0.88917   0.00000  Uiso   1.00
C1148  C     0.21393   0.51146   0.61220   0.00000  Uiso   1.00
C1149  C     0.05984   0.52134   0.96283   0.00000  Uiso   1.00
C1150  C     0.27050   0.54848   0.54664   0.00000  Uiso   1.00
C1151  C     0.07257   0.50641   0.91733   0.00000  Uiso   1.00
C1152  C     0.25849   0.53106   0.59106   0.00000  Uiso   1.00
C1153  C     0.15538   0.50988   0.91060   0.00000  Uiso   1.00
C1154  C     0.18230   0.50933   0.58811   0.00000  Uiso   1.00
C1155  C     0.14219   0.52810   0.95483   0.00000  Uiso   1.00
C1156  C     0.19327   0.53078   0.54571   0.00000  Uiso   1.00
C1157  C     0.09408   0.53436   0.98092   0.00000  Uiso   1.00
C1158  C     0.23923   0.54673   0.52259   0.00000  Uiso   1.00
C1159  C     0.17544   0.53698   0.97606   0.00000  Uiso   1.00
C1160  C     0.15998   0.53546   0.52445   0.00000  Uiso   1.00
H1161  H     0.02321   0.52042   0.98492   0.00000  Uiso   1.00
H1162  H     0.30364   0.56428   0.53122   0.00000  Uiso   1.00
H1163  H     0.10314   0.55614   0.58547   0.00000  Uiso   1.00
H1164  H     0.23225   0.56018   0.91559   0.00000  Uiso   1.00
N1165  N     0.04759   0.50001   0.75001   0.00000  Uiso   1.00
N1166  N     0.28574   0.49999   0.74999   0.00000  Uiso   1.00
O1167  O     0.12846   0.56108   0.75001   0.00000  Uiso   1.00
O1168  O     0.20488   0.43892   0.75000   0.00000  Uiso   1.00
O1169  O     0.20490   0.56107   0.75000   0.00000  Uiso   1.00
O1170  O     0.12843   0.43893   0.75000   0.00000  Uiso   1.00
O1171  O     0.10661   0.50001   0.81613   0.00000  Uiso   1.00
O1172  O     0.22672   0.49999   0.68388   0.00000  Uiso   1.00
O1173  O     0.18305   0.50000   0.81612   0.00000  Uiso   1.00
O1174  O     0.15028   0.50000   0.68388   0.00000  Uiso   1.00
Zn1175 Zn    0.11562   0.50001   0.75000   0.00000  Uiso   1.00
Zn1176 Zn    0.21771   0.49999   0.75000   0.00000  Uiso   1.00
N1177  N     0.04090   0.57639   0.54554   0.00000  Uiso   1.00
H1178  H     0.04047   0.58992   0.57680   0.00000  Uiso   1.00
H1179  H     0.04434   0.60153   0.52292   0.00000  Uiso   1.00
N1180  N     0.29494   0.58301   0.95219   0.00000  Uiso   1.00
H1181  H     0.32343   0.56373   0.94852   0.00000  Uiso   1.00
H1182  H     0.29683   0.60927   0.97213   0.00000  Uiso   1.00
N1183  N     0.14255   0.48076   0.60393   0.00000  Uiso   1.00
H1184  H     0.11121   0.49726   0.61846   0.00000  Uiso   1.00
H1185  H     0.14103   0.46250   0.57605   0.00000  Uiso   1.00
N1186  N     0.20061   0.48972   0.89275   0.00000  Uiso   1.00
H1187  H     0.22466   0.50772   0.86671   0.00000  Uiso   1.00
H1188  H     0.19687   0.45982   0.88015   0.00000  Uiso   1.00
N1189  N     0.29103   0.53439   0.61525   0.00000  Uiso   1.00
H1190  H     0.29775   0.56616   0.61934   0.00000  Uiso   1.00
H1191  H     0.32215   0.51917   0.59580   0.00000  Uiso   1.00
N1192  N     0.03575   0.48987   0.90268   0.00000  Uiso   1.00
H1193  H     0.04537   0.46013   0.88800   0.00000  Uiso   1.00
H1194  H     0.03086   0.50971   0.87815   0.00000  Uiso   1.00
N1195  N     0.16871   0.62047   0.82863   0.00000  Uiso   1.00
H1196  H     0.19978   0.62676   0.83512   0.00000  Uiso   1.00
H1197  H     0.13974   0.62921   0.85763   0.00000  Uiso   1.00
N1198  N     0.16298   0.37923   0.67283   0.00000  Uiso   1.00
H1199  H     0.13228   0.37188   0.66603   0.00000  Uiso   1.00
H1200  H     0.19230   0.37087   0.64398   0.00000  Uiso   1.00
C1201  C     0.16660   0.37782   0.83348   0.00000  Uiso   1.00
O1202  O     0.13649   0.40425   0.85071   0.00000  Uiso   1.00
O1203  O     0.19960   0.36870   0.85428   0.00000  Uiso   1.00
H1204  H     0.19407   0.38498   0.88415   0.00000  Uiso   1.00
C1205  C     0.16461   0.62255   0.66860   0.00000  Uiso   1.00
O1206  O     0.19793   0.60029   0.64771   0.00000  Uiso   1.00
O1207  O     0.12734   0.62722   0.65230   0.00000  Uiso   1.00
H1208  H     0.13236   0.61093   0.62253   0.00000  Uiso   1.00
C1209  C     0.30122   0.43334   0.70594   0.00000  Uiso   1.00
O1210  O     0.29206   0.44018   0.67107   0.00000  Uiso   1.00
O1211  O     0.29906   0.39240   0.72260   0.00000  Uiso   1.00
H1212  H     0.28819   0.37124   0.70354   0.00000  Uiso   1.00
C1213  C     0.03363   0.56973   0.78852   0.00000  Uiso   1.00
O1214  O     0.04520   0.56648   0.82251   0.00000  Uiso   1.00
O1215  O     0.03459   0.60902   0.76831   0.00000  Uiso   1.00
H1216  H     0.04656   0.63217   0.78433   0.00000  Uiso   1.00
N1217  N     0.05898   0.43276   0.70909   0.00000  Uiso   1.00
H1218  H     0.06145   0.41337   0.73525   0.00000  Uiso   1.00
H1219  H     0.09217   0.44357   0.68795   0.00000  Uiso   1.00
N1220  N     0.27475   0.56796   0.78940   0.00000  Uiso   1.00
H1221  H     0.27303   0.58694   0.76260   0.00000  Uiso   1.00
H1222  H     0.24120   0.55782   0.81034   0.00000  Uiso   1.00
C1223  C     0.50050   0.57960   0.74941   0.00000  Uiso   1.00
C1224  C     0.49927   0.42044   0.75116   0.00000  Uiso   1.00
C1225  C     0.44665   0.54644   0.54952   0.00000  Uiso   1.00
C1226  C     0.55483   0.55169   0.95185   0.00000  Uiso   1.00
C1227  C     0.41509   0.55096   0.52612   0.00000  Uiso   1.00
C1228  C     0.58537   0.56041   0.97591   0.00000  Uiso   1.00
C1229  C     0.50236   0.64461   0.78924   0.00000  Uiso   1.00
C1230  C     0.49644   0.35541   0.71228   0.00000  Uiso   1.00
C1231  C     0.50091   0.35492   0.79081   0.00000  Uiso   1.00
C1232  C     0.49768   0.64524   0.71092   0.00000  Uiso   1.00
C1233  C     0.49815   0.37615   0.75194   0.00000  Uiso   1.00
C1234  C     0.50109   0.62394   0.74934   0.00000  Uiso   1.00
C1235  C     0.64964   0.46806   0.72967   0.00000  Uiso   1.00
C1236  C     0.35067   0.53257   0.76919   0.00000  Uiso   1.00
C1237  C     0.36339   0.46766   0.73036   0.00000  Uiso   1.00
C1238  C     0.63668   0.53254   0.76923   0.00000  Uiso   1.00
C1239  C     0.47055   0.49958   0.83802   0.00000  Uiso   1.00
C1240  C     0.52969   0.50105   0.66214   0.00000  Uiso   1.00
C1241  C     0.45439   0.50425   0.88917   0.00000  Uiso   1.00
C1242  C     0.54727   0.51146   0.61220   0.00000  Uiso   1.00
C1243  C     0.39317   0.52134   0.96283   0.00000  Uiso   1.00
C1244  C     0.60383   0.54848   0.54664   0.00000  Uiso   1.00
C1245  C     0.40591   0.50641   0.91733   0.00000  Uiso   1.00
C1246  C     0.59183   0.53106   0.59106   0.00000  Uiso   1.00
C1247  C     0.48871   0.50988   0.91060   0.00000  Uiso   1.00
C1248  C     0.51563   0.50933   0.58811   0.00000  Uiso   1.00
C1249  C     0.47552   0.52810   0.95483   0.00000  Uiso   1.00
C1250  C     0.52660   0.53078   0.54571   0.00000  Uiso   1.00
C1251  C     0.42741   0.53436   0.98092   0.00000  Uiso   1.00
C1252  C     0.57257   0.54673   0.52259   0.00000  Uiso   1.00
C1253  C     0.50878   0.53698   0.97606   0.00000  Uiso   1.00
C1254  C     0.49331   0.53546   0.52445   0.00000  Uiso   1.00
H1255  H     0.35654   0.52042   0.98492   0.00000  Uiso   1.00
H1256  H     0.63697   0.56428   0.53122   0.00000  Uiso   1.00
H1257  H     0.43647   0.55614   0.58547   0.00000  Uiso   1.00
H1258  H     0.56558   0.56018   0.91559   0.00000  Uiso   1.00
N1259  N     0.38093   0.50001   0.75001   0.00000  Uiso   1.00
N1260  N     0.61907   0.49999   0.74999   0.00000  Uiso   1.00
O1261  O     0.46179   0.56108   0.75001   0.00000  Uiso   1.00
O1262  O     0.53821   0.43892   0.75000   0.00000  Uiso   1.00
O1263  O     0.53823   0.56107   0.75000   0.00000  Uiso   1.00
O1264  O     0.46177   0.43893   0.75000   0.00000  Uiso   1.00
O1265  O     0.43994   0.50001   0.81613   0.00000  Uiso   1.00
O1266  O     0.56006   0.49999   0.68388   0.00000  Uiso   1.00
O1267  O     0.51639   0.50000   0.81612   0.00000  Uiso   1.00
O1268  O     0.48361   0.50000   0.68388   0.00000  Uiso   1.00
Zn1269 Zn    0.44896   0.50001   0.75000   0.00000  Uiso   1.00
Zn1270 Zn    0.55104   0.49999   0.75000   0.00000  Uiso   1.00
N1271  N     0.37424   0.57639   0.54554   0.00000  Uiso   1.00
H1272  H     0.37380   0.58992   0.57680   0.00000  Uiso   1.00
H1273  H     0.37767   0.60153   0.52292   0.00000  Uiso   1.00
N1274  N     0.62827   0.58301   0.95219   0.00000  Uiso   1.00
H1275  H     0.65677   0.56373   0.94852   0.00000  Uiso   1.00
H1276  H     0.63017   0.60927   0.97213   0.00000  Uiso   1.00
N1277  N     0.47588   0.48076   0.60393   0.00000  Uiso   1.00
H1278  H     0.44454   0.49726   0.61846   0.00000  Uiso   1.00
H1279  H     0.47437   0.46250   0.57605   0.00000  Uiso   1.00
N1280  N     0.53395   0.48972   0.89275   0.00000  Uiso   1.00
H1281  H     0.55800   0.50772   0.86671   0.00000  Uiso   1.00
H1282  H     0.53021   0.45982   0.88015   0.00000  Uiso   1.00
N1283  N     0.62436   0.53439   0.61525   0.00000  Uiso   1.00
H1284  H     0.63109   0.56616   0.61934   0.00000  Uiso   1.00
H1285  H     0.65548   0.51917   0.59580   0.00000  Uiso   1.00
N1286  N     0.36908   0.48987   0.90268   0.00000  Uiso   1.00
H1287  H     0.37870   0.46013   0.88800   0.00000  Uiso   1.00
H1288  H     0.36419   0.50971   0.87815   0.00000  Uiso   1.00
N1289  N     0.50204   0.62047   0.82863   0.00000  Uiso   1.00
H1290  H     0.53312   0.62676   0.83512   0.00000  Uiso   1.00
H1291  H     0.47307   0.62921   0.85763   0.00000  Uiso   1.00
N1292  N     0.49631   0.37923   0.67283   0.00000  Uiso   1.00
H1293  H     0.46562   0.37188   0.66603   0.00000  Uiso   1.00
H1294  H     0.52563   0.37087   0.64398   0.00000  Uiso   1.00
C1295  C     0.49994   0.37782   0.83348   0.00000  Uiso   1.00
O1296  O     0.46983   0.40425   0.85071   0.00000  Uiso   1.00
O1297  O     0.53294   0.36870   0.85428   0.00000  Uiso   1.00
H1298  H     0.52741   0.38498   0.88415   0.00000  Uiso   1.00
C1299  C     0.49795   0.62255   0.66860   0.00000  Uiso   1.00
O1300  O     0.53126   0.60029   0.64771   0.00000  Uiso   1.00
O1301  O     0.46067   0.62722   0.65230   0.00000  Uiso   1.00
H1302  H     0.46569   0.61093   0.62253   0.00000  Uiso   1.00
C1303  C     0.63456   0.43334   0.70594   0.00000  Uiso   1.00
O1304  O     0.62540   0.44018   0.67107   0.00000  Uiso   1.00
O1305  O     0.63239   0.39240   0.72260   0.00000  Uiso   1.00
H1306  H     0.62152   0.37124   0.70354   0.00000  Uiso   1.00
C1307  C     0.36696   0.56973   0.78852   0.00000  Uiso   1.00
O1308  O     0.37854   0.56648   0.82251   0.00000  Uiso   1.00
O1309  O     0.36792   0.60902   0.76831   0.00000  Uiso   1.00
H1310  H     0.37990   0.63217   0.78433   0.00000  Uiso   1.00
N1311  N     0.39232   0.43276   0.70909   0.00000  Uiso   1.00
H1312  H     0.39479   0.41337   0.73525   0.00000  Uiso   1.00
H1313  H     0.42551   0.44357   0.68795   0.00000  Uiso   1.00
N1314  N     0.60808   0.56796   0.78940   0.00000  Uiso   1.00
H1315  H     0.60636   0.58694   0.76260   0.00000  Uiso   1.00
H1316  H     0.57453   0.55782   0.81034   0.00000  Uiso   1.00
C1317  C     0.83383   0.57960   0.74941   0.00000  Uiso   1.00
C1318  C     0.83260   0.42044   0.75116   0.00000  Uiso   1.00
C1319  C     0.77998   0.54644   0.54952   0.00000  Uiso   1.00
C1320  C     0.88816   0.55169   0.95185   0.00000  Uiso   1.00
C1321  C     0.74842   0.55096   0.52612   0.00000  Uiso   1.00
C1322  C     0.91870   0.56041   0.97591   0.00000  Uiso   1.00
C1323  C     0.83569   0.64461   0.78924   0.00000  Uiso   1.00
C1324  C     0.82977   0.35541   0.71228   0.00000  Uiso   1.00
C1325  C     0.83424   0.35492   0.79081   0.00000  Uiso   1.00
C1326  C     0.83101   0.64524   0.71092   0.00000  Uiso   1.00
C1327  C     0.83148   0.37615   0.75194   0.00000  Uiso   1.00
C1328  C     0.83443   0.62394   0.74934   0.00000  Uiso   1.00
C1329  C     0.98298   0.46806   0.72967   0.00000  Uiso   1.00
C1330  C     0.68401   0.53257   0.76919   0.00000  Uiso   1.00
C1331  C     0.69672   0.46766   0.73036   0.00000  Uiso   1.00
C1332  C     0.97001   0.53254   0.76923   0.00000  Uiso   1.00
C1333  C     0.80389   0.49958   0.83802   0.00000  Uiso   1.00
C1334  C     0.86302   0.50105   0.66214   0.00000  Uiso   1.00
C1335  C     0.78772   0.50425   0.88917   0.00000  Uiso   1.00
C1336  C     0.88060   0.51146   0.61220   0.00000  Uiso   1.00
C1337  C     0.72651   0.52134   0.96283   0.00000  Uiso   1.00
C1338  C     0.93716   0.54848   0.54664   0.00000  Uiso   1.00
C1339  C     0.73924   0.50641   0.91733   0.00000  Uiso   1.00
C1340  C     0.92516   0.53106   0.59106   0.00000  Uiso   1.00
C1341  C     0.82204   0.50988   0.91060   0.00000  Uiso   1.00
C1342  C     0.84896   0.50933   0.58811   0.00000  Uiso   1.00
C1343  C     0.80885   0.52810   0.95483   0.00000  Uiso   1.00
C1344  C     0.85993   0.53078   0.54571   0.00000  Uiso   1.00
C1345  C     0.76074   0.53436   0.98092   0.00000  Uiso   1.00
C1346  C     0.90590   0.54673   0.52259   0.00000  Uiso   1.00
C1347  C     0.84211   0.53698   0.97606   0.00000  Uiso   1.00
C1348  C     0.82665   0.53546   0.52445   0.00000  Uiso   1.00
H1349  H     0.68987   0.52042   0.98492   0.00000  Uiso   1.00
H1350  H     0.97030   0.56428   0.53122   0.00000  Uiso   1.00
H1351  H     0.76980   0.55614   0.58547   0.00000  Uiso   1.00
H1352  H     0.89892   0.56018   0.91559   0.00000  Uiso   1.00
N1353  N     0.71426   0.50001   0.75001   0.00000  Uiso   1.00
N1354  N     0.95241   0.49999   0.74999   0.00000  Uiso   1.00
O1355  O     0.79512   0.56108   0.75001   0.00000  Uiso   1.00
O1356  O     0.87154   0.43892   0.75000   0.00000  Uiso   1.00
O1357  O     0.87157   0.56107   0.75000   0.00000  Uiso   1.00
O1358  O     0.79510   0.43893   0.75000   0.00000  Uiso   1.00
O1359  O     0.77328   0.50001   0.81613   0.00000  Uiso   1.00
O1360  O     0.89339   0.49999   0.68388   0.00000  Uiso   1.00
O1361  O     0.84972   0.50000   0.81612   0.00000  Uiso   1.00
O1362  O     0.81695   0.50000   0.68388   0.00000  Uiso   1.00
Zn1363 Zn    0.78229   0.50001   0.75000   0.00000  Uiso   1.00
Zn1364 Zn    0.88438   0.49999   0.75000   0.00000  Uiso   1.00
N1365  N     0.70757   0.57639   0.54554   0.00000  Uiso   1.00
H1366  H     0.70714   0.58992   0.57680   0.00000  Uiso   1.00
H1367  H     0.71100   0.60153   0.52292   0.00000  Uiso   1.00
N1368  N     0.96160   0.58301   0.95219   0.00000  Uiso   1.00
H1369  H     0.99010   0.56373   0.94852   0.00000  Uiso   1.00
H1370  H     0.96350   0.60927   0.97213   0.00000  Uiso   1.00
N1371  N     0.80921   0.48076   0.60393   0.00000  Uiso   1.00
H1372  H     0.77788   0.49726   0.61846   0.00000  Uiso   1.00
H1373  H     0.80770   0.46250   0.57605   0.00000  Uiso   1.00
N1374  N     0.86728   0.48972   0.89275   0.00000  Uiso   1.00
H1375  H     0.89133   0.50772   0.86671   0.00000  Uiso   1.00
H1376  H     0.86354   0.45982   0.88015   0.00000  Uiso   1.00
N1377  N     0.95769   0.53439   0.61525   0.00000  Uiso   1.00
H1378  H     0.96442   0.56616   0.61934   0.00000  Uiso   1.00
H1379  H     0.98881   0.51917   0.59580   0.00000  Uiso   1.00
N1380  N     0.70242   0.48987   0.90268   0.00000  Uiso   1.00
H1381  H     0.71203   0.46013   0.88800   0.00000  Uiso   1.00
H1382  H     0.69753   0.50971   0.87815   0.00000  Uiso   1.00
N1383  N     0.83537   0.62047   0.82863   0.00000  Uiso   1.00
H1384  H     0.86645   0.62676   0.83512   0.00000  Uiso   1.00
H1385  H     0.80640   0.62921   0.85763   0.00000  Uiso   1.00
N1386  N     0.82965   0.37923   0.67283   0.00000  Uiso   1.00
H1387  H     0.79895   0.37188   0.66603   0.00000  Uiso   1.00
H1388  H     0.85897   0.37087   0.64398   0.00000  Uiso   1.00
C1389  C     0.83327   0.37782   0.83348   0.00000  Uiso   1.00
O1390  O     0.80316   0.40425   0.85071   0.00000  Uiso   1.00
O1391  O     0.86627   0.36870   0.85428   0.00000  Uiso   1.00
H1392  H     0.86074   0.38498   0.88415   0.00000  Uiso   1.00
C1393  C     0.83128   0.62255   0.66860   0.00000  Uiso   1.00
O1394  O     0.86460   0.60029   0.64771   0.00000  Uiso   1.00
O1395  O     0.79400   0.62722   0.65230   0.00000  Uiso   1.00
H1396  H     0.79903   0.61093   0.62253   0.00000  Uiso   1.00
C1397  C     0.96789   0.43334   0.70594   0.00000  Uiso   1.00
O1398  O     0.95873   0.44018   0.67107   0.00000  Uiso   1.00
O1399  O     0.96572   0.39240   0.72260   0.00000  Uiso   1.00
H1400  H     0.95485   0.37124   0.70354   0.00000  Uiso   1.00
C1401  C     0.70030   0.56973   0.78852   0.00000  Uiso   1.00
O1402  O     0.71187   0.56648   0.82251   0.00000  Uiso   1.00
O1403  O     0.70126   0.60902   0.76831   0.00000  Uiso   1.00
H1404  H     0.71323   0.63217   0.78433   0.00000  Uiso   1.00
N1405  N     0.72565   0.43276   0.70909   0.00000  Uiso   1.00
H1406  H     0.72812   0.41337   0.73525   0.00000  Uiso   1.00
H1407  H     0.75884   0.44357   0.68795   0.00000  Uiso   1.00
N1408  N     0.94142   0.56796   0.78940   0.00000  Uiso   1.00
H1409  H     0.93970   0.58694   0.76260   0.00000  Uiso   1.00
H1410  H     0.90787   0.55782   0.81034   0.00000  Uiso   1.00
C1411  C     0.16717   0.91293   0.74941   0.00000  Uiso   1.00
C1412  C     0.16594   0.75378   0.75116   0.00000  Uiso   1.00
C1413  C     0.11332   0.87978   0.54952   0.00000  Uiso   1.00
C1414  C     0.22149   0.88502   0.95185   0.00000  Uiso   1.00
C1415  C     0.08176   0.88429   0.52612   0.00000  Uiso   1.00
C1416  C     0.25203   0.89374   0.97591   0.00000  Uiso   1.00
C1417  C     0.16903   0.97794   0.78924   0.00000  Uiso   1.00
C1418  C     0.16311   0.68874   0.71228   0.00000  Uiso   1.00
C1419  C     0.16757   0.68826   0.79081   0.00000  Uiso   1.00
C1420  C     0.16434   0.97858   0.71092   0.00000  Uiso   1.00
C1421  C     0.16482   0.70948   0.75194   0.00000  Uiso   1.00
C1422  C     0.16776   0.95728   0.74934   0.00000  Uiso   1.00
C1423  C     0.31631   0.80139   0.72967   0.00000  Uiso   1.00
C1424  C     0.01734   0.86590   0.76919   0.00000  Uiso   1.00
C1425  C     0.03006   0.80099   0.73036   0.00000  Uiso   1.00
C1426  C     0.30335   0.86587   0.76923   0.00000  Uiso   1.00
C1427  C     0.13722   0.83291   0.83802   0.00000  Uiso   1.00
C1428  C     0.19636   0.83438   0.66214   0.00000  Uiso   1.00
C1429  C     0.12105   0.83758   0.88917   0.00000  Uiso   1.00
C1430  C     0.21393   0.84479   0.61220   0.00000  Uiso   1.00
C1431  C     0.05984   0.85467   0.96283   0.00000  Uiso   1.00
C1432  C     0.27050   0.88181   0.54664   0.00000  Uiso   1.00
C1433  C     0.07257   0.83974   0.91733   0.00000  Uiso   1.00
C1434  C     0.25849   0.86439   0.59106   0.00000  Uiso   1.00
C1435  C     0.15538   0.84322   0.91060   0.00000  Uiso   1.00
C1436  C     0.18230   0.84266   0.58811   0.00000  Uiso   1.00
C1437  C     0.14219   0.86143   0.95483   0.00000  Uiso   1.00
C1438  C     0.19327   0.86411   0.54571   0.00000  Uiso   1.00
C1439  C     0.09408   0.86770   0.98092   0.00000  Uiso   1.00
C1440  C     0.23923   0.88006   0.52259   0.00000  Uiso   1.00
C1441  C     0.17544   0.87031   0.97606   0.00000  Uiso   1.00
C1442  C     0.15998   0.86879   0.52445   0.00000  Uiso   1.00
H1443  H     0.02321   0.85375   0.98492   0.00000  Uiso   1.00
H1444  H     0.30364   0.89761   0.53122   0.00000  Uiso   1.00
H1445  H     0.10314   0.88948   0.58547   0.00000  Uiso   1.00
H1446  H     0.23225   0.89351   0.91559   0.00000  Uiso   1.00
N1447  N     0.04759   0.83334   0.75001   0.00000  Uiso   1.00
N1448  N     0.28574   0.83332   0.74999   0.00000  Uiso   1.00
O1449  O     0.12846   0.89442   0.75001   0.00000  Uiso   1.00
O1450  O     0.20488   0.77225   0.75000   0.00000  Uiso   1.00
O1451  O     0.20490   0.89441   0.75000   0.00000  Uiso   1.00
O1452  O     0.12843   0.77226   0.75000   0.00000  Uiso   1.00
O1453  O     0.10661   0.83334   0.81613   0.00000  Uiso   1.00
O1454  O     0.22672   0.83333   0.68388   0.00000  Uiso   1.00
O1455  O     0.18305   0.83333   0.81612   0.00000  Uiso   1.00
O1456  O     0.15028   0.83334   0.68388   0.00000  Uiso   1.00
Zn1457 Zn    0.11562   0.83334   0.75000   0.00000  Uiso   1.00
Zn1458 Zn    0.21771   0.83333   0.75000   0.00000  Uiso   1.00
N1459  N     0.04090   0.90972   0.54554   0.00000  Uiso   1.00
H1460  H     0.04047   0.92326   0.57680   0.00000  Uiso   1.00
H1461  H     0.04434   0.93486   0.52292   0.00000  Uiso   1.00
N1462  N     0.29494   0.91634   0.95219   0.00000  Uiso   1.00
H1463  H     0.32343   0.89706   0.94852   0.00000  Uiso   1.00
H1464  H     0.29683   0.94260   0.97213   0.00000  Uiso   1.00
N1465  N     0.14255   0.81409   0.60393   0.00000  Uiso   1.00
H1466  H     0.11121   0.83060   0.61846   0.00000  Uiso   1.00
H1467  H     0.14103   0.79583   0.57605   0.00000  Uiso   1.00
N1468  N     0.20061   0.82305   0.89275   0.00000  Uiso   1.00
H1469  H     0.22466   0.84105   0.86671   0.00000  Uiso   1.00
H1470  H     0.19687   0.79315   0.88015   0.00000  Uiso   1.00
N1471  N     0.29103   0.86773   0.61525   0.00000  Uiso   1.00
H1472  H     0.29775   0.89949   0.61934   0.00000  Uiso   1.00
H1473  H     0.32215   0.85250   0.59580   0.00000  Uiso   1.00
N1474  N     0.03575   0.82321   0.90268   0.00000  Uiso   1.00
H1475  H     0.04537   0.79347   0.88800   0.00000  Uiso   1.00
H1476  H     0.03086   0.84305   0.87815   0.00000  Uiso   1.00
N1477  N     0.16871   0.95380   0.82863   0.00000  Uiso   1.00
H1478  H     0.19978   0.96010   0.83512   0.00000  Uiso   1.00
H1479  H     0.13974   0.96254   0.85763   0.00000  Uiso   1.00
N1480  N     0.16298   0.71257   0.67283   0.00000  Uiso   1.00
H1481  H     0.13228   0.70521   0.66603   0.00000  Uiso   1.00
H1482  H     0.19230   0.70420   0.64398   0.00000  Uiso   1.00
C1483  C     0.16660   0.71115   0.83348   0.00000  Uiso   1.00
O1484  O     0.13649   0.73758   0.85071   0.00000  Uiso   1.00
O1485  O     0.19960   0.70203   0.85428   0.00000  Uiso   1.00
H1486  H     0.19407   0.71832   0.88415   0.00000  Uiso   1.00
C1487  C     0.16461   0.95589   0.66860   0.00000  Uiso   1.00
O1488  O     0.19793   0.93362   0.64771   0.00000  Uiso   1.00
O1489  O     0.12734   0.96055   0.65230   0.00000  Uiso   1.00
H1490  H     0.13236   0.94426   0.62253   0.00000  Uiso   1.00
C1491  C     0.30122   0.76667   0.70594   0.00000  Uiso   1.00
O1492  O     0.29206   0.77352   0.67107   0.00000  Uiso   1.00
O1493  O     0.29906   0.72574   0.72260   0.00000  Uiso   1.00
H1494  H     0.28819   0.70457   0.70354   0.00000  Uiso   1.00
C1495  C     0.03363   0.90307   0.78852   0.00000  Uiso   1.00
O1496  O     0.04520   0.89981   0.82251   0.00000  Uiso   1.00
O1497  O     0.03459   0.94236   0.76831   0.00000  Uiso   1.00
H1498  H     0.04656   0.96550   0.78433   0.00000  Uiso   1.00
N1499  N     0.05898   0.76609   0.70909   0.00000  Uiso   1.00
H1500  H     0.06145   0.74670   0.73525   0.00000  Uiso   1.00
H1501  H     0.09217   0.77691   0.68795   0.00000  Uiso   1.00
N1502  N     0.27475   0.90129   0.78940   0.00000  Uiso   1.00
H1503  H     0.27303   0.92027   0.76260   0.00000  Uiso   1.00
H1504  H     0.24120   0.89116   0.81034   0.00000  Uiso   1.00
C1505  C     0.50050   0.91293   0.74941   0.00000  Uiso   1.00
C1506  C     0.49927   0.75378   0.75116   0.00000  Uiso   1.00
C1507  C     0.44665   0.87978   0.54952   0.00000  Uiso   1.00
C1508  C     0.55483   0.88502   0.95185   0.00000  Uiso   1.00
C1509  C     0.41509   0.88429   0.52612   0.00000  Uiso   1.00
C1510  C     0.58537   0.89374   0.97591   0.00000  Uiso   1.00
C1511  C     0.50236   0.97794   0.78924   0.00000  Uiso   1.00
C1512  C     0.49644   0.68874   0.71228   0.00000  Uiso   1.00
C1513  C     0.50091   0.68826   0.79081   0.00000  Uiso   1.00
C1514  C     0.49768   0.97858   0.71092   0.00000  Uiso   1.00
C1515  C     0.49815   0.70948   0.75194   0.00000  Uiso   1.00
C1516  C     0.50109   0.95728   0.74934   0.00000  Uiso   1.00
C1517  C     0.64964   0.80139   0.72967   0.00000  Uiso   1.00
C1518  C     0.35067   0.86590   0.76919   0.00000  Uiso   1.00
C1519  C     0.36339   0.80099   0.73036   0.00000  Uiso   1.00
C1520  C     0.63668   0.86587   0.76923   0.00000  Uiso   1.00
C1521  C     0.47055   0.83291   0.83802   0.00000  Uiso   1.00
C1522  C     0.52969   0.83438   0.66214   0.00000  Uiso   1.00
C1523  C     0.45439   0.83758   0.88917   0.00000  Uiso   1.00
C1524  C     0.54727   0.84479   0.61220   0.00000  Uiso   1.00
C1525  C     0.39317   0.85467   0.96283   0.00000  Uiso   1.00
C1526  C     0.60383   0.88181   0.54664   0.00000  Uiso   1.00
C1527  C     0.40591   0.83974   0.91733   0.00000  Uiso   1.00
C1528  C     0.59183   0.86439   0.59106   0.00000  Uiso   1.00
C1529  C     0.48871   0.84322   0.91060   0.00000  Uiso   1.00
C1530  C     0.51563   0.84266   0.58811   0.00000  Uiso   1.00
C1531  C     0.47552   0.86143   0.95483   0.00000  Uiso   1.00
C1532  C     0.52660   0.86411   0.54571   0.00000  Uiso   1.00
C1533  C     0.42741   0.86770   0.98092   0.00000  Uiso   1.00
C1534  C     0.57257   0.88006   0.52259   0.00000  Uiso   1.00
C1535  C     0.50878   0.87031   0.97606   0.00000  Uiso   1.00
C1536  C     0.49331   0.86879   0.52445   0.00000  Uiso   1.00
H1537  H     0.35654   0.85375   0.98492   0.00000  Uiso   1.00
H1538  H     0.63697   0.89761   0.53122   0.00000  Uiso   1.00
H1539  H     0.43647   0.88948   0.58547   0.00000  Uiso   1.00
H1540  H     0.56558   0.89351   0.91559   0.00000  Uiso   1.00
N1541  N     0.38093   0.83334   0.75001   0.00000  Uiso   1.00
N1542  N     0.61907   0.83332   0.74999   0.00000  Uiso   1.00
O1543  O     0.46179   0.89442   0.75001   0.00000  Uiso   1.00
O1544  O     0.53821   0.77225   0.75000   0.00000  Uiso   1.00
O1545  O     0.53823   0.89441   0.75000   0.00000  Uiso   1.00
O1546  O     0.46177   0.77226   0.75000   0.00000  Uiso   1.00
O1547  O     0.43994   0.83334   0.81613   0.00000  Uiso   1.00
O1548  O     0.56006   0.83333   0.68388   0.00000  Uiso   1.00
O1549  O     0.51639   0.83333   0.81612   0.00000  Uiso   1.00
O1550  O     0.48361   0.83334   0.68388   0.00000  Uiso   1.00
Zn1551 Zn    0.44896   0.83334   0.75000   0.00000  Uiso   1.00
Zn1552 Zn    0.55104   0.83333   0.75000   0.00000  Uiso   1.00
N1553  N     0.37424   0.90972   0.54554   0.00000  Uiso   1.00
H1554  H     0.37380   0.92326   0.57680   0.00000  Uiso   1.00
H1555  H     0.37767   0.93486   0.52292   0.00000  Uiso   1.00
N1556  N     0.62827   0.91634   0.95219   0.00000  Uiso   1.00
H1557  H     0.65677   0.89706   0.94852   0.00000  Uiso   1.00
H1558  H     0.63017   0.94260   0.97213   0.00000  Uiso   1.00
N1559  N     0.47588   0.81409   0.60393   0.00000  Uiso   1.00
H1560  H     0.44454   0.83060   0.61846   0.00000  Uiso   1.00
H1561  H     0.47437   0.79583   0.57605   0.00000  Uiso   1.00
N1562  N     0.53395   0.82305   0.89275   0.00000  Uiso   1.00
H1563  H     0.55800   0.84105   0.86671   0.00000  Uiso   1.00
H1564  H     0.53021   0.79315   0.88015   0.00000  Uiso   1.00
N1565  N     0.62436   0.86773   0.61525   0.00000  Uiso   1.00
H1566  H     0.63109   0.89949   0.61934   0.00000  Uiso   1.00
H1567  H     0.65548   0.85250   0.59580   0.00000  Uiso   1.00
N1568  N     0.36908   0.82321   0.90268   0.00000  Uiso   1.00
H1569  H     0.37870   0.79347   0.88800   0.00000  Uiso   1.00
H1570  H     0.36419   0.84305   0.87815   0.00000  Uiso   1.00
N1571  N     0.50204   0.95380   0.82863   0.00000  Uiso   1.00
H1572  H     0.53312   0.96010   0.83512   0.00000  Uiso   1.00
H1573  H     0.47307   0.96254   0.85763   0.00000  Uiso   1.00
N1574  N     0.49631   0.71257   0.67283   0.00000  Uiso   1.00
H1575  H     0.46562   0.70521   0.66603   0.00000  Uiso   1.00
H1576  H     0.52563   0.70420   0.64398   0.00000  Uiso   1.00
C1577  C     0.49994   0.71115   0.83348   0.00000  Uiso   1.00
O1578  O     0.46983   0.73758   0.85071   0.00000  Uiso   1.00
O1579  O     0.53294   0.70203   0.85428   0.00000  Uiso   1.00
H1580  H     0.52741   0.71832   0.88415   0.00000  Uiso   1.00
C1581  C     0.49795   0.95589   0.66860   0.00000  Uiso   1.00
O1582  O     0.53126   0.93362   0.64771   0.00000  Uiso   1.00
O1583  O     0.46067   0.96055   0.65230   0.00000  Uiso   1.00
H1584  H     0.46569   0.94426   0.62253   0.00000  Uiso   1.00
C1585  C     0.63456   0.76667   0.70594   0.00000  Uiso   1.00
O1586  O     0.62540   0.77352   0.67107   0.00000  Uiso   1.00
O1587  O     0.63239   0.72574   0.72260   0.00000  Uiso   1.00
H1588  H     0.62152   0.70457   0.70354   0.00000  Uiso   1.00
C1589  C     0.36696   0.90307   0.78852   0.00000  Uiso   1.00
O1590  O     0.37854   0.89981   0.82251   0.00000  Uiso   1.00
O1591  O     0.36792   0.94236   0.76831   0.00000  Uiso   1.00
H1592  H     0.37990   0.96550   0.78433   0.00000  Uiso   1.00
N1593  N     0.39232   0.76609   0.70909   0.00000  Uiso   1.00
H1594  H     0.39479   0.74670   0.73525   0.00000  Uiso   1.00
H1595  H     0.42551   0.77691   0.68795   0.00000  Uiso   1.00
N1596  N     0.60808   0.90129   0.78940   0.00000  Uiso   1.00
H1597  H     0.60636   0.92027   0.76260   0.00000  Uiso   1.00
H1598  H     0.57453   0.89116   0.81034   0.00000  Uiso   1.00
C1599  C     0.83383   0.91293   0.74941   0.00000  Uiso   1.00
C1600  C     0.83260   0.75378   0.75116   0.00000  Uiso   1.00
C1601  C     0.77998   0.87978   0.54952   0.00000  Uiso   1.00
C1602  C     0.88816   0.88502   0.95185   0.00000  Uiso   1.00
C1603  C     0.74842   0.88429   0.52612   0.00000  Uiso   1.00
C1604  C     0.91870   0.89374   0.97591   0.00000  Uiso   1.00
C1605  C     0.83569   0.97794   0.78924   0.00000  Uiso   1.00
C1606  C     0.82977   0.68874   0.71228   0.00000  Uiso   1.00
C1607  C     0.83424   0.68826   0.79081   0.00000  Uiso   1.00
C1608  C     0.83101   0.97858   0.71092   0.00000  Uiso   1.00
C1609  C     0.83148   0.70948   0.75194   0.00000  Uiso   1.00
C1610  C     0.83443   0.95728   0.74934   0.00000  Uiso   1.00
C1611  C     0.98298   0.80139   0.72967   0.00000  Uiso   1.00
C1612  C     0.68401   0.86590   0.76919   0.00000  Uiso   1.00
C1613  C     0.69672   0.80099   0.73036   0.00000  Uiso   1.00
C1614  C     0.97001   0.86587   0.76923   0.00000  Uiso   1.00
C1615  C     0.80389   0.83291   0.83802   0.00000  Uiso   1.00
C1616  C     0.86302   0.83438   0.66214   0.00000  Uiso   1.00
C1617  C     0.78772   0.83758   0.88917   0.00000  Uiso   1.00
C1618  C     0.88060   0.84479   0.61220   0.00000  Uiso   1.00
C1619  C     0.72651   0.85467   0.96283   0.00000  Uiso   1.00
C1620  C     0.93716   0.88181   0.54664   0.00000  Uiso   1.00
C1621  C     0.73924   0.83974   0.91733   0.00000  Uiso   1.00
C1622  C     0.92516   0.86439   0.59106   0.00000  Uiso   1.00
C1623  C     0.82204   0.84322   0.91060   0.00000  Uiso   1.00
C1624  C     0.84896   0.84266   0.58811   0.00000  Uiso   1.00
C1625  C     0.80885   0.86143   0.95483   0.00000  Uiso   1.00
C1626  C     0.85993   0.86411   0.54571   0.00000  Uiso   1.00
C1627  C     0.76074   0.86770   0.98092   0.00000  Uiso   1.00
C1628  C     0.90590   0.88006   0.52259   0.00000  Uiso   1.00
C1629  C     0.84211   0.87031   0.97606   0.00000  Uiso   1.00
C1630  C     0.82665   0.86879   0.52445   0.00000  Uiso   1.00
H1631  H     0.68987   0.85375   0.98492   0.00000  Uiso   1.00
H1632  H     0.97030   0.89761   0.53122   0.00000  Uiso   1.00
H1633  H     0.76980   0.88948   0.58547   0.00000  Uiso   1.00
H1634  H     0.89892   0.89351   0.91559   0.00000  Uiso   1.00
N1635  N     0.71426   0.83334   0.75001   0.00000  Uiso   1.00
N1636  N     0.95241   0.83332   0.74999   0.00000  Uiso   1.00
O1637  O     0.79512   0.89442   0.75001   0.00000  Uiso   1.00
O1638  O     0.87154   0.77225   0.75000   0.00000  Uiso   1.00
O1639  O     0.87157   0.89441   0.75000   0.00000  Uiso   1.00
O1640  O     0.79510   0.77226   0.75000   0.00000  Uiso   1.00
O1641  O     0.77328   0.83334   0.81613   0.00000  Uiso   1.00
O1642  O     0.89339   0.83333   0.68388   0.00000  Uiso   1.00
O1643  O     0.84972   0.83333   0.81612   0.00000  Uiso   1.00
O1644  O     0.81695   0.83334   0.68388   0.00000  Uiso   1.00
Zn1645 Zn    0.78229   0.83334   0.75000   0.00000  Uiso   1.00
Zn1646 Zn    0.88438   0.83333   0.75000   0.00000  Uiso   1.00
N1647  N     0.70757   0.90972   0.54554   0.00000  Uiso   1.00
H1648  H     0.70714   0.92326   0.57680   0.00000  Uiso   1.00
H1649  H     0.71100   0.93486   0.52292   0.00000  Uiso   1.00
N1650  N     0.96160   0.91634   0.95219   0.00000  Uiso   1.00
H1651  H     0.99010   0.89706   0.94852   0.00000  Uiso   1.00
H1652  H     0.96350   0.94260   0.97213   0.00000  Uiso   1.00
N1653  N     0.80921   0.81409   0.60393   0.00000  Uiso   1.00
H1654  H     0.77788   0.83060   0.61846   0.00000  Uiso   1.00
H1655  H     0.80770   0.79583   0.57605   0.00000  Uiso   1.00
N1656  N     0.86728   0.82305   0.89275   0.00000  Uiso   1.00
H1657  H     0.89133   0.84105   0.86671   0.00000  Uiso   1.00
H1658  H     0.86354   0.79315   0.88015   0.00000  Uiso   1.00
N1659  N     0.95769   0.86773   0.61525   0.00000  Uiso   1.00
H1660  H     0.96442   0.89949   0.61934   0.00000  Uiso   1.00
H1661  H     0.98881   0.85250   0.59580   0.00000  Uiso   1.00
N1662  N     0.70242   0.82321   0.90268   0.00000  Uiso   1.00
H1663  H     0.71203   0.79347   0.88800   0.00000  Uiso   1.00
H1664  H     0.69753   0.84305   0.87815   0.00000  Uiso   1.00
N1665  N     0.83537   0.95380   0.82863   0.00000  Uiso   1.00
H1666  H     0.86645   0.96010   0.83512   0.00000  Uiso   1.00
H1667  H     0.80640   0.96254   0.85763   0.00000  Uiso   1.00
N1668  N     0.82965   0.71257   0.67283   0.00000  Uiso   1.00
H1669  H     0.79895   0.70521   0.66603   0.00000  Uiso   1.00
H1670  H     0.85897   0.70420   0.64398   0.00000  Uiso   1.00
C1671  C     0.83327   0.71115   0.83348   0.00000  Uiso   1.00
O1672  O     0.80316   0.73758   0.85071   0.00000  Uiso   1.00
O1673  O     0.86627   0.70203   0.85428   0.00000  Uiso   1.00
H1674  H     0.86074   0.71832   0.88415   0.00000  Uiso   1.00
C1675  C     0.83128   0.95589   0.66860   0.00000  Uiso   1.00
O1676  O     0.86460   0.93362   0.64771   0.00000  Uiso   1.00
O1677  O     0.79400   0.96055   0.65230   0.00000  Uiso   1.00
H1678  H     0.79903   0.94426   0.62253   0.00000  Uiso   1.00
C1679  C     0.96789   0.76667   0.70594   0.00000  Uiso   1.00
O1680  O     0.95873   0.77352   0.67107   0.00000  Uiso   1.00
O1681  O     0.96572   0.72574   0.72260   0.00000  Uiso   1.00
H1682  H     0.95485   0.70457   0.70354   0.00000  Uiso   1.00
C1683  C     0.70030   0.90307   0.78852   0.00000  Uiso   1.00
O1684  O     0.71187   0.89981   0.82251   0.00000  Uiso   1.00
O1685  O     0.70126   0.94236   0.76831   0.00000  Uiso   1.00
H1686  H     0.71323   0.96550   0.78433   0.00000  Uiso   1.00
N1687  N     0.72565   0.76609   0.70909   0.00000  Uiso   1.00
H1688  H     0.72812   0.74670   0.73525   0.00000  Uiso   1.00
H1689  H     0.75884   0.77691   0.68795   0.00000  Uiso   1.00
N1690  N     0.94142   0.90129   0.78940   0.00000  Uiso   1.00
H1691  H     0.93970   0.92027   0.76260   0.00000  Uiso   1.00
H1692  H     0.90787   0.89116   0.81034   0.00000  Uiso   1.00
loop_
_geom_bond_atom_site_label_1
_geom_bond_atom_site_label_2
_geom_bond_distance
_geom_bond_site_symmetry_2
_ccdc_geom_bond_type
C1     C12     1.412   .     S
C1     O41     1.299   .     A
C1     O39     1.298   .     A
C2     C11     1.411   .     S
C2     O42     1.298   .     A
C2     O40     1.298   .     A
C3     C32     1.397   .     A
C3     H35     1.082   .     S
C3     C5      1.393   .     A
C4     H36     1.082   .     S
C4     C6      1.396   .     A
C4     C31     1.404   .     A
C5     N49     1.429   .     S
C5     C875    1.407   1_554 S
C6     N52     1.432   .     S
C6     C876    1.420   .     S
C7     C12     1.399   .     A
C7     N67     1.439   .     S
C7     C291    1.392   .     S
C8     N70     1.439   .     S
C8     C11     1.398   .     A
C8     C574    1.386   1_545 S
C9     C73     1.487   .     S
C9     C11     1.408   .     A
C9     C571    1.392   1_545 S
C10    C77     1.480   .     S
C10    C12     1.405   .     A
C10    C290    1.386   .     S
C13    C81     1.472   .     S
C13    N38     1.374   .     A
C13    C109    1.432   .     S
C14    C85     1.474   .     S
C14    N37     1.377   .     A
C14    C204    1.431   1_455 S
C15    N37     1.381   .     A
C15    N89     1.429   .     S
C15    C201    1.432   1_455 S
C16    N92     1.430   .     S
C16    N38     1.379   .     A
C16    C108    1.431   .     S
C17    O45     1.311   .     A
C17    O43     1.323   .     A
C17    C19     1.481   .     S
C18    C20     1.477   .     S
C18    O46     1.317   .     A
C18    O44     1.314   .     A
C19    C23     1.419   .     A
C19    C25     1.421   .     A
C20    C24     1.412   .     A
C20    C26     1.402   .     A
C21    H33     1.077   .     S
C21    C23     1.395   .     A
C21    C29     1.394   .     A
C22    H34     1.067   .     S
C22    C30     1.392   .     A
C22    C24     1.402   .     A
C23    N64     1.433   .     S
C24    N61     1.430   .     S
C25    N58     1.441   .     S
C25    C27     1.398   .     A
C26    N55     1.440   .     S
C26    C28     1.409   .     A
C27    C29     1.409   .     A
C27    C31     1.404   .     A
C28    C32     1.391   .     A
C28    C30     1.410   .     A
C29    C851    1.407   .     S
C30    C852    1.420   1_554 S
C31    C878    1.396   .     S
C32    C877    1.396   1_554 S
N37    Zn47    2.058   .     S
N38    Zn48    2.058   .     S
O39    Zn47    1.978   .     S
O40    Zn48    1.978   .     S
O41    Zn48    1.989   .     S
O42    Zn47    1.989   .     S
O43    Zn47    1.955   .     S
O44    Zn48    1.955   .     S
O45    Zn48    1.932   .     S
O46    Zn47    1.932   .     S
N49    H51     1.046   .     S
N49    H50     1.046   .     S
N52    H54     1.045   .     S
N52    H53     1.039   .     S
N55    H56     1.043   .     S
N55    H57     1.046   .     S
N58    H60     1.044   .     S
N58    H59     1.042   .     S
N61    H63     1.044   .     S
N61    H62     1.044   .     S
N64    H66     1.040   .     S
N64    H65     1.046   .     S
N67    H68     1.044   .     S
N67    H69     1.046   .     S
N70    H71     1.044   .     S
N70    H72     1.046   .     S
C73    O74     1.222   .     D
C73    O75     1.398   .     S
O75    H76     1.013   .     S
C77    O79     1.397   .     S
C77    O78     1.220   .     D
O79    H80     1.013   .     S
C81    O82     1.221   .     D
C81    O83     1.398   .     S
O83    H84     1.014   .     S
C85    O86     1.220   .     D
C85    O87     1.398   .     S
O87    H88     1.014   .     S
N89    H91     1.041   .     S
N89    H90     1.043   .     S
N92    H94     1.041   .     S
N92    H93     1.044   .     S
C95    C106    1.412   .     S
C95    O135    1.299   .     A
C95    O133    1.298   .     A
C96    C105    1.411   .     S
C96    O136    1.298   .     A
C96    O134    1.298   .     A
C97    C126    1.397   .     A
C97    H129    1.082   .     S
C97    C99     1.393   .     A
C98    H130    1.082   .     S
C98    C100    1.396   .     A
C98    C125    1.404   .     A
C99    N143    1.429   .     S
C99    C969    1.407   1_554 S
C100   N146    1.432   .     S
C100   C970    1.420   .     S
C101   C106    1.399   .     A
C101   N161    1.439   .     S
C101   C385    1.392   .     S
C102   N164    1.439   .     S
C102   C105    1.398   .     A
C102   C668    1.386   1_545 S
C103   C167    1.487   .     S
C103   C105    1.408   .     A
C103   C665    1.392   1_545 S
C104   C171    1.480   .     S
C104   C106    1.405   .     A
C104   C384    1.386   .     S
C107   C175    1.472   .     S
C107   N132    1.374   .     A
C107   C203    1.432   .     S
C108   C179    1.474   .     S
C108   N131    1.377   .     A
C109   N131    1.381   .     A
C109   N183    1.429   .     S
C110   N186    1.430   .     S
C110   N132    1.379   .     A
C110   C202    1.431   .     S
C111   O139    1.311   .     A
C111   O137    1.323   .     A
C111   C113    1.481   .     S
C112   C114    1.477   .     S
C112   O140    1.317   .     A
C112   O138    1.314   .     A
C113   C117    1.419   .     A
C113   C119    1.421   .     A
C114   C118    1.412   .     A
C114   C120    1.402   .     A
C115   H127    1.077   .     S
C115   C117    1.395   .     A
C115   C123    1.394   .     A
C116   H128    1.067   .     S
C116   C124    1.392   .     A
C116   C118    1.402   .     A
C117   N158    1.433   .     S
C118   N155    1.430   .     S
C119   N152    1.441   .     S
C119   C121    1.398   .     A
C120   N149    1.440   .     S
C120   C122    1.409   .     A
C121   C123    1.409   .     A
C121   C125    1.404   .     A
C122   C126    1.391   .     A
C122   C124    1.410   .     A
C123   C945    1.407   .     S
C124   C946    1.420   1_554 S
C125   C972    1.396   .     S
C126   C971    1.396   1_554 S
N131   Zn141   2.058   .     S
N132   Zn142   2.058   .     S
O133   Zn141   1.978   .     S
O134   Zn142   1.978   .     S
O135   Zn142   1.989   .     S
O136   Zn141   1.989   .     S
O137   Zn141   1.955   .     S
O138   Zn142   1.955   .     S
O139   Zn142   1.932   .     S
O140   Zn141   1.932   .     S
N143   H145    1.046   .     S
N143   H144    1.046   .     S
N146   H148    1.045   .     S
N146   H147    1.039   .     S
N149   H150    1.043   .     S
N149   H151    1.046   .     S
N152   H154    1.044   .     S
N152   H153    1.042   .     S
N155   H157    1.044   .     S
N155   H156    1.044   .     S
N158   H160    1.040   .     S
N158   H159    1.046   .     S
N161   H162    1.044   .     S
N161   H163    1.046   .     S
N164   H165    1.044   .     S
N164   H166    1.046   .     S
C167   O168    1.222   .     D
C167   O169    1.398   .     S
O169   H170    1.013   .     S
C171   O173    1.397   .     S
C171   O172    1.220   .     D
O173   H174    1.013   .     S
C175   O176    1.221   .     D
C175   O177    1.398   .     S
O177   H178    1.014   .     S
C179   O180    1.220   .     D
C179   O181    1.398   .     S
O181   H182    1.014   .     S
N183   H185    1.041   .     S
N183   H184    1.043   .     S
N186   H188    1.041   .     S
N186   H187    1.044   .     S
C189   C200    1.412   .     S
C189   O229    1.299   .     A
C189   O227    1.298   .     A
C190   C199    1.411   .     S
C190   O230    1.298   .     A
C190   O228    1.298   .     A
C191   C220    1.397   .     A
C191   H223    1.082   .     S
C191   C193    1.393   .     A
C192   H224    1.082   .     S
C192   C194    1.396   .     A
C192   C219    1.404   .     A
C193   N237    1.429   .     S
C193   C1063   1.407   1_554 S
C194   N240    1.432   .     S
C194   C1064   1.420   .     S
C195   C200    1.399   .     A
C195   N255    1.439   .     S
C195   C479    1.392   .     S
C196   N258    1.439   .     S
C196   C199    1.398   .     A
C196   C762    1.386   1_545 S
C197   C261    1.487   .     S
C197   C199    1.408   .     A
C197   C759    1.392   1_545 S
C198   C265    1.480   .     S
C198   C200    1.405   .     A
C198   C478    1.386   .     S
C201   C269    1.472   .     S
C201   N226    1.374   .     A
C201   C15     1.432   1_655 S
C202   C273    1.474   .     S
C202   N225    1.377   .     A
C203   N225    1.381   .     A
C203   N277    1.429   .     S
C204   N280    1.430   .     S
C204   N226    1.379   .     A
C204   C14     1.431   1_655 S
C205   O233    1.311   .     A
C205   O231    1.323   .     A
C205   C207    1.481   .     S
C206   C208    1.477   .     S
C206   O234    1.317   .     A
C206   O232    1.314   .     A
C207   C211    1.419   .     A
C207   C213    1.421   .     A
C208   C212    1.412   .     A
C208   C214    1.402   .     A
C209   H221    1.077   .     S
C209   C211    1.395   .     A
C209   C217    1.394   .     A
C210   H222    1.067   .     S
C210   C218    1.392   .     A
C210   C212    1.402   .     A
C211   N252    1.433   .     S
C212   N249    1.430   .     S
C213   N246    1.441   .     S
C213   C215    1.398   .     A
C214   N243    1.440   .     S
C214   C216    1.409   .     A
C215   C217    1.409   .     A
C215   C219    1.404   .     A
C216   C220    1.391   .     A
C216   C218    1.410   .     A
C217   C1039   1.407   .     S
C218   C1040   1.420   1_554 S
C219   C1066   1.396   .     S
C220   C1065   1.396   1_554 S
N225   Zn235   2.058   .     S
N226   Zn236   2.058   .     S
O227   Zn235   1.978   .     S
O228   Zn236   1.978   .     S
O229   Zn236   1.989   .     S
O230   Zn235   1.989   .     S
O231   Zn235   1.955   .     S
O232   Zn236   1.955   .     S
O233   Zn236   1.932   .     S
O234   Zn235   1.932   .     S
N237   H239    1.046   .     S
N237   H238    1.046   .     S
N240   H242    1.045   .     S
N240   H241    1.039   .     S
N243   H244    1.043   .     S
N243   H245    1.046   .     S
N246   H248    1.044   .     S
N246   H247    1.042   .     S
N249   H251    1.044   .     S
N249   H250    1.044   .     S
N252   H254    1.040   .     S
N252   H253    1.046   .     S
N255   H256    1.044   .     S
N255   H257    1.046   .     S
N258   H259    1.044   .     S
N258   H260    1.046   .     S
C261   O262    1.222   .     D
C261   O263    1.398   .     S
O263   H264    1.013   .     S
C265   O267    1.397   .     S
C265   O266    1.220   .     D
O267   H268    1.013   .     S
C269   O270    1.221   .     D
C269   O271    1.398   .     S
O271   H272    1.014   .     S
C273   O274    1.220   .     D
C273   O275    1.398   .     S
O275   H276    1.014   .     S
N277   H279    1.041   .     S
N277   H278    1.043   .     S
N280   H282    1.041   .     S
N280   H281    1.044   .     S
C283   C294    1.412   .     S
C283   O323    1.299   .     A
C283   O321    1.298   .     A
C284   C293    1.411   .     S
C284   O324    1.298   .     A
C284   O322    1.298   .     A
C285   C314    1.397   .     A
C285   H317    1.082   .     S
C285   C287    1.393   .     A
C286   H318    1.082   .     S
C286   C288    1.396   .     A
C286   C313    1.404   .     A
C287   N331    1.429   .     S
C287   C1157   1.407   1_554 S
C288   N334    1.432   .     S
C288   C1158   1.420   .     S
C289   C294    1.399   .     A
C289   N349    1.439   .     S
C289   C573    1.392   .     S
C290   N352    1.439   .     S
C290   C293    1.398   .     A
C291   C355    1.487   .     S
C291   C293    1.408   .     A
C292   C359    1.480   .     S
C292   C294    1.405   .     A
C292   C572    1.386   .     S
C295   C363    1.472   .     S
C295   N320    1.374   .     A
C295   C391    1.432   .     S
C296   C367    1.474   .     S
C296   N319    1.377   .     A
C296   C486    1.431   1_455 S
C297   N319    1.381   .     A
C297   N371    1.429   .     S
C297   C483    1.432   1_455 S
C298   N374    1.430   .     S
C298   N320    1.379   .     A
C298   C390    1.431   .     S
C299   O327    1.311   .     A
C299   O325    1.323   .     A
C299   C301    1.481   .     S
C300   C302    1.477   .     S
C300   O328    1.317   .     A
C300   O326    1.314   .     A
C301   C305    1.419   .     A
C301   C307    1.421   .     A
C302   C306    1.412   .     A
C302   C308    1.402   .     A
C303   H315    1.077   .     S
C303   C305    1.395   .     A
C303   C311    1.394   .     A
C304   H316    1.067   .     S
C304   C312    1.392   .     A
C304   C306    1.402   .     A
C305   N346    1.433   .     S
C306   N343    1.430   .     S
C307   N340    1.441   .     S
C307   C309    1.398   .     A
C308   N337    1.440   .     S
C308   C310    1.409   .     A
C309   C311    1.409   .     A
C309   C313    1.404   .     A
C310   C314    1.391   .     A
C310   C312    1.410   .     A
C311   C1133   1.407   .     S
C312   C1134   1.420   1_554 S
C313   C1160   1.396   .     S
C314   C1159   1.396   1_554 S
N319   Zn329   2.058   .     S
N320   Zn330   2.058   .     S
O321   Zn329   1.978   .     S
O322   Zn330   1.978   .     S
O323   Zn330   1.989   .     S
O324   Zn329   1.989   .     S
O325   Zn329   1.955   .     S
O326   Zn330   1.955   .     S
O327   Zn330   1.932   .     S
O328   Zn329   1.932   .     S
N331   H333    1.046   .     S
N331   H332    1.046   .     S
N334   H336    1.045   .     S
N334   H335    1.039   .     S
N337   H338    1.043   .     S
N337   H339    1.046   .     S
N340   H342    1.044   .     S
N340   H341    1.042   .     S
N343   H345    1.044   .     S
N343   H344    1.044   .     S
N346   H348    1.040   .     S
N346   H347    1.046   .     S
N349   H350    1.044   .     S
N349   H351    1.046   .     S
N352   H353    1.044   .     S
N352   H354    1.046   .     S
C355   O356    1.222   .     D
C355   O357    1.398   .     S
O357   H358    1.013   .     S
C359   O361    1.397   .     S
C359   O360    1.220   .     D
O361   H362    1.013   .     S
C363   O364    1.221   .     D
C363   O365    1.398   .     S
O365   H366    1.014   .     S
C367   O368    1.220   .     D
C367   O369    1.398   .     S
O369   H370    1.014   .     S
N371   H373    1.041   .     S
N371   H372    1.043   .     S
N374   H376    1.041   .     S
N374   H375    1.044   .     S
C377   C388    1.412   .     S
C377   O417    1.299   .     A
C377   O415    1.298   .     A
C378   C387    1.411   .     S
C378   O418    1.298   .     A
C378   O416    1.298   .     A
C379   C408    1.397   .     A
C379   H411    1.082   .     S
C379   C381    1.393   .     A
C380   H412    1.082   .     S
C380   C382    1.396   .     A
C380   C407    1.404   .     A
C381   N425    1.429   .     S
C381   C1251   1.407   1_554 S
C382   N428    1.432   .     S
C382   C1252   1.420   .     S
C383   C388    1.399   .     A
C383   N443    1.439   .     S
C383   C667    1.392   .     S
C384   N446    1.439   .     S
C384   C387    1.398   .     A
C385   C449    1.487   .     S
C385   C387    1.408   .     A
C386   C453    1.480   .     S
C386   C388    1.405   .     A
C386   C666    1.386   .     S
C389   C457    1.472   .     S
C389   N414    1.374   .     A
C389   C485    1.432   .     S
C390   C461    1.474   .     S
C390   N413    1.377   .     A
C391   N413    1.381   .     A
C391   N465    1.429   .     S
C392   N468    1.430   .     S
C392   N414    1.379   .     A
C392   C484    1.431   .     S
C393   O421    1.311   .     A
C393   O419    1.323   .     A
C393   C395    1.481   .     S
C394   C396    1.477   .     S
C394   O422    1.317   .     A
C394   O420    1.314   .     A
C395   C399    1.419   .     A
C395   C401    1.421   .     A
C396   C400    1.412   .     A
C396   C402    1.402   .     A
C397   H409    1.077   .     S
C397   C399    1.395   .     A
C397   C405    1.394   .     A
C398   H410    1.067   .     S
C398   C406    1.392   .     A
C398   C400    1.402   .     A
C399   N440    1.433   .     S
C400   N437    1.430   .     S
C401   N434    1.441   .     S
C401   C403    1.398   .     A
C402   N431    1.440   .     S
C402   C404    1.409   .     A
C403   C405    1.409   .     A
C403   C407    1.404   .     A
C404   C408    1.391   .     A
C404   C406    1.410   .     A
C405   C1227   1.407   .     S
C406   C1228   1.420   1_554 S
C407   C1254   1.396   .     S
C408   C1253   1.396   1_554 S
N413   Zn423   2.058   .     S
N414   Zn424   2.058   .     S
O415   Zn423   1.978   .     S
O416   Zn424   1.978   .     S
O417   Zn424   1.989   .     S
O418   Zn423   1.989   .     S
O419   Zn423   1.955   .     S
O420   Zn424   1.955   .     S
O421   Zn424   1.932   .     S
O422   Zn423   1.932   .     S
N425   H427    1.046   .     S
N425   H426    1.046   .     S
N428   H430    1.045   .     S
N428   H429    1.039   .     S
N431   H432    1.043   .     S
N431   H433    1.046   .     S
N434   H436    1.044   .     S
N434   H435    1.042   .     S
N437   H439    1.044   .     S
N437   H438    1.044   .     S
N440   H442    1.040   .     S
N440   H441    1.046   .     S
N443   H444    1.044   .     S
N443   H445    1.046   .     S
N446   H447    1.044   .     S
N446   H448    1.046   .     S
C449   O450    1.222   .     D
C449   O451    1.398   .     S
O451   H452    1.013   .     S
C453   O455    1.397   .     S
C453   O454    1.220   .     D
O455   H456    1.013   .     S
C457   O458    1.221   .     D
C457   O459    1.398   .     S
O459   H460    1.014   .     S
C461   O462    1.220   .     D
C461   O463    1.398   .     S
O463   H464    1.014   .     S
N465   H467    1.041   .     S
N465   H466    1.043   .     S
N468   H470    1.041   .     S
N468   H469    1.044   .     S
C471   C482    1.412   .     S
C471   O511    1.299   .     A
C471   O509    1.298   .     A
C472   C481    1.411   .     S
C472   O512    1.298   .     A
C472   O510    1.298   .     A
C473   C502    1.397   .     A
C473   H505    1.082   .     S
C473   C475    1.393   .     A
C474   H506    1.082   .     S
C474   C476    1.396   .     A
C474   C501    1.404   .     A
C475   N519    1.429   .     S
C475   C1345   1.407   1_554 S
C476   N522    1.432   .     S
C476   C1346   1.420   .     S
C477   C482    1.399   .     A
C477   N537    1.439   .     S
C477   C761    1.392   .     S
C478   N540    1.439   .     S
C478   C481    1.398   .     A
C479   C543    1.487   .     S
C479   C481    1.408   .     A
C480   C547    1.480   .     S
C480   C482    1.405   .     A
C480   C760    1.386   .     S
C483   C551    1.472   .     S
C483   N508    1.374   .     A
C483   C297    1.432   1_655 S
C484   C555    1.474   .     S
C484   N507    1.377   .     A
C485   N507    1.381   .     A
C485   N559    1.429   .     S
C486   N562    1.430   .     S
C486   N508    1.379   .     A
C486   C296    1.431   1_655 S
C487   O515    1.311   .     A
C487   O513    1.323   .     A
C487   C489    1.481   .     S
C488   C490    1.477   .     S
C488   O516    1.317   .     A
C488   O514    1.314   .     A
C489   C493    1.419   .     A
C489   C495    1.421   .     A
C490   C494    1.412   .     A
C490   C496    1.402   .     A
C491   H503    1.077   .     S
C491   C493    1.395   .     A
C491   C499    1.394   .     A
C492   H504    1.067   .     S
C492   C500    1.392   .     A
C492   C494    1.402   .     A
C493   N534    1.433   .     S
C494   N531    1.430   .     S
C495   N528    1.441   .     S
C495   C497    1.398   .     A
C496   N525    1.440   .     S
C496   C498    1.409   .     A
C497   C499    1.409   .     A
C497   C501    1.404   .     A
C498   C502    1.391   .     A
C498   C500    1.410   .     A
C499   C1321   1.407   .     S
C500   C1322   1.420   1_554 S
C501   C1348   1.396   .     S
C502   C1347   1.396   1_554 S
N507   Zn517   2.058   .     S
N508   Zn518   2.058   .     S
O509   Zn517   1.978   .     S
O510   Zn518   1.978   .     S
O511   Zn518   1.989   .     S
O512   Zn517   1.989   .     S
O513   Zn517   1.955   .     S
O514   Zn518   1.955   .     S
O515   Zn518   1.932   .     S
O516   Zn517   1.932   .     S
N519   H521    1.046   .     S
N519   H520    1.046   .     S
N522   H524    1.045   .     S
N522   H523    1.039   .     S
N525   H526    1.043   .     S
N525   H527    1.046   .     S
N528   H530    1.044   .     S
N528   H529    1.042   .     S
N531   H533    1.044   .     S
N531   H532    1.044   .     S
N534   H536    1.040   .     S
N534   H535    1.046   .     S
N537   H538    1.044   .     S
N537   H539    1.046   .     S
N540   H541    1.044   .     S
N540   H542    1.046   .     S
C543   O544    1.222   .     D
C543   O545    1.398   .     S
O545   H546    1.013   .     S
C547   O549    1.397   .     S
C547   O548    1.220   .     D
O549   H550    1.013   .     S
C551   O552    1.221   .     D
C551   O553    1.398   .     S
O553   H554    1.014   .     S
C555   O556    1.220   .     D
C555   O557    1.398   .     S
O557   H558    1.014   .     S
N559   H561    1.041   .     S
N559   H560    1.043   .     S
N562   H564    1.041   .     S
N562   H563    1.044   .     S
C565   C576    1.412   .     S
C565   O605    1.299   .     A
C565   O603    1.298   .     A
C566   C575    1.411   .     S
C566   O606    1.298   .     A
C566   O604    1.298   .     A
C567   C596    1.397   .     A
C567   H599    1.082   .     S
C567   C569    1.393   .     A
C568   H600    1.082   .     S
C568   C570    1.396   .     A
C568   C595    1.404   .     A
C569   N613    1.429   .     S
C569   C1439   1.407   1_554 S
C570   N616    1.432   .     S
C570   C1440   1.420   .     S
C571   C576    1.399   .     A
C571   N631    1.439   .     S
C571   C9      1.392   1_565 S
C572   N634    1.439   .     S
C572   C575    1.398   .     A
C573   C637    1.487   .     S
C573   C575    1.408   .     A
C574   C641    1.480   .     S
C574   C576    1.405   .     A
C574   C8      1.386   1_565 S
C577   C645    1.472   .     S
C577   N602    1.374   .     A
C577   C673    1.432   .     S
C578   C649    1.474   .     S
C578   N601    1.377   .     A
C578   C768    1.431   1_455 S
C579   N601    1.381   .     A
C579   N653    1.429   .     S
C579   C765    1.432   1_455 S
C580   N656    1.430   .     S
C580   N602    1.379   .     A
C580   C672    1.431   .     S
C581   O609    1.311   .     A
C581   O607    1.323   .     A
C581   C583    1.481   .     S
C582   C584    1.477   .     S
C582   O610    1.317   .     A
C582   O608    1.314   .     A
C583   C587    1.419   .     A
C583   C589    1.421   .     A
C584   C588    1.412   .     A
C584   C590    1.402   .     A
C585   H597    1.077   .     S
C585   C587    1.395   .     A
C585   C593    1.394   .     A
C586   H598    1.067   .     S
C586   C594    1.392   .     A
C586   C588    1.402   .     A
C587   N628    1.433   .     S
C588   N625    1.430   .     S
C589   N622    1.441   .     S
C589   C591    1.398   .     A
C590   N619    1.440   .     S
C590   C592    1.409   .     A
C591   C593    1.409   .     A
C591   C595    1.404   .     A
C592   C596    1.391   .     A
C592   C594    1.410   .     A
C593   C1415   1.407   .     S
C594   C1416   1.420   1_554 S
C595   C1442   1.396   .     S
C596   C1441   1.396   1_554 S
N601   Zn611   2.058   .     S
N602   Zn612   2.058   .     S
O603   Zn611   1.978   .     S
O604   Zn612   1.978   .     S
O605   Zn612   1.989   .     S
O606   Zn611   1.989   .     S
O607   Zn611   1.955   .     S
O608   Zn612   1.955   .     S
O609   Zn612   1.932   .     S
O610   Zn611   1.932   .     S
N613   H615    1.046   .     S
N613   H614    1.046   .     S
N616   H618    1.045   .     S
N616   H617    1.039   .     S
N619   H620    1.043   .     S
N619   H621    1.046   .     S
N622   H624    1.044   .     S
N622   H623    1.042   .     S
N625   H627    1.044   .     S
N625   H626    1.044   .     S
N628   H630    1.040   .     S
N628   H629    1.046   .     S
N631   H632    1.044   .     S
N631   H633    1.046   .     S
N634   H635    1.044   .     S
N634   H636    1.046   .     S
C637   O638    1.222   .     D
C637   O639    1.398   .     S
O639   H640    1.013   .     S
C641   O643    1.397   .     S
C641   O642    1.220   .     D
O643   H644    1.013   .     S
C645   O646    1.221   .     D
C645   O647    1.398   .     S
O647   H648    1.014   .     S
C649   O650    1.220   .     D
C649   O651    1.398   .     S
O651   H652    1.014   .     S
N653   H655    1.041   .     S
N653   H654    1.043   .     S
N656   H658    1.041   .     S
N656   H657    1.044   .     S
C659   C670    1.412   .     S
C659   O699    1.299   .     A
C659   O697    1.298   .     A
C660   C669    1.411   .     S
C660   O700    1.298   .     A
C660   O698    1.298   .     A
C661   C690    1.397   .     A
C661   H693    1.082   .     S
C661   C663    1.393   .     A
C662   H694    1.082   .     S
C662   C664    1.396   .     A
C662   C689    1.404   .     A
C663   N707    1.429   .     S
C663   C1533   1.407   1_554 S
C664   N710    1.432   .     S
C664   C1534   1.420   .     S
C665   C670    1.399   .     A
C665   N725    1.439   .     S
C665   C103    1.392   1_565 S
C666   N728    1.439   .     S
C666   C669    1.398   .     A
C667   C731    1.487   .     S
C667   C669    1.408   .     A
C668   C735    1.480   .     S
C668   C670    1.405   .     A
C668   C102    1.386   1_565 S
C671   C739    1.472   .     S
C671   N696    1.374   .     A
C671   C767    1.432   .     S
C672   C743    1.474   .     S
C672   N695    1.377   .     A
C673   N695    1.381   .     A
C673   N747    1.429   .     S
C674   N750    1.430   .     S
C674   N696    1.379   .     A
C674   C766    1.431   .     S
C675   O703    1.311   .     A
C675   O701    1.323   .     A
C675   C677    1.481   .     S
C676   C678    1.477   .     S
C676   O704    1.317   .     A
C676   O702    1.314   .     A
C677   C681    1.419   .     A
C677   C683    1.421   .     A
C678   C682    1.412   .     A
C678   C684    1.402   .     A
C679   H691    1.077   .     S
C679   C681    1.395   .     A
C679   C687    1.394   .     A
C680   H692    1.067   .     S
C680   C688    1.392   .     A
C680   C682    1.402   .     A
C681   N722    1.433   .     S
C682   N719    1.430   .     S
C683   N716    1.441   .     S
C683   C685    1.398   .     A
C684   N713    1.440   .     S
C684   C686    1.409   .     A
C685   C687    1.409   .     A
C685   C689    1.404   .     A
C686   C690    1.391   .     A
C686   C688    1.410   .     A
C687   C1509   1.407   .     S
C688   C1510   1.420   1_554 S
C689   C1536   1.396   .     S
C690   C1535   1.396   1_554 S
N695   Zn705   2.058   .     S
N696   Zn706   2.058   .     S
O697   Zn705   1.978   .     S
O698   Zn706   1.978   .     S
O699   Zn706   1.989   .     S
O700   Zn705   1.989   .     S
O701   Zn705   1.955   .     S
O702   Zn706   1.955   .     S
O703   Zn706   1.932   .     S
O704   Zn705   1.932   .     S
N707   H709    1.046   .     S
N707   H708    1.046   .     S
N710   H712    1.045   .     S
N710   H711    1.039   .     S
N713   H714    1.043   .     S
N713   H715    1.046   .     S
N716   H718    1.044   .     S
N716   H717    1.042   .     S
N719   H721    1.044   .     S
N719   H720    1.044   .     S
N722   H724    1.040   .     S
N722   H723    1.046   .     S
N725   H726    1.044   .     S
N725   H727    1.046   .     S
N728   H729    1.044   .     S
N728   H730    1.046   .     S
C731   O732    1.222   .     D
C731   O733    1.398   .     S
O733   H734    1.013   .     S
C735   O737    1.397   .     S
C735   O736    1.220   .     D
O737   H738    1.013   .     S
C739   O740    1.221   .     D
C739   O741    1.398   .     S
O741   H742    1.014   .     S
C743   O744    1.220   .     D
C743   O745    1.398   .     S
O745   H746    1.014   .     S
N747   H749    1.041   .     S
N747   H748    1.043   .     S
N750   H752    1.041   .     S
N750   H751    1.044   .     S
C753   C764    1.412   .     S
C753   O793    1.299   .     A
C753   O791    1.298   .     A
C754   C763    1.411   .     S
C754   O794    1.298   .     A
C754   O792    1.298   .     A
C755   C784    1.397   .     A
C755   H787    1.082   .     S
C755   C757    1.393   .     A
C756   H788    1.082   .     S
C756   C758    1.396   .     A
C756   C783    1.404   .     A
C757   N801    1.429   .     S
C757   C1627   1.407   1_554 S
C758   N804    1.432   .     S
C758   C1628   1.420   .     S
C759   C764    1.399   .     A
C759   N819    1.439   .     S
C759   C197    1.392   1_565 S
C760   N822    1.439   .     S
C760   C763    1.398   .     A
C761   C825    1.487   .     S
C761   C763    1.408   .     A
C762   C829    1.480   .     S
C762   C764    1.405   .     A
C762   C196    1.386   1_565 S
C765   C833    1.472   .     S
C765   N790    1.374   .     A
C765   C579    1.432   1_655 S
C766   C837    1.474   .     S
C766   N789    1.377   .     A
C767   N789    1.381   .     A
C767   N841    1.429   .     S
C768   N844    1.430   .     S
C768   N790    1.379   .     A
C768   C578    1.431   1_655 S
C769   O797    1.311   .     A
C769   O795    1.323   .     A
C769   C771    1.481   .     S
C770   C772    1.477   .     S
C770   O798    1.317   .     A
C770   O796    1.314   .     A
C771   C775    1.419   .     A
C771   C777    1.421   .     A
C772   C776    1.412   .     A
C772   C778    1.402   .     A
C773   H785    1.077   .     S
C773   C775    1.395   .     A
C773   C781    1.394   .     A
C774   H786    1.067   .     S
C774   C782    1.392   .     A
C774   C776    1.402   .     A
C775   N816    1.433   .     S
C776   N813    1.430   .     S
C777   N810    1.441   .     S
C777   C779    1.398   .     A
C778   N807    1.440   .     S
C778   C780    1.409   .     A
C779   C781    1.409   .     A
C779   C783    1.404   .     A
C780   C784    1.391   .     A
C780   C782    1.410   .     A
C781   C1603   1.407   .     S
C782   C1604   1.420   1_554 S
C783   C1630   1.396   .     S
C784   C1629   1.396   1_554 S
N789   Zn799   2.058   .     S
N790   Zn800   2.058   .     S
O791   Zn799   1.978   .     S
O792   Zn800   1.978   .     S
O793   Zn800   1.989   .     S
O794   Zn799   1.989   .     S
O795   Zn799   1.955   .     S
O796   Zn800   1.955   .     S
O797   Zn800   1.932   .     S
O798   Zn799   1.932   .     S
N801   H803    1.046   .     S
N801   H802    1.046   .     S
N804   H806    1.045   .     S
N804   H805    1.039   .     S
N807   H808    1.043   .     S
N807   H809    1.046   .     S
N810   H812    1.044   .     S
N810   H811    1.042   .     S
N813   H815    1.044   .     S
N813   H814    1.044   .     S
N816   H818    1.040   .     S
N816   H817    1.046   .     S
N819   H820    1.044   .     S
N819   H821    1.046   .     S
N822   H823    1.044   .     S
N822   H824    1.046   .     S
C825   O826    1.222   .     D
C825   O827    1.398   .     S
O827   H828    1.013   .     S
C829   O831    1.397   .     S
C829   O830    1.220   .     D
O831   H832    1.013   .     S
C833   O834    1.221   .     D
C833   O835    1.398   .     S
O835   H836    1.014   .     S
C837   O838    1.220   .     D
C837   O839    1.398   .     S
O839   H840    1.014   .     S
N841   H843    1.041   .     S
N841   H842    1.043   .     S
N844   H846    1.041   .     S
N844   H845    1.044   .     S
C847   C858    1.412   .     S
C847   O887    1.299   .     A
C847   O885    1.298   .     A
C848   C857    1.411   .     S
C848   O888    1.298   .     A
C848   O886    1.298   .     A
C849   C878    1.397   .     A
C849   H881    1.082   .     S
C849   C851    1.393   .     A
C850   H882    1.082   .     S
C850   C852    1.396   .     A
C850   C877    1.404   .     A
C851   N895    1.429   .     S
C852   N898    1.432   .     S
C852   C30     1.420   1_556 S
C853   C858    1.399   .     A
C853   N913    1.439   .     S
C853   C1137   1.392   .     S
C854   N916    1.439   .     S
C854   C857    1.398   .     A
C854   C1420   1.386   1_545 S
C855   C919    1.487   .     S
C855   C857    1.408   .     A
C855   C1417   1.392   1_545 S
C856   C923    1.480   .     S
C856   C858    1.405   .     A
C856   C1136   1.386   .     S
C859   C927    1.472   .     S
C859   N884    1.374   .     A
C859   C955    1.432   .     S
C860   C931    1.474   .     S
C860   N883    1.377   .     A
C860   C1050   1.431   1_455 S
C861   N883    1.381   .     A
C861   N935    1.429   .     S
C861   C1047   1.432   1_455 S
C862   N938    1.430   .     S
C862   N884    1.379   .     A
C862   C954    1.431   .     S
C863   O891    1.311   .     A
C863   O889    1.323   .     A
C863   C865    1.481   .     S
C864   C866    1.477   .     S
C864   O892    1.317   .     A
C864   O890    1.314   .     A
C865   C869    1.419   .     A
C865   C871    1.421   .     A
C866   C870    1.412   .     A
C866   C872    1.402   .     A
C867   H879    1.077   .     S
C867   C869    1.395   .     A
C867   C875    1.394   .     A
C868   H880    1.067   .     S
C868   C876    1.392   .     A
C868   C870    1.402   .     A
C869   N910    1.433   .     S
C870   N907    1.430   .     S
C871   N904    1.441   .     S
C871   C873    1.398   .     A
C872   N901    1.440   .     S
C872   C874    1.409   .     A
C873   C875    1.409   .     A
C873   C877    1.404   .     A
C874   C878    1.391   .     A
C874   C876    1.410   .     A
C875   C5      1.407   1_556 S
C877   C32     1.396   1_556 S
N883   Zn893   2.058   .     S
N884   Zn894   2.058   .     S
O885   Zn893   1.978   .     S
O886   Zn894   1.978   .     S
O887   Zn894   1.989   .     S
O888   Zn893   1.989   .     S
O889   Zn893   1.955   .     S
O890   Zn894   1.955   .     S
O891   Zn894   1.932   .     S
O892   Zn893   1.932   .     S
N895   H897    1.046   .     S
N895   H896    1.046   .     S
N898   H900    1.045   .     S
N898   H899    1.039   .     S
N901   H902    1.043   .     S
N901   H903    1.046   .     S
N904   H906    1.044   .     S
N904   H905    1.042   .     S
N907   H909    1.044   .     S
N907   H908    1.044   .     S
N910   H912    1.040   .     S
N910   H911    1.046   .     S
N913   H914    1.044   .     S
N913   H915    1.046   .     S
N916   H917    1.044   .     S
N916   H918    1.046   .     S
C919   O920    1.222   .     D
C919   O921    1.398   .     S
O921   H922    1.013   .     S
C923   O925    1.397   .     S
C923   O924    1.220   .     D
O925   H926    1.013   .     S
C927   O928    1.221   .     D
C927   O929    1.398   .     S
O929   H930    1.014   .     S
C931   O932    1.220   .     D
C931   O933    1.398   .     S
O933   H934    1.014   .     S
N935   H937    1.041   .     S
N935   H936    1.043   .     S
N938   H940    1.041   .     S
N938   H939    1.044   .     S
C941   C952    1.412   .     S
C941   O981    1.299   .     A
C941   O979    1.298   .     A
C942   C951    1.411   .     S
C942   O982    1.298   .     A
C942   O980    1.298   .     A
C943   C972    1.397   .     A
C943   H975    1.082   .     S
C943   C945    1.393   .     A
C944   H976    1.082   .     S
C944   C946    1.396   .     A
C944   C971    1.404   .     A
C945   N989    1.429   .     S
C946   N992    1.432   .     S
C946   C124    1.420   1_556 S
C947   C952    1.399   .     A
C947   N1007   1.439   .     S
C947   C1231   1.392   .     S
C948   N1010   1.439   .     S
C948   C951    1.398   .     A
C948   C1514   1.386   1_545 S
C949   C1013   1.487   .     S
C949   C951    1.408   .     A
C949   C1511   1.392   1_545 S
C950   C1017   1.480   .     S
C950   C952    1.405   .     A
C950   C1230   1.386   .     S
C953   C1021   1.472   .     S
C953   N978    1.374   .     A
C953   C1049   1.432   .     S
C954   C1025   1.474   .     S
C954   N977    1.377   .     A
C955   N977    1.381   .     A
C955   N1029   1.429   .     S
C956   N1032   1.430   .     S
C956   N978    1.379   .     A
C956   C1048   1.431   .     S
C957   O985    1.311   .     A
C957   O983    1.323   .     A
C957   C959    1.481   .     S
C958   C960    1.477   .     S
C958   O986    1.317   .     A
C958   O984    1.314   .     A
C959   C963    1.419   .     A
C959   C965    1.421   .     A
C960   C964    1.412   .     A
C960   C966    1.402   .     A
C961   H973    1.077   .     S
C961   C963    1.395   .     A
C961   C969    1.394   .     A
C962   H974    1.067   .     S
C962   C970    1.392   .     A
C962   C964    1.402   .     A
C963   N1004   1.433   .     S
C964   N1001   1.430   .     S
C965   N998    1.441   .     S
C965   C967    1.398   .     A
C966   N995    1.440   .     S
C966   C968    1.409   .     A
C967   C969    1.409   .     A
C967   C971    1.404   .     A
C968   C972    1.391   .     A
C968   C970    1.410   .     A
C969   C99     1.407   1_556 S
C971   C126    1.396   1_556 S
N977   Zn987   2.058   .     S
N978   Zn988   2.058   .     S
O979   Zn987   1.978   .     S
O980   Zn988   1.978   .     S
O981   Zn988   1.989   .     S
O982   Zn987   1.989   .     S
O983   Zn987   1.955   .     S
O984   Zn988   1.955   .     S
O985   Zn988   1.932   .     S
O986   Zn987   1.932   .     S
N989   H991    1.046   .     S
N989   H990    1.046   .     S
N992   H994    1.045   .     S
N992   H993    1.039   .     S
N995   H996    1.043   .     S
N995   H997    1.046   .     S
N998   H1000   1.044   .     S
N998   H999    1.042   .     S
N1001  H1003   1.044   .     S
N1001  H1002   1.044   .     S
N1004  H1006   1.040   .     S
N1004  H1005   1.046   .     S
N1007  H1008   1.044   .     S
N1007  H1009   1.046   .     S
N1010  H1011   1.044   .     S
N1010  H1012   1.046   .     S
C1013  O1014   1.222   .     D
C1013  O1015   1.398   .     S
O1015  H1016   1.013   .     S
C1017  O1019   1.397   .     S
C1017  O1018   1.220   .     D
O1019  H1020   1.013   .     S
C1021  O1022   1.221   .     D
C1021  O1023   1.398   .     S
O1023  H1024   1.014   .     S
C1025  O1026   1.220   .     D
C1025  O1027   1.398   .     S
O1027  H1028   1.014   .     S
N1029  H1031   1.041   .     S
N1029  H1030   1.043   .     S
N1032  H1034   1.041   .     S
N1032  H1033   1.044   .     S
C1035  C1046   1.412   .     S
C1035  O1075   1.299   .     A
C1035  O1073   1.298   .     A
C1036  C1045   1.411   .     S
C1036  O1076   1.298   .     A
C1036  O1074   1.298   .     A
C1037  C1066   1.397   .     A
C1037  H1069   1.082   .     S
C1037  C1039   1.393   .     A
C1038  H1070   1.082   .     S
C1038  C1040   1.396   .     A
C1038  C1065   1.404   .     A
C1039  N1083   1.429   .     S
C1040  N1086   1.432   .     S
C1040  C218    1.420   1_556 S
C1041  C1046   1.399   .     A
C1041  N1101   1.439   .     S
C1041  C1325   1.392   .     S
C1042  N1104   1.439   .     S
C1042  C1045   1.398   .     A
C1042  C1608   1.386   1_545 S
C1043  C1107   1.487   .     S
C1043  C1045   1.408   .     A
C1043  C1605   1.392   1_545 S
C1044  C1111   1.480   .     S
C1044  C1046   1.405   .     A
C1044  C1324   1.386   .     S
C1047  C1115   1.472   .     S
C1047  N1072   1.374   .     A
C1047  C861    1.432   1_655 S
C1048  C1119   1.474   .     S
C1048  N1071   1.377   .     A
C1049  N1071   1.381   .     A
C1049  N1123   1.429   .     S
C1050  N1126   1.430   .     S
C1050  N1072   1.379   .     A
C1050  C860    1.431   1_655 S
C1051  O1079   1.311   .     A
C1051  O1077   1.323   .     A
C1051  C1053   1.481   .     S
C1052  C1054   1.477   .     S
C1052  O1080   1.317   .     A
C1052  O1078   1.314   .     A
C1053  C1057   1.419   .     A
C1053  C1059   1.421   .     A
C1054  C1058   1.412   .     A
C1054  C1060   1.402   .     A
C1055  H1067   1.077   .     S
C1055  C1057   1.395   .     A
C1055  C1063   1.394   .     A
C1056  H1068   1.067   .     S
C1056  C1064   1.392   .     A
C1056  C1058   1.402   .     A
C1057  N1098   1.433   .     S
C1058  N1095   1.430   .     S
C1059  N1092   1.441   .     S
C1059  C1061   1.398   .     A
C1060  N1089   1.440   .     S
C1060  C1062   1.409   .     A
C1061  C1063   1.409   .     A
C1061  C1065   1.404   .     A
C1062  C1066   1.391   .     A
C1062  C1064   1.410   .     A
C1063  C193    1.407   1_556 S
C1065  C220    1.396   1_556 S
N1071  Zn1081  2.058   .     S
N1072  Zn1082  2.058   .     S
O1073  Zn1081  1.978   .     S
O1074  Zn1082  1.978   .     S
O1075  Zn1082  1.989   .     S
O1076  Zn1081  1.989   .     S
O1077  Zn1081  1.955   .     S
O1078  Zn1082  1.955   .     S
O1079  Zn1082  1.932   .     S
O1080  Zn1081  1.932   .     S
N1083  H1085   1.046   .     S
N1083  H1084   1.046   .     S
N1086  H1088   1.045   .     S
N1086  H1087   1.039   .     S
N1089  H1090   1.043   .     S
N1089  H1091   1.046   .     S
N1092  H1094   1.044   .     S
N1092  H1093   1.042   .     S
N1095  H1097   1.044   .     S
N1095  H1096   1.044   .     S
N1098  H1100   1.040   .     S
N1098  H1099   1.046   .     S
N1101  H1102   1.044   .     S
N1101  H1103   1.046   .     S
N1104  H1105   1.044   .     S
N1104  H1106   1.046   .     S
C1107  O1108   1.222   .     D
C1107  O1109   1.398   .     S
O1109  H1110   1.013   .     S
C1111  O1113   1.397   .     S
C1111  O1112   1.220   .     D
O1113  H1114   1.013   .     S
C1115  O1116   1.221   .     D
C1115  O1117   1.398   .     S
O1117  H1118   1.014   .     S
C1119  O1120   1.220   .     D
C1119  O1121   1.398   .     S
O1121  H1122   1.014   .     S
N1123  H1125   1.041   .     S
N1123  H1124   1.043   .     S
N1126  H1128   1.041   .     S
N1126  H1127   1.044   .     S
C1129  C1140   1.412   .     S
C1129  O1169   1.299   .     A
C1129  O1167   1.298   .     A
C1130  C1139   1.411   .     S
C1130  O1170   1.298   .     A
C1130  O1168   1.298   .     A
C1131  C1160   1.397   .     A
C1131  H1163   1.082   .     S
C1131  C1133   1.393   .     A
C1132  H1164   1.082   .     S
C1132  C1134   1.396   .     A
C1132  C1159   1.404   .     A
C1133  N1177   1.429   .     S
C1134  N1180   1.432   .     S
C1134  C312    1.420   1_556 S
C1135  C1140   1.399   .     A
C1135  N1195   1.439   .     S
C1135  C1419   1.392   .     S
C1136  N1198   1.439   .     S
C1136  C1139   1.398   .     A
C1137  C1201   1.487   .     S
C1137  C1139   1.408   .     A
C1138  C1205   1.480   .     S
C1138  C1140   1.405   .     A
C1138  C1418   1.386   .     S
C1141  C1209   1.472   .     S
C1141  N1166   1.374   .     A
C1141  C1237   1.432   .     S
C1142  C1213   1.474   .     S
C1142  N1165   1.377   .     A
C1142  C1332   1.431   1_455 S
C1143  N1165   1.381   .     A
C1143  N1217   1.429   .     S
C1143  C1329   1.432   1_455 S
C1144  N1220   1.430   .     S
C1144  N1166   1.379   .     A
C1144  C1236   1.431   .     S
C1145  O1173   1.311   .     A
C1145  O1171   1.323   .     A
C1145  C1147   1.481   .     S
C1146  C1148   1.477   .     S
C1146  O1174   1.317   .     A
C1146  O1172   1.314   .     A
C1147  C1151   1.419   .     A
C1147  C1153   1.421   .     A
C1148  C1152   1.412   .     A
C1148  C1154   1.402   .     A
C1149  H1161   1.077   .     S
C1149  C1151   1.395   .     A
C1149  C1157   1.394   .     A
C1150  H1162   1.067   .     S
C1150  C1158   1.392   .     A
C1150  C1152   1.402   .     A
C1151  N1192   1.433   .     S
C1152  N1189   1.430   .     S
C1153  N1186   1.441   .     S
C1153  C1155   1.398   .     A
C1154  N1183   1.440   .     S
C1154  C1156   1.409   .     A
C1155  C1157   1.409   .     A
C1155  C1159   1.404   .     A
C1156  C1160   1.391   .     A
C1156  C1158   1.410   .     A
C1157  C287    1.407   1_556 S
C1159  C314    1.396   1_556 S
N1165  Zn1175  2.058   .     S
N1166  Zn1176  2.058   .     S
O1167  Zn1175  1.978   .     S
O1168  Zn1176  1.978   .     S
O1169  Zn1176  1.989   .     S
O1170  Zn1175  1.989   .     S
O1171  Zn1175  1.955   .     S
O1172  Zn1176  1.955   .     S
O1173  Zn1176  1.932   .     S
O1174  Zn1175  1.932   .     S
N1177  H1179   1.046   .     S
N1177  H1178   1.046   .     S
N1180  H1182   1.045   .     S
N1180  H1181   1.039   .     S
N1183  H1184   1.043   .     S
N1183  H1185   1.046   .     S
N1186  H1188   1.044   .     S
N1186  H1187   1.042   .     S
N1189  H1191   1.044   .     S
N1189  H1190   1.044   .     S
N1192  H1194   1.040   .     S
N1192  H1193   1.046   .     S
N1195  H1196   1.044   .     S
N1195  H1197   1.046   .     S
N1198  H1199   1.044   .     S
N1198  H1200   1.046   .     S
C1201  O1202   1.222   .     D
C1201  O1203   1.398   .     S
O1203  H1204   1.013   .     S
C1205  O1207   1.397   .     S
C1205  O1206   1.220   .     D
O1207  H1208   1.013   .     S
C1209  O1210   1.221   .     D
C1209  O1211   1.398   .     S
O1211  H1212   1.014   .     S
C1213  O1214   1.220   .     D
C1213  O1215   1.398   .     S
O1215  H1216   1.014   .     S
N1217  H1219   1.041   .     S
N1217  H1218   1.043   .     S
N1220  H1222   1.041   .     S
N1220  H1221   1.044   .     S
C1223  C1234   1.412   .     S
C1223  O1263   1.299   .     A
C1223  O1261   1.298   .     A
C1224  C1233   1.411   .     S
C1224  O1264   1.298   .     A
C1224  O1262   1.298   .     A
C1225  C1254   1.397   .     A
C1225  H1257   1.082   .     S
C1225  C1227   1.393   .     A
C1226  H1258   1.082   .     S
C1226  C1228   1.396   .     A
C1226  C1253   1.404   .     A
C1227  N1271   1.429   .     S
C1228  N1274   1.432   .     S
C1228  C406    1.420   1_556 S
C1229  C1234   1.399   .     A
C1229  N1289   1.439   .     S
C1229  C1513   1.392   .     S
C1230  N1292   1.439   .     S
C1230  C1233   1.398   .     A
C1231  C1295   1.487   .     S
C1231  C1233   1.408   .     A
C1232  C1299   1.480   .     S
C1232  C1234   1.405   .     A
C1232  C1512   1.386   .     S
C1235  C1303   1.472   .     S
C1235  N1260   1.374   .     A
C1235  C1331   1.432   .     S
C1236  C1307   1.474   .     S
C1236  N1259   1.377   .     A
C1237  N1259   1.381   .     A
C1237  N1311   1.429   .     S
C1238  N1314   1.430   .     S
C1238  N1260   1.379   .     A
C1238  C1330   1.431   .     S
C1239  O1267   1.311   .     A
C1239  O1265   1.323   .     A
C1239  C1241   1.481   .     S
C1240  C1242   1.477   .     S
C1240  O1268   1.317   .     A
C1240  O1266   1.314   .     A
C1241  C1245   1.419   .     A
C1241  C1247   1.421   .     A
C1242  C1246   1.412   .     A
C1242  C1248   1.402   .     A
C1243  H1255   1.077   .     S
C1243  C1245   1.395   .     A
C1243  C1251   1.394   .     A
C1244  H1256   1.067   .     S
C1244  C1252   1.392   .     A
C1244  C1246   1.402   .     A
C1245  N1286   1.433   .     S
C1246  N1283   1.430   .     S
C1247  N1280   1.441   .     S
C1247  C1249   1.398   .     A
C1248  N1277   1.440   .     S
C1248  C1250   1.409   .     A
C1249  C1251   1.409   .     A
C1249  C1253   1.404   .     A
C1250  C1254   1.391   .     A
C1250  C1252   1.410   .     A
C1251  C381    1.407   1_556 S
C1253  C408    1.396   1_556 S
N1259  Zn1269  2.058   .     S
N1260  Zn1270  2.058   .     S
O1261  Zn1269  1.978   .     S
O1262  Zn1270  1.978   .     S
O1263  Zn1270  1.989   .     S
O1264  Zn1269  1.989   .     S
O1265  Zn1269  1.955   .     S
O1266  Zn1270  1.955   .     S
O1267  Zn1270  1.932   .     S
O1268  Zn1269  1.932   .     S
N1271  H1273   1.046   .     S
N1271  H1272   1.046   .     S
N1274  H1276   1.045   .     S
N1274  H1275   1.039   .     S
N1277  H1278   1.043   .     S
N1277  H1279   1.046   .     S
N1280  H1282   1.044   .     S
N1280  H1281   1.042   .     S
N1283  H1285   1.044   .     S
N1283  H1284   1.044   .     S
N1286  H1288   1.040   .     S
N1286  H1287   1.046   .     S
N1289  H1290   1.044   .     S
N1289  H1291   1.046   .     S
N1292  H1293   1.044   .     S
N1292  H1294   1.046   .     S
C1295  O1296   1.222   .     D
C1295  O1297   1.398   .     S
O1297  H1298   1.013   .     S
C1299  O1301   1.397   .     S
C1299  O1300   1.220   .     D
O1301  H1302   1.013   .     S
C1303  O1304   1.221   .     D
C1303  O1305   1.398   .     S
O1305  H1306   1.014   .     S
C1307  O1308   1.220   .     D
C1307  O1309   1.398   .     S
O1309  H1310   1.014   .     S
N1311  H1313   1.041   .     S
N1311  H1312   1.043   .     S
N1314  H1316   1.041   .     S
N1314  H1315   1.044   .     S
C1317  C1328   1.412   .     S
C1317  O1357   1.299   .     A
C1317  O1355   1.298   .     A
C1318  C1327   1.411   .     S
C1318  O1358   1.298   .     A
C1318  O1356   1.298   .     A
C1319  C1348   1.397   .     A
C1319  H1351   1.082   .     S
C1319  C1321   1.393   .     A
C1320  H1352   1.082   .     S
C1320  C1322   1.396   .     A
C1320  C1347   1.404   .     A
C1321  N1365   1.429   .     S
C1322  N1368   1.432   .     S
C1322  C500    1.420   1_556 S
C1323  C1328   1.399   .     A
C1323  N1383   1.439   .     S
C1323  C1607   1.392   .     S
C1324  N1386   1.439   .     S
C1324  C1327   1.398   .     A
C1325  C1389   1.487   .     S
C1325  C1327   1.408   .     A
C1326  C1393   1.480   .     S
C1326  C1328   1.405   .     A
C1326  C1606   1.386   .     S
C1329  C1397   1.472   .     S
C1329  N1354   1.374   .     A
C1329  C1143   1.432   1_655 S
C1330  C1401   1.474   .     S
C1330  N1353   1.377   .     A
C1331  N1353   1.381   .     A
C1331  N1405   1.429   .     S
C1332  N1408   1.430   .     S
C1332  N1354   1.379   .     A
C1332  C1142   1.431   1_655 S
C1333  O1361   1.311   .     A
C1333  O1359   1.323   .     A
C1333  C1335   1.481   .     S
C1334  C1336   1.477   .     S
C1334  O1362   1.317   .     A
C1334  O1360   1.314   .     A
C1335  C1339   1.419   .     A
C1335  C1341   1.421   .     A
C1336  C1340   1.412   .     A
C1336  C1342   1.402   .     A
C1337  H1349   1.077   .     S
C1337  C1339   1.395   .     A
C1337  C1345   1.394   .     A
C1338  H1350   1.067   .     S
C1338  C1346   1.392   .     A
C1338  C1340   1.402   .     A
C1339  N1380   1.433   .     S
C1340  N1377   1.430   .     S
C1341  N1374   1.441   .     S
C1341  C1343   1.398   .     A
C1342  N1371   1.440   .     S
C1342  C1344   1.409   .     A
C1343  C1345   1.409   .     A
C1343  C1347   1.404   .     A
C1344  C1348   1.391   .     A
C1344  C1346   1.410   .     A
C1345  C475    1.407   1_556 S
C1347  C502    1.396   1_556 S
N1353  Zn1363  2.058   .     S
N1354  Zn1364  2.058   .     S
O1355  Zn1363  1.978   .     S
O1356  Zn1364  1.978   .     S
O1357  Zn1364  1.989   .     S
O1358  Zn1363  1.989   .     S
O1359  Zn1363  1.955   .     S
O1360  Zn1364  1.955   .     S
O1361  Zn1364  1.932   .     S
O1362  Zn1363  1.932   .     S
N1365  H1367   1.046   .     S
N1365  H1366   1.046   .     S
N1368  H1370   1.045   .     S
N1368  H1369   1.039   .     S
N1371  H1372   1.043   .     S
N1371  H1373   1.046   .     S
N1374  H1376   1.044   .     S
N1374  H1375   1.042   .     S
N1377  H1379   1.044   .     S
N1377  H1378   1.044   .     S
N1380  H1382   1.040   .     S
N1380  H1381   1.046   .     S
N1383  H1384   1.044   .     S
N1383  H1385   1.046   .     S
N1386  H1387   1.044   .     S
N1386  H1388   1.046   .     S
C1389  O1390   1.222   .     D
C1389  O1391   1.398   .     S
O1391  H1392   1.013   .     S
C1393  O1395   1.397   .     S
C1393  O1394   1.220   .     D
O1395  H1396   1.013   .     S
C1397  O1398   1.221   .     D
C1397  O1399   1.398   .     S
O1399  H1400   1.014   .     S
C1401  O1402   1.220   .     D
C1401  O1403   1.398   .     S
O1403  H1404   1.014   .     S
N1405  H1407   1.041   .     S
N1405  H1406   1.043   .     S
N1408  H1410   1.041   .     S
N1408  H1409   1.044   .     S
C1411  C1422   1.412   .     S
C1411  O1451   1.299   .     A
C1411  O1449   1.298   .     A
C1412  C1421   1.411   .     S
C1412  O1452   1.298   .     A
C1412  O1450   1.298   .     A
C1413  C1442   1.397   .     A
C1413  H1445   1.082   .     S
C1413  C1415   1.393   .     A
C1414  H1446   1.082   .     S
C1414  C1416   1.396   .     A
C1414  C1441   1.404   .     A
C1415  N1459   1.429   .     S
C1416  N1462   1.432   .     S
C1416  C594    1.420   1_556 S
C1417  C1422   1.399   .     A
C1417  N1477   1.439   .     S
C1417  C855    1.392   1_565 S
C1418  N1480   1.439   .     S
C1418  C1421   1.398   .     A
C1419  C1483   1.487   .     S
C1419  C1421   1.408   .     A
C1420  C1487   1.480   .     S
C1420  C1422   1.405   .     A
C1420  C854    1.386   1_565 S
C1423  C1491   1.472   .     S
C1423  N1448   1.374   .     A
C1423  C1519   1.432   .     S
C1424  C1495   1.474   .     S
C1424  N1447   1.377   .     A
C1424  C1614   1.431   1_455 S
C1425  N1447   1.381   .     A
C1425  N1499   1.429   .     S
C1425  C1611   1.432   1_455 S
C1426  N1502   1.430   .     S
C1426  N1448   1.379   .     A
C1426  C1518   1.431   .     S
C1427  O1455   1.311   .     A
C1427  O1453   1.323   .     A
C1427  C1429   1.481   .     S
C1428  C1430   1.477   .     S
C1428  O1456   1.317   .     A
C1428  O1454   1.314   .     A
C1429  C1433   1.419   .     A
C1429  C1435   1.421   .     A
C1430  C1434   1.412   .     A
C1430  C1436   1.402   .     A
C1431  H1443   1.077   .     S
C1431  C1433   1.395   .     A
C1431  C1439   1.394   .     A
C1432  H1444   1.067   .     S
C1432  C1440   1.392   .     A
C1432  C1434   1.402   .     A
C1433  N1474   1.433   .     S
C1434  N1471   1.430   .     S
C1435  N1468   1.441   .     S
C1435  C1437   1.398   .     A
C1436  N1465   1.440   .     S
C1436  C1438   1.409   .     A
C1437  C1439   1.409   .     A
C1437  C1441   1.404   .     A
C1438  C1442   1.391   .     A
C1438  C1440   1.410   .     A
C1439  C569    1.407   1_556 S
C1441  C596    1.396   1_556 S
N1447  Zn1457  2.058   .     S
N1448  Zn1458  2.058   .     S
O1449  Zn1457  1.978   .     S
O1450  Zn1458  1.978   .     S
O1451  Zn1458  1.989   .     S
O1452  Zn1457  1.989   .     S
O1453  Zn1457  1.955   .     S
O1454  Zn1458  1.955   .     S
O1455  Zn1458  1.932   .     S
O1456  Zn1457  1.932   .     S
N1459  H1461   1.046   .     S
N1459  H1460   1.046   .     S
N1462  H1464   1.045   .     S
N1462  H1463   1.039   .     S
N1465  H1466   1.043   .     S
N1465  H1467   1.046   .     S
N1468  H1470   1.044   .     S
N1468  H1469   1.042   .     S
N1471  H1473   1.044   .     S
N1471  H1472   1.044   .     S
N1474  H1476   1.040   .     S
N1474  H1475   1.046   .     S
N1477  H1478   1.044   .     S
N1477  H1479   1.046   .     S
N1480  H1481   1.044   .     S
N1480  H1482   1.046   .     S
C1483  O1484   1.222   .     D
C1483  O1485   1.398   .     S
O1485  H1486   1.013   .     S
C1487  O1489   1.397   .     S
C1487  O1488   1.220   .     D
O1489  H1490   1.013   .     S
C1491  O1492   1.221   .     D
C1491  O1493   1.398   .     S
O1493  H1494   1.014   .     S
C1495  O1496   1.220   .     D
C1495  O1497   1.398   .     S
O1497  H1498   1.014   .     S
N1499  H1501   1.041   .     S
N1499  H1500   1.043   .     S
N1502  H1504   1.041   .     S
N1502  H1503   1.044   .     S
C1505  C1516   1.412   .     S
C1505  O1545   1.299   .     A
C1505  O1543   1.298   .     A
C1506  C1515   1.411   .     S
C1506  O1546   1.298   .     A
C1506  O1544   1.298   .     A
C1507  C1536   1.397   .     A
C1507  H1539   1.082   .     S
C1507  C1509   1.393   .     A
C1508  H1540   1.082   .     S
C1508  C1510   1.396   .     A
C1508  C1535   1.404   .     A
C1509  N1553   1.429   .     S
C1510  N1556   1.432   .     S
C1510  C688    1.420   1_556 S
C1511  C1516   1.399   .     A
C1511  N1571   1.439   .     S
C1511  C949    1.392   1_565 S
C1512  N1574   1.439   .     S
C1512  C1515   1.398   .     A
C1513  C1577   1.487   .     S
C1513  C1515   1.408   .     A
C1514  C1581   1.480   .     S
C1514  C1516   1.405   .     A
C1514  C948    1.386   1_565 S
C1517  C1585   1.472   .     S
C1517  N1542   1.374   .     A
C1517  C1613   1.432   .     S
C1518  C1589   1.474   .     S
C1518  N1541   1.377   .     A
C1519  N1541   1.381   .     A
C1519  N1593   1.429   .     S
C1520  N1596   1.430   .     S
C1520  N1542   1.379   .     A
C1520  C1612   1.431   .     S
C1521  O1549   1.311   .     A
C1521  O1547   1.323   .     A
C1521  C1523   1.481   .     S
C1522  C1524   1.477   .     S
C1522  O1550   1.317   .     A
C1522  O1548   1.314   .     A
C1523  C1527   1.419   .     A
C1523  C1529   1.421   .     A
C1524  C1528   1.412   .     A
C1524  C1530   1.402   .     A
C1525  H1537   1.077   .     S
C1525  C1527   1.395   .     A
C1525  C1533   1.394   .     A
C1526  H1538   1.067   .     S
C1526  C1534   1.392   .     A
C1526  C1528   1.402   .     A
C1527  N1568   1.433   .     S
C1528  N1565   1.430   .     S
C1529  N1562   1.441   .     S
C1529  C1531   1.398   .     A
C1530  N1559   1.440   .     S
C1530  C1532   1.409   .     A
C1531  C1533   1.409   .     A
C1531  C1535   1.404   .     A
C1532  C1536   1.391   .     A
C1532  C1534   1.410   .     A
C1533  C663    1.407   1_556 S
C1535  C690    1.396   1_556 S
N1541  Zn1551  2.058   .     S
N1542  Zn1552  2.058   .     S
O1543  Zn1551  1.978   .     S
O1544  Zn1552  1.978   .     S
O1545  Zn1552  1.989   .     S
O1546  Zn1551  1.989   .     S
O1547  Zn1551  1.955   .     S
O1548  Zn1552  1.955   .     S
O1549  Zn1552  1.932   .     S
O1550  Zn1551  1.932   .     S
N1553  H1555   1.046   .     S
N1553  H1554   1.046   .     S
N1556  H1558   1.045   .     S
N1556  H1557   1.039   .     S
N1559  H1560   1.043   .     S
N1559  H1561   1.046   .     S
N1562  H1564   1.044   .     S
N1562  H1563   1.042   .     S
N1565  H1567   1.044   .     S
N1565  H1566   1.044   .     S
N1568  H1570   1.040   .     S
N1568  H1569   1.046   .     S
N1571  H1572   1.044   .     S
N1571  H1573   1.046   .     S
N1574  H1575   1.044   .     S
N1574  H1576   1.046   .     S
C1577  O1578   1.222   .     D
C1577  O1579   1.398   .     S
O1579  H1580   1.013   .     S
C1581  O1583   1.397   .     S
C1581  O1582   1.220   .     D
O1583  H1584   1.013   .     S
C1585  O1586   1.221   .     D
C1585  O1587   1.398   .     S
O1587  H1588   1.014   .     S
C1589  O1590   1.220   .     D
C1589  O1591   1.398   .     S
O1591  H1592   1.014   .     S
N1593  H1595   1.041   .     S
N1593  H1594   1.043   .     S
N1596  H1598   1.041   .     S
N1596  H1597   1.044   .     S
C1599  C1610   1.412   .     S
C1599  O1639   1.299   .     A
C1599  O1637   1.298   .     A
C1600  C1609   1.411   .     S
C1600  O1640   1.298   .     A
C1600  O1638   1.298   .     A
C1601  C1630   1.397   .     A
C1601  H1633   1.082   .     S
C1601  C1603   1.393   .     A
C1602  H1634   1.082   .     S
C1602  C1604   1.396   .     A
C1602  C1629   1.404   .     A
C1603  N1647   1.429   .     S
C1604  N1650   1.432   .     S
C1604  C782    1.420   1_556 S
C1605  C1610   1.399   .     A
C1605  N1665   1.439   .     S
C1605  C1043   1.392   1_565 S
C1606  N1668   1.439   .     S
C1606  C1609   1.398   .     A
C1607  C1671   1.487   .     S
C1607  C1609   1.408   .     A
C1608  C1675   1.480   .     S
C1608  C1610   1.405   .     A
C1608  C1042   1.386   1_565 S
C1611  C1679   1.472   .     S
C1611  N1636   1.374   .     A
C1611  C1425   1.432   1_655 S
C1612  C1683   1.474   .     S
C1612  N1635   1.377   .     A
C1613  N1635   1.381   .     A
C1613  N1687   1.429   .     S
C1614  N1690   1.430   .     S
C1614  N1636   1.379   .     A
C1614  C1424   1.431   1_655 S
C1615  O1643   1.311   .     A
C1615  O1641   1.323   .     A
C1615  C1617   1.481   .     S
C1616  C1618   1.477   .     S
C1616  O1644   1.317   .     A
C1616  O1642   1.314   .     A
C1617  C1621   1.419   .     A
C1617  C1623   1.421   .     A
C1618  C1622   1.412   .     A
C1618  C1624   1.402   .     A
C1619  H1631   1.077   .     S
C1619  C1621   1.395   .     A
C1619  C1627   1.394   .     A
C1620  H1632   1.067   .     S
C1620  C1628   1.392   .     A
C1620  C1622   1.402   .     A
C1621  N1662   1.433   .     S
C1622  N1659   1.430   .     S
C1623  N1656   1.441   .     S
C1623  C1625   1.398   .     A
C1624  N1653   1.440   .     S
C1624  C1626   1.409   .     A
C1625  C1627   1.409   .     A
C1625  C1629   1.404   .     A
C1626  C1630   1.391   .     A
C1626  C1628   1.410   .     A
C1627  C757    1.407   1_556 S
C1629  C784    1.396   1_556 S
N1635  Zn1645  2.058   .     S
N1636  Zn1646  2.058   .     S
O1637  Zn1645  1.978   .     S
O1638  Zn1646  1.978   .     S
O1639  Zn1646  1.989   .     S
O1640  Zn1645  1.989   .     S
O1641  Zn1645  1.955   .     S
O1642  Zn1646  1.955   .     S
O1643  Zn1646  1.932   .     S
O1644  Zn1645  1.932   .     S
N1647  H1649   1.046   .     S
N1647  H1648   1.046   .     S
N1650  H1652   1.045   .     S
N1650  H1651   1.039   .     S
N1653  H1654   1.043   .     S
N1653  H1655   1.046   .     S
N1656  H1658   1.044   .     S
N1656  H1657   1.042   .     S
N1659  H1661   1.044   .     S
N1659  H1660   1.044   .     S
N1662  H1664   1.040   .     S
N1662  H1663   1.046   .     S
N1665  H1666   1.044   .     S
N1665  H1667   1.046   .     S
N1668  H1669   1.044   .     S
N1668  H1670   1.046   .     S
C1671  O1672   1.222   .     D
C1671  O1673   1.398   .     S
O1673  H1674   1.013   .     S
C1675  O1677   1.397   .     S
C1675  O1676   1.220   .     D
O1677  H1678   1.013   .     S
C1679  O1680   1.221   .     D
C1679  O1681   1.398   .     S
O1681  H1682   1.014   .     S
C1683  O1684   1.220   .     D
C1683  O1685   1.398   .     S
O1685  H1686   1.014   .     S
N1687  H1689   1.041   .     S
N1687  H1688   1.043   .     S
N1690  H1692   1.041   .     S
N1690  H1691   1.044   .     S
