data_str_m1_o1_o17_pcu_sym.61
_audit_creation_date              2020-01-03
_audit_creation_method            'Materials Studio'
_symmetry_space_group_name_H-M    'P1'
_symmetry_Int_Tables_number       1
_symmetry_cell_setting            triclinic
loop_
_symmetry_equiv_pos_as_xyz
  x,y,z
_cell_length_a                    36.7626
_cell_length_b                    36.7334
_cell_length_c                    34.4191
_cell_angle_alpha                 89.9673
_cell_angle_beta                  90.1146
_cell_angle_gamma                 89.9726
loop_
_atom_site_label
_atom_site_type_symbol
_atom_site_fract_x
_atom_site_fract_y
_atom_site_fract_z
_atom_site_U_iso_or_equiv
_atom_site_adp_type
_atom_site_occupancy
Zn1    Zn    0.20660  -0.00000   0.21735   0.00000  Uiso   1.00
Zn2    Zn    0.29341  -0.00000   0.78265   0.00000  Uiso   1.00
Zn3    Zn    0.00000   0.20660   0.21735   0.00000  Uiso   1.00
Zn4    Zn    0.00000   0.29341   0.78265   0.00000  Uiso   1.00
Zn5    Zn    0.29341  -0.00000   0.21735   0.00000  Uiso   1.00
Zn6    Zn    0.20660  -0.00000   0.78265   0.00000  Uiso   1.00
Zn7    Zn    0.00000   0.29341   0.21735   0.00000  Uiso   1.00
Zn8    Zn    0.00000   0.20660   0.78265   0.00000  Uiso   1.00
Zn9    Zn    0.45660   0.25000   0.71735   0.00000  Uiso   1.00
Zn10   Zn    0.04341   0.25000   0.28265   0.00000  Uiso   1.00
Zn11   Zn    0.25000   0.45660   0.71735   0.00000  Uiso   1.00
Zn12   Zn    0.25000   0.04340   0.28265   0.00000  Uiso   1.00
Zn13   Zn    0.04341   0.25000   0.71735   0.00000  Uiso   1.00
Zn14   Zn    0.45660   0.25000   0.28265   0.00000  Uiso   1.00
Zn15   Zn    0.25000   0.04340   0.71735   0.00000  Uiso   1.00
Zn16   Zn    0.25000   0.45660   0.28265   0.00000  Uiso   1.00
C17    C     0.46783   0.25622   0.41846   0.00000  Uiso   1.00
C18    C     0.03246   0.24421   0.58151   0.00000  Uiso   1.00
C19    C     0.24349   0.46756   0.41847   0.00000  Uiso   1.00
C20    C     0.25820   0.03196   0.58127   0.00000  Uiso   1.00
C21    C     0.03238   0.24319   0.41859   0.00000  Uiso   1.00
C22    C     0.46767   0.25590   0.58129   0.00000  Uiso   1.00
C23    C     0.25760   0.03191   0.41844   0.00000  Uiso   1.00
C24    C     0.24445   0.46752   0.58139   0.00000  Uiso   1.00
C25    C     0.28231   0.00593   0.91871   0.00000  Uiso   1.00
C26    C     0.21765   0.49318   0.08144   0.00000  Uiso   1.00
C27    C     0.49134   0.28178   0.91864   0.00000  Uiso   1.00
C28    C     0.00624   0.21747   0.08154   0.00000  Uiso   1.00
C29    C     0.21750   0.49435   0.91851   0.00000  Uiso   1.00
C30    C     0.28218   0.00623   0.08153   0.00000  Uiso   1.00
C31    C     0.00532   0.21738   0.91860   0.00000  Uiso   1.00
C32    C     0.49214   0.28184   0.08144   0.00000  Uiso   1.00
C33    C     0.00010   0.24978   0.39832   0.00000  Uiso   1.00
C34    C     0.00002   0.25004   0.60162   0.00000  Uiso   1.00
C35    C     0.25026   0.49982   0.39827   0.00000  Uiso   1.00
C36    C     0.25086   0.49988   0.60157   0.00000  Uiso   1.00
C37    C     0.24995   0.00010   0.89838   0.00000  Uiso   1.00
C38    C     0.24992   0.49978   0.10169   0.00000  Uiso   1.00
C39    C     0.49892   0.24976   0.89839   0.00000  Uiso   1.00
C40    C     0.49959   0.24979   0.10169   0.00000  Uiso   1.00
O41    O     0.25000  -0.00000   0.25000   0.00000  Uiso   1.00
O42    O     0.25000  -0.00000   0.75000   0.00000  Uiso   1.00
O43    O     0.00000   0.25000   0.25000   0.00000  Uiso   1.00
O44    O     0.00000   0.25000   0.75000   0.00000  Uiso   1.00
O45    O     0.25000   0.46964   0.33755   0.00000  Uiso   1.00
O46    O     0.25000   0.03036   0.66245   0.00000  Uiso   1.00
O47    O     0.03037   0.25000   0.33755   0.00000  Uiso   1.00
O48    O     0.46964   0.25000   0.66245   0.00000  Uiso   1.00
O49    O     0.25000   0.03036   0.33755   0.00000  Uiso   1.00
O50    O     0.25000   0.46964   0.66245   0.00000  Uiso   1.00
O51    O     0.46964   0.25000   0.33755   0.00000  Uiso   1.00
O52    O     0.03037   0.25000   0.66245   0.00000  Uiso   1.00
O53    O     0.00000   0.21964   0.83755   0.00000  Uiso   1.00
O54    O     0.00000   0.28037   0.16245   0.00000  Uiso   1.00
O55    O     0.28037  -0.00000   0.83755   0.00000  Uiso   1.00
O56    O     0.21964  -0.00000   0.16245   0.00000  Uiso   1.00
O57    O     0.00000   0.28037   0.83755   0.00000  Uiso   1.00
O58    O     0.00000   0.21964   0.16245   0.00000  Uiso   1.00
O59    O     0.21964  -0.00000   0.83755   0.00000  Uiso   1.00
O60    O     0.28037  -0.00000   0.16245   0.00000  Uiso   1.00
O61    O     0.20725   0.07307   0.27302   0.00000  Uiso   1.00
O62    O     0.29276   0.42693   0.72698   0.00000  Uiso   1.00
O63    O     0.42693   0.20724   0.27302   0.00000  Uiso   1.00
O64    O     0.07308   0.29276   0.72698   0.00000  Uiso   1.00
O65    O     0.29276   0.42693   0.27302   0.00000  Uiso   1.00
O66    O     0.20725   0.07307   0.72698   0.00000  Uiso   1.00
O67    O     0.07308   0.29276   0.27302   0.00000  Uiso   1.00
O68    O     0.42693   0.20724   0.72698   0.00000  Uiso   1.00
O69    O     0.20725   0.42693   0.72698   0.00000  Uiso   1.00
O70    O     0.29276   0.07307   0.27302   0.00000  Uiso   1.00
O71    O     0.42693   0.29275   0.72698   0.00000  Uiso   1.00
O72    O     0.07308   0.20725   0.27302   0.00000  Uiso   1.00
O73    O     0.29276   0.07307   0.72698   0.00000  Uiso   1.00
O74    O     0.20725   0.42693   0.27302   0.00000  Uiso   1.00
O75    O     0.07308   0.20725   0.72698   0.00000  Uiso   1.00
O76    O     0.42693   0.29275   0.27302   0.00000  Uiso   1.00
O77    O     0.45725   0.32307   0.77302   0.00000  Uiso   1.00
O78    O     0.04276   0.17693   0.22698   0.00000  Uiso   1.00
O79    O     0.17693   0.45725   0.77302   0.00000  Uiso   1.00
O80    O     0.32308   0.04275   0.22698   0.00000  Uiso   1.00
O81    O     0.04276   0.17693   0.77302   0.00000  Uiso   1.00
O82    O     0.45725   0.32307   0.22698   0.00000  Uiso   1.00
O83    O     0.32308   0.04275   0.77302   0.00000  Uiso   1.00
O84    O     0.17693   0.45725   0.22698   0.00000  Uiso   1.00
O85    O     0.45725   0.17692   0.22698   0.00000  Uiso   1.00
O86    O     0.04276   0.32308   0.77302   0.00000  Uiso   1.00
O87    O     0.17693   0.04275   0.22698   0.00000  Uiso   1.00
O88    O     0.32308   0.45725   0.77302   0.00000  Uiso   1.00
O89    O     0.04276   0.32308   0.22698   0.00000  Uiso   1.00
O90    O     0.45725   0.17692   0.77302   0.00000  Uiso   1.00
O91    O     0.32308   0.45725   0.22698   0.00000  Uiso   1.00
O92    O     0.17693   0.04275   0.77302   0.00000  Uiso   1.00
C93    C     0.06574   0.23750   0.47975   0.00000  Uiso   1.00
C94    C     0.43470   0.26318   0.52013   0.00000  Uiso   1.00
C95    C     0.26525   0.06486   0.47936   0.00000  Uiso   1.00
C96    C     0.23721   0.43430   0.52035   0.00000  Uiso   1.00
C97    C     0.43451   0.26207   0.47938   0.00000  Uiso   1.00
C98    C     0.06562   0.23682   0.52055   0.00000  Uiso   1.00
C99    C     0.23798   0.43412   0.47955   0.00000  Uiso   1.00
C100   C     0.26684   0.06457   0.52008   0.00000  Uiso   1.00
C101   C     0.18434   0.48698   0.97949   0.00000  Uiso   1.00
C102   C     0.31548   0.01204   0.02060   0.00000  Uiso   1.00
C103   C     0.01242   0.18412   0.97970   0.00000  Uiso   1.00
C104   C     0.48397   0.31459   0.02043   0.00000  Uiso   1.00
C105   C     0.31528   0.01317   0.97986   0.00000  Uiso   1.00
C106   C     0.18422   0.48757   0.02030   0.00000  Uiso   1.00
C107   C     0.48234   0.31429   0.97973   0.00000  Uiso   1.00
C108   C     0.01164   0.18396   0.02050   0.00000  Uiso   1.00
C109   C     0.24998   0.49996   0.35590   0.00000  Uiso   1.00
C110   C     0.25019  -0.00000   0.64405   0.00000  Uiso   1.00
C111   C     0.00004   0.24994   0.35591   0.00000  Uiso   1.00
C112   C     0.49999   0.25003   0.64408   0.00000  Uiso   1.00
C113   C     0.49979   0.24996   0.85594   0.00000  Uiso   1.00
C114   C     0.00000   0.24997   0.14409   0.00000  Uiso   1.00
C115   C     0.25001   0.00004   0.85592   0.00000  Uiso   1.00
C116   C     0.24997   0.49994   0.14410   0.00000  Uiso   1.00
C117   C     0.17997   0.06997   0.25003   0.00000  Uiso   1.00
C118   C     0.32014   0.43021   0.74984   0.00000  Uiso   1.00
C119   C     0.43002   0.17998   0.25000   0.00000  Uiso   1.00
C120   C     0.06998   0.31995   0.75000   0.00000  Uiso   1.00
C121   C     0.32000   0.43001   0.25005   0.00000  Uiso   1.00
C122   C     0.18002   0.06995   0.74998   0.00000  Uiso   1.00
C123   C     0.06990   0.32014   0.25012   0.00000  Uiso   1.00
C124   C     0.42985   0.18020   0.75017   0.00000  Uiso   1.00
C125   C     0.17992   0.42994   0.74999   0.00000  Uiso   1.00
C126   C     0.32003   0.07006   0.25000   0.00000  Uiso   1.00
C127   C     0.42988   0.32006   0.74997   0.00000  Uiso   1.00
C128   C     0.07003   0.17991   0.25005   0.00000  Uiso   1.00
C129   C     0.32013   0.07007   0.75002   0.00000  Uiso   1.00
C130   C     0.17961   0.43027   0.25033   0.00000  Uiso   1.00
C131   C     0.07008   0.17994   0.75001   0.00000  Uiso   1.00
C132   C     0.42996   0.32005   0.24998   0.00000  Uiso   1.00
C133   C     0.12515   0.40124   0.22013   0.00000  Uiso   1.00
C134   C     0.38408   0.08985   0.76229   0.00000  Uiso   1.00
C135   C     0.10186   0.12852   0.21770   0.00000  Uiso   1.00
C136   C     0.41000   0.38362   0.76272   0.00000  Uiso   1.00
C137   C     0.37094   0.10232   0.21733   0.00000  Uiso   1.00
C138   C     0.11494   0.41135   0.75596   0.00000  Uiso   1.00
C139   C     0.39735   0.37077   0.21720   0.00000  Uiso   1.00
C140   C     0.08859   0.11502   0.75611   0.00000  Uiso   1.00
C141   C     0.11509   0.08792   0.75314   0.00000  Uiso   1.00
C142   C     0.36926   0.39635   0.21658   0.00000  Uiso   1.00
C143   C     0.08814   0.38463   0.75244   0.00000  Uiso   1.00
C144   C     0.39656   0.13034   0.21663   0.00000  Uiso   1.00
C145   C     0.38412   0.41125   0.75876   0.00000  Uiso   1.00
C146   C     0.12999   0.10306   0.21691   0.00000  Uiso   1.00
C147   C     0.41159   0.11552   0.75712   0.00000  Uiso   1.00
C148   C     0.10055   0.37254   0.21868   0.00000  Uiso   1.00
C149   C     0.36587   0.16125   0.74122   0.00000  Uiso   1.00
C150   C     0.11981   0.35326   0.28354   0.00000  Uiso   1.00
C151   C     0.33842   0.36555   0.74290   0.00000  Uiso   1.00
C152   C     0.14668   0.11960   0.28342   0.00000  Uiso   1.00
C153   C     0.13492   0.33792   0.74685   0.00000  Uiso   1.00
C154   C     0.38054   0.14649   0.28337   0.00000  Uiso   1.00
C155   C     0.16185   0.13461   0.74754   0.00000  Uiso   1.00
C156   C     0.35376   0.38064   0.28358   0.00000  Uiso   1.00
C157   C     0.37939   0.35262   0.28288   0.00000  Uiso   1.00
C158   C     0.13505   0.16135   0.74404   0.00000  Uiso   1.00
C159   C     0.35242   0.12101   0.28263   0.00000  Uiso   1.00
C160   C     0.16141   0.36502   0.74390   0.00000  Uiso   1.00
C161   C     0.12114   0.14770   0.28267   0.00000  Uiso   1.00
C162   C     0.36594   0.33989   0.73769   0.00000  Uiso   1.00
C163   C     0.14772   0.37899   0.28283   0.00000  Uiso   1.00
C164   C     0.34000   0.13363   0.73725   0.00000  Uiso   1.00
C165   C     0.03303   0.24367   0.45921   0.00000  Uiso   1.00
C166   C     0.46732   0.25659   0.54067   0.00000  Uiso   1.00
C167   C     0.25775   0.03241   0.45902   0.00000  Uiso   1.00
C168   C     0.24407   0.46695   0.54076   0.00000  Uiso   1.00
C169   C     0.46720   0.25574   0.45905   0.00000  Uiso   1.00
C170   C     0.03292   0.24331   0.54088   0.00000  Uiso   1.00
C171   C     0.24443   0.46680   0.45909   0.00000  Uiso   1.00
C172   C     0.25915   0.03220   0.54063   0.00000  Uiso   1.00
C173   C     0.21704   0.49347   0.95914   0.00000  Uiso   1.00
C174   C     0.28278   0.00577   0.04094   0.00000  Uiso   1.00
C175   C     0.00553   0.21677   0.95924   0.00000  Uiso   1.00
C176   C     0.49168   0.28221   0.04085   0.00000  Uiso   1.00
C177   C     0.28265   0.00665   0.95933   0.00000  Uiso   1.00
C178   C     0.21695   0.49374   0.04082   0.00000  Uiso   1.00
C179   C     0.49020   0.28197   0.95925   0.00000  Uiso   1.00
C180   C     0.00516   0.21665   0.04092   0.00000  Uiso   1.00
H181   H     0.44327   0.26195   0.40220   0.00000  Uiso   1.00
H182   H     0.05732   0.24028   0.59785   0.00000  Uiso   1.00
H183   H     0.23718   0.44314   0.40224   0.00000  Uiso   1.00
H184   H     0.26312   0.05672   0.59742   0.00000  Uiso   1.00
H185   H     0.05693   0.23749   0.40240   0.00000  Uiso   1.00
H186   H     0.44278   0.25996   0.59745   0.00000  Uiso   1.00
H187   H     0.26358   0.05640   0.40218   0.00000  Uiso   1.00
H188   H     0.23959   0.44283   0.59771   0.00000  Uiso   1.00
H189   H     0.30720   0.00994   0.90255   0.00000  Uiso   1.00
H190   H     0.19317   0.48737   0.09768   0.00000  Uiso   1.00
H191   H     0.48640   0.30654   0.90246   0.00000  Uiso   1.00
H192   H     0.01262   0.19307   0.09781   0.00000  Uiso   1.00
H193   H     0.19265   0.49045   0.90217   0.00000  Uiso   1.00
H194   H     0.30674   0.01195   0.09778   0.00000  Uiso   1.00
H195   H     0.01034   0.19272   0.90230   0.00000  Uiso   1.00
H196   H     0.48634   0.30641   0.09761   0.00000  Uiso   1.00
C197   C     0.09730   0.34880   0.25068   0.00000  Uiso   1.00
C198   C     0.40217   0.15198   0.74935   0.00000  Uiso   1.00
C199   C     0.15186   0.09791   0.25012   0.00000  Uiso   1.00
C200   C     0.34783   0.40198   0.75067   0.00000  Uiso   1.00
C201   C     0.40203   0.15189   0.25000   0.00000  Uiso   1.00
C202   C     0.09813   0.34781   0.75019   0.00000  Uiso   1.00
C203   C     0.34807   0.40200   0.25010   0.00000  Uiso   1.00
C204   C     0.15187   0.09781   0.74979   0.00000  Uiso   1.00
C205   C     0.09821   0.15174   0.74979   0.00000  Uiso   1.00
C206   C     0.40191   0.34824   0.25004   0.00000  Uiso   1.00
C207   C     0.15179   0.40174   0.75022   0.00000  Uiso   1.00
C208   C     0.34815   0.09819   0.24999   0.00000  Uiso   1.00
C209   C     0.40165   0.34820   0.74990   0.00000  Uiso   1.00
C210   C     0.09806   0.15168   0.25014   0.00000  Uiso   1.00
C211   C     0.34836   0.09820   0.75007   0.00000  Uiso   1.00
C212   C     0.15048   0.40317   0.25110   0.00000  Uiso   1.00
C213   C     0.00012   0.24973   0.47957   0.00000  Uiso   1.00
C214   C     0.00012   0.24984   0.52034   0.00000  Uiso   1.00
C215   C     0.25123   0.49959   0.47949   0.00000  Uiso   1.00
C216   C     0.25145   0.49958   0.52026   0.00000  Uiso   1.00
C217   C     0.24985   0.49995   0.97968   0.00000  Uiso   1.00
C218   C     0.24985   0.49983   0.02044   0.00000  Uiso   1.00
C219   C     0.49798   0.24936   0.97968   0.00000  Uiso   1.00
C220   C     0.49821   0.24938   0.02045   0.00000  Uiso   1.00
N221   N     0.09923   0.23146   0.45937   0.00000  Uiso   1.00
O222   O     0.11373   0.25767   0.43926   0.00000  Uiso   1.00
O223   O     0.11720   0.20129   0.46437   0.00000  Uiso   1.00
N224   N     0.40161   0.27116   0.54047   0.00000  Uiso   1.00
O225   O     0.39906   0.30083   0.56089   0.00000  Uiso   1.00
O226   O     0.37295   0.25094   0.53536   0.00000  Uiso   1.00
N227   N     0.27176   0.09823   0.45882   0.00000  Uiso   1.00
O228   O     0.24543   0.11374   0.43969   0.00000  Uiso   1.00
O229   O     0.30280   0.11492   0.46237   0.00000  Uiso   1.00
N230   N     0.23014   0.40099   0.54084   0.00000  Uiso   1.00
O231   O     0.20083   0.39770   0.56169   0.00000  Uiso   1.00
O232   O     0.25104   0.37282   0.53568   0.00000  Uiso   1.00
N233   N     0.40101   0.26790   0.45882   0.00000  Uiso   1.00
O234   O     0.38647   0.24146   0.43906   0.00000  Uiso   1.00
O235   O     0.38319   0.29823   0.46310   0.00000  Uiso   1.00
N236   N     0.09899   0.23004   0.54109   0.00000  Uiso   1.00
O237   O     0.10238   0.20104   0.56252   0.00000  Uiso   1.00
O238   O     0.12709   0.25091   0.53548   0.00000  Uiso   1.00
N239   N     0.23184   0.40063   0.45911   0.00000  Uiso   1.00
O240   O     0.25776   0.38635   0.43842   0.00000  Uiso   1.00
O241   O     0.20181   0.38256   0.46428   0.00000  Uiso   1.00
N242   N     0.27648   0.09729   0.54033   0.00000  Uiso   1.00
O243   O     0.30708   0.09887   0.55930   0.00000  Uiso   1.00
O244   O     0.25748   0.12682   0.53531   0.00000  Uiso   1.00
N245   N     0.15097   0.48029   0.95894   0.00000  Uiso   1.00
O246   O     0.14755   0.45130   0.93753   0.00000  Uiso   1.00
O247   O     0.12288   0.00117   0.96457   0.00000  Uiso   1.00
N248   N     0.34900   0.01772   0.04115   0.00000  Uiso   1.00
O249   O     0.36348   0.49119   0.06088   0.00000  Uiso   1.00
O250   O     0.36690   0.04800   0.03687   0.00000  Uiso   1.00
N251   N     0.01957   0.15081   0.95926   0.00000  Uiso   1.00
O252   O     0.04894   0.14752   0.93852   0.00000  Uiso   1.00
O253   O     0.49870   0.12264   0.96444   0.00000  Uiso   1.00
N254   N     0.47768   0.34799   0.04086   0.00000  Uiso   1.00
O255   O     0.00460   0.36414   0.05830   0.00000  Uiso   1.00
O256   O     0.44644   0.36444   0.03802   0.00000  Uiso   1.00
N257   N     0.34837   0.02107   0.95950   0.00000  Uiso   1.00
O258   O     0.35096   0.05074   0.93904   0.00000  Uiso   1.00
O259   O     0.37700   0.00078   0.96460   0.00000  Uiso   1.00
N260   N     0.15077   0.48120   0.04069   0.00000  Uiso   1.00
O261   O     0.13656   0.00682   0.06189   0.00000  Uiso   1.00
O262   O     0.13273   0.45119   0.03509   0.00000  Uiso   1.00
N263   N     0.47253   0.34698   0.95944   0.00000  Uiso   1.00
O264   O     0.44205   0.34835   0.94021   0.00000  Uiso   1.00
O265   O     0.49128   0.37663   0.96453   0.00000  Uiso   1.00
N266   N     0.01786   0.15049   0.04101   0.00000  Uiso   1.00
O267   O     0.49198   0.13620   0.06172   0.00000  Uiso   1.00
O268   O     0.04792   0.13244   0.03583   0.00000  Uiso   1.00
O269   O     0.12626   0.42508   0.18890   0.00000  Uiso   1.00
C270   C     0.10585   0.45692   0.19734   0.00000  Uiso   1.00
H271   H     0.12057   0.48032   0.18422   0.00000  Uiso   1.00
H272   H     0.10354   0.46295   0.22906   0.00000  Uiso   1.00
C273   C     0.06790   0.45497   0.17915   0.00000  Uiso   1.00
H274   H     0.07009   0.44594   0.14843   0.00000  Uiso   1.00
H275   H     0.05111   0.43502   0.19542   0.00000  Uiso   1.00
C276   C     0.04908   0.49202   0.18039   0.00000  Uiso   1.00
H277   H     0.04710   0.00194   0.21080   0.00000  Uiso   1.00
H278   H     0.02122   0.48974   0.16823   0.00000  Uiso   1.00
H279   H     0.06449   0.01209   0.16277   0.00000  Uiso   1.00
O280   O     0.39335   0.05527   0.77479   0.00000  Uiso   1.00
C281   C     0.38911   0.05286   0.81569   0.00000  Uiso   1.00
H282   H     0.37680   0.02591   0.82218   0.00000  Uiso   1.00
H283   H     0.37029   0.07372   0.82817   0.00000  Uiso   1.00
C284   C     0.42604   0.05477   0.83610   0.00000  Uiso   1.00
H285   H     0.44415   0.03323   0.82439   0.00000  Uiso   1.00
H286   H     0.43874   0.08170   0.83074   0.00000  Uiso   1.00
C287   C     0.42200   0.04938   0.87984   0.00000  Uiso   1.00
H288   H     0.40549   0.07179   0.89236   0.00000  Uiso   1.00
H289   H     0.44914   0.04961   0.89397   0.00000  Uiso   1.00
H290   H     0.40876   0.02285   0.88614   0.00000  Uiso   1.00
O291   O     0.08021   0.13297   0.18506   0.00000  Uiso   1.00
C292   C     0.05327   0.10550   0.18473   0.00000  Uiso   1.00
H293   H     0.03900   0.10378   0.21327   0.00000  Uiso   1.00
H294   H     0.06566   0.07862   0.17801   0.00000  Uiso   1.00
C295   C     0.02518   0.11441   0.15337   0.00000  Uiso   1.00
H296   H     0.01256   0.14125   0.15970   0.00000  Uiso   1.00
H297   H     0.03886   0.11605   0.12465   0.00000  Uiso   1.00
C298   C     0.49546   0.08549   0.15172   0.00000  Uiso   1.00
H299   H     0.00719   0.05874   0.14344   0.00000  Uiso   1.00
H300   H     0.47469   0.09329   0.12980   0.00000  Uiso   1.00
H301   H     0.48208   0.08301   0.18049   0.00000  Uiso   1.00
O302   O     0.44472   0.39244   0.77476   0.00000  Uiso   1.00
C303   C     0.44528   0.39450   0.81569   0.00000  Uiso   1.00
H304   H     0.43597   0.36835   0.82881   0.00000  Uiso   1.00
H305   H     0.42759   0.41706   0.82621   0.00000  Uiso   1.00
C306   C     0.48426   0.40198   0.82863   0.00000  Uiso   1.00
H307   H     0.00291   0.38218   0.81449   0.00000  Uiso   1.00
H308   H     0.49199   0.42988   0.81943   0.00000  Uiso   1.00
C309   C     0.48845   0.39873   0.87249   0.00000  Uiso   1.00
H310   H     0.47013   0.41823   0.88749   0.00000  Uiso   1.00
H311   H     0.01698   0.40464   0.88093   0.00000  Uiso   1.00
H312   H     0.48195   0.37058   0.88168   0.00000  Uiso   1.00
O313   O     0.36587   0.08118   0.18444   0.00000  Uiso   1.00
C314   C     0.39302   0.05393   0.18335   0.00000  Uiso   1.00
H315   H     0.39545   0.03954   0.21182   0.00000  Uiso   1.00
H316   H     0.41970   0.06612   0.17581   0.00000  Uiso   1.00
C317   C     0.38313   0.02597   0.15224   0.00000  Uiso   1.00
H318   H     0.35648   0.01340   0.15935   0.00000  Uiso   1.00
H319   H     0.38075   0.03979   0.12361   0.00000  Uiso   1.00
C320   C     0.41190   0.49614   0.14967   0.00000  Uiso   1.00
H321   H     0.43855   0.00797   0.14122   0.00000  Uiso   1.00
H322   H     0.40378   0.47575   0.12753   0.00000  Uiso   1.00
H323   H     0.41474   0.48218   0.17812   0.00000  Uiso   1.00
O324   O     0.10444   0.44735   0.76004   0.00000  Uiso   1.00
C325   C     0.10461   0.45712   0.79991   0.00000  Uiso   1.00
H326   H     0.11374   0.48590   0.80182   0.00000  Uiso   1.00
H327   H     0.12397   0.44080   0.81798   0.00000  Uiso   1.00
C328   C     0.06651   0.45444   0.81720   0.00000  Uiso   1.00
H329   H     0.04712   0.47057   0.79931   0.00000  Uiso   1.00
H330   H     0.05784   0.42555   0.81724   0.00000  Uiso   1.00
C331   C     0.06604   0.46837   0.85896   0.00000  Uiso   1.00
H332   H     0.08287   0.45049   0.87784   0.00000  Uiso   1.00
H333   H     0.03773   0.46843   0.87006   0.00000  Uiso   1.00
H334   H     0.07690   0.49653   0.86038   0.00000  Uiso   1.00
O335   O     0.41698   0.36454   0.18354   0.00000  Uiso   1.00
C336   C     0.44347   0.39211   0.17870   0.00000  Uiso   1.00
H337   H     0.46813   0.38518   0.19595   0.00000  Uiso   1.00
H338   H     0.43391   0.41952   0.18805   0.00000  Uiso   1.00
C339   C     0.45357   0.39420   0.13576   0.00000  Uiso   1.00
H340   H     0.46238   0.36689   0.12557   0.00000  Uiso   1.00
H341   H     0.42928   0.40258   0.11867   0.00000  Uiso   1.00
C342   C     0.48418   0.42141   0.12886   0.00000  Uiso   1.00
H343   H     0.47683   0.44843   0.14088   0.00000  Uiso   1.00
H344   H     0.48899   0.42452   0.09722   0.00000  Uiso   1.00
H345   H     0.00958   0.41155   0.14279   0.00000  Uiso   1.00
O346   O     0.05281   0.10511   0.76266   0.00000  Uiso   1.00
C347   C     0.04745   0.09862   0.80289   0.00000  Uiso   1.00
H348   H     0.02953   0.12038   0.81451   0.00000  Uiso   1.00
H349   H     0.07294   0.09881   0.82073   0.00000  Uiso   1.00
C350   C     0.02849   0.06201   0.80864   0.00000  Uiso   1.00
H351   H     0.00251   0.06160   0.79213   0.00000  Uiso   1.00
H352   H     0.04606   0.03977   0.79752   0.00000  Uiso   1.00
C353   C     0.02067   0.05531   0.85155   0.00000  Uiso   1.00
H354   H     0.04639   0.05488   0.86851   0.00000  Uiso   1.00
H355   H     0.00677   0.02871   0.85509   0.00000  Uiso   1.00
H356   H     0.00289   0.07715   0.86320   0.00000  Uiso   1.00
O357   O     0.10470   0.05178   0.75577   0.00000  Uiso   1.00
C358   C     0.10629   0.03506   0.71871   0.00000  Uiso   1.00
H359   H     0.12525   0.01155   0.72063   0.00000  Uiso   1.00
H360   H     0.11646   0.05308   0.69488   0.00000  Uiso   1.00
C361   C     0.06851   0.02115   0.70774   0.00000  Uiso   1.00
H362   H     0.05859   0.00227   0.73061   0.00000  Uiso   1.00
H363   H     0.04947   0.04460   0.70582   0.00000  Uiso   1.00
C364   C     0.06907   0.00127   0.66883   0.00000  Uiso   1.00
H365   H     0.07832   0.01988   0.64541   0.00000  Uiso   1.00
H366   H     0.04129   0.49159   0.66159   0.00000  Uiso   1.00
H367   H     0.08759   0.47740   0.67033   0.00000  Uiso   1.00
O368   O     0.36429   0.41729   0.18354   0.00000  Uiso   1.00
C369   C     0.33845   0.40026   0.15923   0.00000  Uiso   1.00
H370   H     0.31159   0.39852   0.17406   0.00000  Uiso   1.00
H371   H     0.34756   0.37236   0.15097   0.00000  Uiso   1.00
C372   C     0.33424   0.42297   0.12228   0.00000  Uiso   1.00
H373   H     0.32814   0.45162   0.13021   0.00000  Uiso   1.00
H374   H     0.36022   0.42254   0.10583   0.00000  Uiso   1.00
C375   C     0.30376   0.40854   0.09639   0.00000  Uiso   1.00
H376   H     0.30919   0.37982   0.08815   0.00000  Uiso   1.00
H377   H     0.30209   0.42521   0.06951   0.00000  Uiso   1.00
H378   H     0.27726   0.41025   0.11173   0.00000  Uiso   1.00
O379   O     0.05198   0.39463   0.74952   0.00000  Uiso   1.00
C380   C     0.04284   0.39817   0.70968   0.00000  Uiso   1.00
H381   H     0.05902   0.38000   0.69019   0.00000  Uiso   1.00
H382   H     0.04744   0.42683   0.70058   0.00000  Uiso   1.00
C383   C     0.00280   0.38856   0.70417   0.00000  Uiso   1.00
H384   H     0.49788   0.36032   0.71449   0.00000  Uiso   1.00
H385   H     0.48613   0.40741   0.72172   0.00000  Uiso   1.00
C386   C     0.49117   0.39154   0.66172   0.00000  Uiso   1.00
H387   H     0.49576   0.41961   0.65077   0.00000  Uiso   1.00
H388   H     0.46176   0.38508   0.65914   0.00000  Uiso   1.00
H389   H     0.00677   0.37198   0.64364   0.00000  Uiso   1.00
O390   O     0.41769   0.13491   0.18376   0.00000  Uiso   1.00
C391   C     0.40077   0.16050   0.15902   0.00000  Uiso   1.00
H392   H     0.39887   0.18754   0.17355   0.00000  Uiso   1.00
H393   H     0.37297   0.15126   0.15058   0.00000  Uiso   1.00
C394   C     0.42368   0.16440   0.12225   0.00000  Uiso   1.00
H395   H     0.45223   0.17073   0.13039   0.00000  Uiso   1.00
H396   H     0.42347   0.13820   0.10611   0.00000  Uiso   1.00
C397   C     0.40926   0.19454   0.09587   0.00000  Uiso   1.00
H398   H     0.38062   0.18894   0.08748   0.00000  Uiso   1.00
H399   H     0.42602   0.19594   0.06911   0.00000  Uiso   1.00
H400   H     0.41080   0.22126   0.11090   0.00000  Uiso   1.00
O401   O     0.39429   0.44723   0.76406   0.00000  Uiso   1.00
C402   C     0.41486   0.45933   0.73168   0.00000  Uiso   1.00
H403   H     0.39734   0.47743   0.71374   0.00000  Uiso   1.00
H404   H     0.42480   0.43709   0.71224   0.00000  Uiso   1.00
C405   C     0.44768   0.48105   0.74609   0.00000  Uiso   1.00
H406   H     0.43803   0.00612   0.76056   0.00000  Uiso   1.00
H407   H     0.46319   0.46490   0.76776   0.00000  Uiso   1.00
C408   C     0.47308   0.49153   0.71292   0.00000  Uiso   1.00
H409   H     0.49037   0.46815   0.70461   0.00000  Uiso   1.00
H410   H     0.49097   0.01410   0.72253   0.00000  Uiso   1.00
H411   H     0.45750   0.00039   0.68694   0.00000  Uiso   1.00
O412   O     0.13435   0.08172   0.18413   0.00000  Uiso   1.00
C413   C     0.15941   0.09873   0.15897   0.00000  Uiso   1.00
H414   H     0.18655   0.10114   0.17321   0.00000  Uiso   1.00
H415   H     0.14968   0.12633   0.15034   0.00000  Uiso   1.00
C416   C     0.16322   0.07547   0.12241   0.00000  Uiso   1.00
H417   H     0.17021   0.04711   0.13080   0.00000  Uiso   1.00
H418   H     0.13681   0.07499   0.10664   0.00000  Uiso   1.00
C419   C     0.19268   0.09014   0.09546   0.00000  Uiso   1.00
H420   H     0.18638   0.11858   0.08678   0.00000  Uiso   1.00
H421   H     0.19406   0.07306   0.06890   0.00000  Uiso   1.00
H422   H     0.21960   0.08932   0.11017   0.00000  Uiso   1.00
O423   O     0.44743   0.10393   0.75968   0.00000  Uiso   1.00
C424   C     0.46451   0.10449   0.72263   0.00000  Uiso   1.00
H425   H     0.49160   0.09160   0.72626   0.00000  Uiso   1.00
H426   H     0.46975   0.13275   0.71270   0.00000  Uiso   1.00
C427   C     0.44364   0.08334   0.69097   0.00000  Uiso   1.00
H428   H     0.43415   0.05698   0.70287   0.00000  Uiso   1.00
H429   H     0.41932   0.09914   0.68171   0.00000  Uiso   1.00
C430   C     0.46736   0.07669   0.65533   0.00000  Uiso   1.00
H431   H     0.47634   0.10303   0.64272   0.00000  Uiso   1.00
H432   H     0.45150   0.06160   0.63308   0.00000  Uiso   1.00
H433   H     0.49165   0.06027   0.66323   0.00000  Uiso   1.00
O434   O     0.07788   0.36963   0.18670   0.00000  Uiso   1.00
C435   C     0.09451   0.34686   0.15889   0.00000  Uiso   1.00
H436   H     0.09849   0.31895   0.17089   0.00000  Uiso   1.00
H437   H     0.12132   0.35811   0.14972   0.00000  Uiso   1.00
C438   C     0.06977   0.34457   0.12325   0.00000  Uiso   1.00
H439   H     0.04213   0.33583   0.13233   0.00000  Uiso   1.00
H440   H     0.06752   0.37196   0.10970   0.00000  Uiso   1.00
C441   C     0.08443   0.31764   0.09338   0.00000  Uiso   1.00
H442   H     0.11219   0.32570   0.08404   0.00000  Uiso   1.00
H443   H     0.06637   0.31734   0.06749   0.00000  Uiso   1.00
H444   H     0.08529   0.28976   0.10588   0.00000  Uiso   1.00
O445   O     0.35570   0.19724   0.73586   0.00000  Uiso   1.00
C446   C     0.33503   0.20935   0.76815   0.00000  Uiso   1.00
H447   H     0.35249   0.22740   0.78617   0.00000  Uiso   1.00
H448   H     0.32499   0.18711   0.78755   0.00000  Uiso   1.00
C449   C     0.30227   0.23115   0.75360   0.00000  Uiso   1.00
H450   H     0.31201   0.25622   0.73919   0.00000  Uiso   1.00
H451   H     0.28685   0.21505   0.73183   0.00000  Uiso   1.00
C452   C     0.27674   0.24162   0.78664   0.00000  Uiso   1.00
H453   H     0.25930   0.21830   0.79475   0.00000  Uiso   1.00
H454   H     0.25900   0.26433   0.77699   0.00000  Uiso   1.00
H455   H     0.29221   0.25030   0.81275   0.00000  Uiso   1.00
O456   O     0.11591   0.33143   0.31605   0.00000  Uiso   1.00
C457   C     0.09079   0.34792   0.34155   0.00000  Uiso   1.00
H458   H     0.06345   0.34979   0.32764   0.00000  Uiso   1.00
H459   H     0.10000   0.37571   0.35006   0.00000  Uiso   1.00
C460   C     0.08783   0.32463   0.37820   0.00000  Uiso   1.00
H461   H     0.08137   0.29613   0.36998   0.00000  Uiso   1.00
H462   H     0.11437   0.32478   0.39371   0.00000  Uiso   1.00
C463   C     0.05831   0.33875   0.40541   0.00000  Uiso   1.00
H464   H     0.06401   0.36736   0.41384   0.00000  Uiso   1.00
H465   H     0.05762   0.32177   0.43210   0.00000  Uiso   1.00
H466   H     0.03126   0.33723   0.39104   0.00000  Uiso   1.00
O467   O     0.30259   0.35397   0.74036   0.00000  Uiso   1.00
C468   C     0.28554   0.35447   0.77742   0.00000  Uiso   1.00
H469   H     0.25843   0.34166   0.77380   0.00000  Uiso   1.00
H470   H     0.28035   0.38272   0.78742   0.00000  Uiso   1.00
C471   C     0.30641   0.33319   0.80902   0.00000  Uiso   1.00
H472   H     0.31586   0.30684   0.79706   0.00000  Uiso   1.00
H473   H     0.33075   0.34891   0.81829   0.00000  Uiso   1.00
C474   C     0.28271   0.32648   0.84466   0.00000  Uiso   1.00
H475   H     0.27377   0.35280   0.85734   0.00000  Uiso   1.00
H476   H     0.29857   0.31130   0.86687   0.00000  Uiso   1.00
H477   H     0.25839   0.31014   0.83676   0.00000  Uiso   1.00
O478   O     0.16811   0.11518   0.31619   0.00000  Uiso   1.00
C479   C     0.15146   0.08970   0.34118   0.00000  Uiso   1.00
H480   H     0.14949   0.06259   0.32680   0.00000  Uiso   1.00
H481   H     0.12372   0.09895   0.34972   0.00000  Uiso   1.00
C482   C     0.17470   0.08601   0.37784   0.00000  Uiso   1.00
H483   H     0.20321   0.07974   0.36959   0.00000  Uiso   1.00
H484   H     0.17454   0.11227   0.39388   0.00000  Uiso   1.00
C485   C     0.16064   0.05592   0.40443   0.00000  Uiso   1.00
H486   H     0.13207   0.06149   0.41300   0.00000  Uiso   1.00
H487   H     0.17768   0.05464   0.43107   0.00000  Uiso   1.00
H488   H     0.16211   0.02916   0.38948   0.00000  Uiso   1.00
O489   O     0.14533   0.30178   0.74424   0.00000  Uiso   1.00
C490   C     0.14373   0.28502   0.78130   0.00000  Uiso   1.00
H491   H     0.12477   0.26154   0.77937   0.00000  Uiso   1.00
H492   H     0.13355   0.30304   0.80512   0.00000  Uiso   1.00
C493   C     0.18150   0.27107   0.79228   0.00000  Uiso   1.00
H494   H     0.19142   0.25218   0.76942   0.00000  Uiso   1.00
H495   H     0.20054   0.29449   0.79419   0.00000  Uiso   1.00
C496   C     0.18093   0.25117   0.83120   0.00000  Uiso   1.00
H497   H     0.17169   0.26978   0.85462   0.00000  Uiso   1.00
H498   H     0.20871   0.24144   0.83845   0.00000  Uiso   1.00
H499   H     0.16240   0.22733   0.82973   0.00000  Uiso   1.00
O500   O     0.38527   0.16758   0.31630   0.00000  Uiso   1.00
C501   C     0.41093   0.15060   0.34090   0.00000  Uiso   1.00
H502   H     0.43790   0.14876   0.32629   0.00000  Uiso   1.00
H503   H     0.40175   0.12274   0.34922   0.00000  Uiso   1.00
C504   C     0.41493   0.17341   0.37777   0.00000  Uiso   1.00
H505   H     0.42111   0.20203   0.36975   0.00000  Uiso   1.00
H506   H     0.38883   0.17307   0.39402   0.00000  Uiso   1.00
C507   C     0.44523   0.15902   0.40395   0.00000  Uiso   1.00
H508   H     0.43975   0.13032   0.41225   0.00000  Uiso   1.00
H509   H     0.44671   0.17574   0.43078   0.00000  Uiso   1.00
H510   H     0.47184   0.16066   0.38881   0.00000  Uiso   1.00
O511   O     0.19801   0.14459   0.75045   0.00000  Uiso   1.00
C512   C     0.20714   0.14816   0.79028   0.00000  Uiso   1.00
H513   H     0.19101   0.12995   0.80979   0.00000  Uiso   1.00
H514   H     0.20243   0.17681   0.79934   0.00000  Uiso   1.00
C515   C     0.24721   0.13866   0.79581   0.00000  Uiso   1.00
H516   H     0.25221   0.11040   0.78562   0.00000  Uiso   1.00
H517   H     0.26381   0.15749   0.77817   0.00000  Uiso   1.00
C518   C     0.25885   0.14180   0.83824   0.00000  Uiso   1.00
H519   H     0.25420   0.16990   0.84905   0.00000  Uiso   1.00
H520   H     0.28828   0.13538   0.84084   0.00000  Uiso   1.00
H521   H     0.24330   0.12228   0.85643   0.00000  Uiso   1.00
O522   O     0.33264   0.38522   0.31645   0.00000  Uiso   1.00
C523   C     0.34945   0.41090   0.34111   0.00000  Uiso   1.00
H524   H     0.35128   0.43790   0.32647   0.00000  Uiso   1.00
H525   H     0.37727   0.40173   0.34961   0.00000  Uiso   1.00
C526   C     0.32648   0.41482   0.37783   0.00000  Uiso   1.00
H527   H     0.29793   0.42108   0.36963   0.00000  Uiso   1.00
H528   H     0.32672   0.38864   0.39405   0.00000  Uiso   1.00
C529   C     0.34077   0.44503   0.40414   0.00000  Uiso   1.00
H530   H     0.36941   0.43947   0.41262   0.00000  Uiso   1.00
H531   H     0.32395   0.44646   0.43085   0.00000  Uiso   1.00
H532   H     0.33921   0.47171   0.38901   0.00000  Uiso   1.00
O533   O     0.38436   0.33137   0.31573   0.00000  Uiso   1.00
C534   C     0.35717   0.30418   0.31660   0.00000  Uiso   1.00
H535   H     0.35519   0.28963   0.28820   0.00000  Uiso   1.00
H536   H     0.33036   0.31644   0.32353   0.00000  Uiso   1.00
C537   C     0.36647   0.27641   0.34813   0.00000  Uiso   1.00
H538   H     0.39345   0.26408   0.34191   0.00000  Uiso   1.00
H539   H     0.36791   0.29032   0.37676   0.00000  Uiso   1.00
C540   C     0.33793   0.24632   0.34986   0.00000  Uiso   1.00
H541   H     0.31091   0.25786   0.35738   0.00000  Uiso   1.00
H542   H     0.34564   0.22602   0.37231   0.00000  Uiso   1.00
H543   H     0.33609   0.23235   0.32132   0.00000  Uiso   1.00
O544   O     0.14553   0.19736   0.73997   0.00000  Uiso   1.00
C545   C     0.14537   0.20716   0.70010   0.00000  Uiso   1.00
H546   H     0.13622   0.23595   0.69819   0.00000  Uiso   1.00
H547   H     0.12604   0.19087   0.68202   0.00000  Uiso   1.00
C548   C     0.18348   0.20451   0.68283   0.00000  Uiso   1.00
H549   H     0.20285   0.22059   0.70074   0.00000  Uiso   1.00
H550   H     0.19217   0.17561   0.68278   0.00000  Uiso   1.00
C551   C     0.18396   0.21851   0.64109   0.00000  Uiso   1.00
H552   H     0.16715   0.20066   0.62218   0.00000  Uiso   1.00
H553   H     0.21229   0.21857   0.63000   0.00000  Uiso   1.00
H554   H     0.17310   0.24667   0.63968   0.00000  Uiso   1.00
O555   O     0.33122   0.11620   0.31547   0.00000  Uiso   1.00
C556   C     0.30413   0.14351   0.31627   0.00000  Uiso   1.00
H557   H     0.28925   0.14510   0.28802   0.00000  Uiso   1.00
H558   H     0.31647   0.17043   0.32267   0.00000  Uiso   1.00
C559   C     0.27680   0.13463   0.34825   0.00000  Uiso   1.00
H560   H     0.26420   0.10769   0.34236   0.00000  Uiso   1.00
H561   H     0.29113   0.13326   0.37667   0.00000  Uiso   1.00
C562   C     0.24697   0.16345   0.35029   0.00000  Uiso   1.00
H563   H     0.25880   0.19040   0.35769   0.00000  Uiso   1.00
H564   H     0.22690   0.15593   0.37296   0.00000  Uiso   1.00
H565   H     0.23272   0.16538   0.32190   0.00000  Uiso   1.00
O566   O     0.19720   0.35509   0.73735   0.00000  Uiso   1.00
C567   C     0.20256   0.34863   0.69713   0.00000  Uiso   1.00
H568   H     0.22044   0.37041   0.68549   0.00000  Uiso   1.00
H569   H     0.17706   0.34881   0.67929   0.00000  Uiso   1.00
C570   C     0.22158   0.31205   0.69139   0.00000  Uiso   1.00
H571   H     0.24757   0.31165   0.70788   0.00000  Uiso   1.00
H572   H     0.20406   0.28978   0.70254   0.00000  Uiso   1.00
C573   C     0.22939   0.30537   0.64848   0.00000  Uiso   1.00
H574   H     0.20366   0.30493   0.63154   0.00000  Uiso   1.00
H575   H     0.24333   0.27878   0.64495   0.00000  Uiso   1.00
H576   H     0.24712   0.32724   0.63681   0.00000  Uiso   1.00
O577   O     0.11648   0.16908   0.31543   0.00000  Uiso   1.00
C578   C     0.14381   0.19612   0.31610   0.00000  Uiso   1.00
H579   H     0.14508   0.21109   0.28790   0.00000  Uiso   1.00
H580   H     0.17077   0.18371   0.32215   0.00000  Uiso   1.00
C581   C     0.13537   0.22340   0.34831   0.00000  Uiso   1.00
H582   H     0.10854   0.23631   0.34258   0.00000  Uiso   1.00
H583   H     0.13401   0.20896   0.37665   0.00000  Uiso   1.00
C584   C     0.16448   0.25291   0.35044   0.00000  Uiso   1.00
H585   H     0.19132   0.24074   0.35770   0.00000  Uiso   1.00
H586   H     0.15731   0.27300   0.37323   0.00000  Uiso   1.00
H587   H     0.16643   0.26723   0.32212   0.00000  Uiso   1.00
O588   O     0.35669   0.30534   0.72514   0.00000  Uiso   1.00
C589   C     0.36095   0.30301   0.68425   0.00000  Uiso   1.00
H590   H     0.37321   0.27604   0.67773   0.00000  Uiso   1.00
H591   H     0.37980   0.32385   0.67181   0.00000  Uiso   1.00
C592   C     0.32403   0.30506   0.66382   0.00000  Uiso   1.00
H593   H     0.30588   0.28353   0.67548   0.00000  Uiso   1.00
H594   H     0.31137   0.33201   0.66921   0.00000  Uiso   1.00
C595   C     0.32809   0.29978   0.62007   0.00000  Uiso   1.00
H596   H     0.34465   0.32217   0.60760   0.00000  Uiso   1.00
H597   H     0.30096   0.30012   0.60592   0.00000  Uiso   1.00
H598   H     0.34128   0.27323   0.61374   0.00000  Uiso   1.00
O599   O     0.16973   0.38315   0.31525   0.00000  Uiso   1.00
C600   C     0.19683   0.35586   0.31501   0.00000  Uiso   1.00
H601   H     0.21102   0.35468   0.28639   0.00000  Uiso   1.00
H602   H     0.18466   0.32886   0.32131   0.00000  Uiso   1.00
C603   C     0.22489   0.36437   0.34649   0.00000  Uiso   1.00
H604   H     0.23738   0.39137   0.34064   0.00000  Uiso   1.00
H605   H     0.21122   0.36546   0.37525   0.00000  Uiso   1.00
C606   C     0.25473   0.33554   0.34761   0.00000  Uiso   1.00
H607   H     0.24308   0.30853   0.35506   0.00000  Uiso   1.00
H608   H     0.27533   0.34289   0.36989   0.00000  Uiso   1.00
H609   H     0.26831   0.33385   0.31888   0.00000  Uiso   1.00
O610   O     0.30528   0.14248   0.72521   0.00000  Uiso   1.00
C611   C     0.30471   0.14453   0.68428   0.00000  Uiso   1.00
H612   H     0.31402   0.11837   0.67119   0.00000  Uiso   1.00
H613   H     0.32240   0.16707   0.67372   0.00000  Uiso   1.00
C614   C     0.26572   0.15205   0.67135   0.00000  Uiso   1.00
H615   H     0.24708   0.13229   0.68554   0.00000  Uiso   1.00
H616   H     0.25801   0.17996   0.68047   0.00000  Uiso   1.00
C617   C     0.26151   0.14876   0.62749   0.00000  Uiso   1.00
H618   H     0.27985   0.16818   0.61243   0.00000  Uiso   1.00
H619   H     0.23298   0.15471   0.61905   0.00000  Uiso   1.00
H620   H     0.26796   0.12057   0.61838   0.00000  Uiso   1.00
Zn621  Zn    0.70660  -0.00000   0.21735   0.00000  Uiso   1.00
Zn622  Zn    0.79341  -0.00000   0.78265   0.00000  Uiso   1.00
Zn623  Zn    0.50000   0.20660   0.21735   0.00000  Uiso   1.00
Zn624  Zn    0.50000   0.29341   0.78265   0.00000  Uiso   1.00
Zn625  Zn    0.79341  -0.00000   0.21735   0.00000  Uiso   1.00
Zn626  Zn    0.70660  -0.00000   0.78265   0.00000  Uiso   1.00
Zn627  Zn    0.50000   0.29341   0.21735   0.00000  Uiso   1.00
Zn628  Zn    0.50000   0.20660   0.78265   0.00000  Uiso   1.00
Zn629  Zn    0.95660   0.25000   0.71735   0.00000  Uiso   1.00
Zn630  Zn    0.54341   0.25000   0.28265   0.00000  Uiso   1.00
Zn631  Zn    0.75000   0.45660   0.71735   0.00000  Uiso   1.00
Zn632  Zn    0.75000   0.04340   0.28265   0.00000  Uiso   1.00
Zn633  Zn    0.54341   0.25000   0.71735   0.00000  Uiso   1.00
Zn634  Zn    0.95660   0.25000   0.28265   0.00000  Uiso   1.00
Zn635  Zn    0.75000   0.04340   0.71735   0.00000  Uiso   1.00
Zn636  Zn    0.75000   0.45660   0.28265   0.00000  Uiso   1.00
C637   C     0.96783   0.25622   0.41846   0.00000  Uiso   1.00
C638   C     0.53246   0.24421   0.58151   0.00000  Uiso   1.00
C639   C     0.74349   0.46756   0.41847   0.00000  Uiso   1.00
C640   C     0.75820   0.03196   0.58127   0.00000  Uiso   1.00
C641   C     0.53238   0.24319   0.41859   0.00000  Uiso   1.00
C642   C     0.96767   0.25590   0.58129   0.00000  Uiso   1.00
C643   C     0.75760   0.03191   0.41844   0.00000  Uiso   1.00
C644   C     0.74445   0.46752   0.58139   0.00000  Uiso   1.00
C645   C     0.78231   0.00593   0.91871   0.00000  Uiso   1.00
C646   C     0.71765   0.49318   0.08144   0.00000  Uiso   1.00
C647   C     0.99134   0.28178   0.91864   0.00000  Uiso   1.00
C648   C     0.50624   0.21747   0.08154   0.00000  Uiso   1.00
C649   C     0.71750   0.49435   0.91851   0.00000  Uiso   1.00
C650   C     0.78218   0.00623   0.08153   0.00000  Uiso   1.00
C651   C     0.50532   0.21738   0.91860   0.00000  Uiso   1.00
C652   C     0.99214   0.28184   0.08144   0.00000  Uiso   1.00
C653   C     0.50010   0.24978   0.39832   0.00000  Uiso   1.00
C654   C     0.50002   0.25004   0.60162   0.00000  Uiso   1.00
C655   C     0.75026   0.49982   0.39827   0.00000  Uiso   1.00
C656   C     0.75086   0.49988   0.60157   0.00000  Uiso   1.00
C657   C     0.74995   0.00010   0.89838   0.00000  Uiso   1.00
C658   C     0.74992   0.49978   0.10169   0.00000  Uiso   1.00
C659   C     0.99892   0.24976   0.89839   0.00000  Uiso   1.00
C660   C     0.99959   0.24979   0.10169   0.00000  Uiso   1.00
O661   O     0.75000  -0.00000   0.25000   0.00000  Uiso   1.00
O662   O     0.75000  -0.00000   0.75000   0.00000  Uiso   1.00
O663   O     0.50000   0.25000   0.25000   0.00000  Uiso   1.00
O664   O     0.50000   0.25000   0.75000   0.00000  Uiso   1.00
O665   O     0.75000   0.46964   0.33755   0.00000  Uiso   1.00
O666   O     0.75000   0.03036   0.66245   0.00000  Uiso   1.00
O667   O     0.53037   0.25000   0.33755   0.00000  Uiso   1.00
O668   O     0.96964   0.25000   0.66245   0.00000  Uiso   1.00
O669   O     0.75000   0.03036   0.33755   0.00000  Uiso   1.00
O670   O     0.75000   0.46964   0.66245   0.00000  Uiso   1.00
O671   O     0.96964   0.25000   0.33755   0.00000  Uiso   1.00
O672   O     0.53037   0.25000   0.66245   0.00000  Uiso   1.00
O673   O     0.50000   0.21964   0.83755   0.00000  Uiso   1.00
O674   O     0.50000   0.28037   0.16245   0.00000  Uiso   1.00
O675   O     0.78037  -0.00000   0.83755   0.00000  Uiso   1.00
O676   O     0.71964  -0.00000   0.16245   0.00000  Uiso   1.00
O677   O     0.50000   0.28037   0.83755   0.00000  Uiso   1.00
O678   O     0.50000   0.21964   0.16245   0.00000  Uiso   1.00
O679   O     0.71964  -0.00000   0.83755   0.00000  Uiso   1.00
O680   O     0.78037  -0.00000   0.16245   0.00000  Uiso   1.00
O681   O     0.70725   0.07307   0.27302   0.00000  Uiso   1.00
O682   O     0.79276   0.42693   0.72698   0.00000  Uiso   1.00
O683   O     0.92693   0.20724   0.27302   0.00000  Uiso   1.00
O684   O     0.57308   0.29276   0.72698   0.00000  Uiso   1.00
O685   O     0.79276   0.42693   0.27302   0.00000  Uiso   1.00
O686   O     0.70725   0.07307   0.72698   0.00000  Uiso   1.00
O687   O     0.57308   0.29276   0.27302   0.00000  Uiso   1.00
O688   O     0.92693   0.20724   0.72698   0.00000  Uiso   1.00
O689   O     0.70725   0.42693   0.72698   0.00000  Uiso   1.00
O690   O     0.79276   0.07307   0.27302   0.00000  Uiso   1.00
O691   O     0.92693   0.29275   0.72698   0.00000  Uiso   1.00
O692   O     0.57308   0.20725   0.27302   0.00000  Uiso   1.00
O693   O     0.79276   0.07307   0.72698   0.00000  Uiso   1.00
O694   O     0.70725   0.42693   0.27302   0.00000  Uiso   1.00
O695   O     0.57308   0.20725   0.72698   0.00000  Uiso   1.00
O696   O     0.92693   0.29275   0.27302   0.00000  Uiso   1.00
O697   O     0.95725   0.32307   0.77302   0.00000  Uiso   1.00
O698   O     0.54276   0.17693   0.22698   0.00000  Uiso   1.00
O699   O     0.67693   0.45725   0.77302   0.00000  Uiso   1.00
O700   O     0.82308   0.04275   0.22698   0.00000  Uiso   1.00
O701   O     0.54276   0.17693   0.77302   0.00000  Uiso   1.00
O702   O     0.95725   0.32307   0.22698   0.00000  Uiso   1.00
O703   O     0.82308   0.04275   0.77302   0.00000  Uiso   1.00
O704   O     0.67693   0.45725   0.22698   0.00000  Uiso   1.00
O705   O     0.95725   0.17692   0.22698   0.00000  Uiso   1.00
O706   O     0.54276   0.32308   0.77302   0.00000  Uiso   1.00
O707   O     0.67693   0.04275   0.22698   0.00000  Uiso   1.00
O708   O     0.82308   0.45725   0.77302   0.00000  Uiso   1.00
O709   O     0.54276   0.32308   0.22698   0.00000  Uiso   1.00
O710   O     0.95725   0.17692   0.77302   0.00000  Uiso   1.00
O711   O     0.82308   0.45725   0.22698   0.00000  Uiso   1.00
O712   O     0.67693   0.04275   0.77302   0.00000  Uiso   1.00
C713   C     0.56574   0.23750   0.47975   0.00000  Uiso   1.00
C714   C     0.93470   0.26318   0.52013   0.00000  Uiso   1.00
C715   C     0.76525   0.06486   0.47936   0.00000  Uiso   1.00
C716   C     0.73721   0.43430   0.52035   0.00000  Uiso   1.00
C717   C     0.93451   0.26207   0.47938   0.00000  Uiso   1.00
C718   C     0.56562   0.23682   0.52055   0.00000  Uiso   1.00
C719   C     0.73798   0.43412   0.47955   0.00000  Uiso   1.00
C720   C     0.76684   0.06457   0.52008   0.00000  Uiso   1.00
C721   C     0.68434   0.48698   0.97949   0.00000  Uiso   1.00
C722   C     0.81548   0.01204   0.02060   0.00000  Uiso   1.00
C723   C     0.51242   0.18412   0.97970   0.00000  Uiso   1.00
C724   C     0.98397   0.31459   0.02043   0.00000  Uiso   1.00
C725   C     0.81528   0.01317   0.97986   0.00000  Uiso   1.00
C726   C     0.68422   0.48757   0.02030   0.00000  Uiso   1.00
C727   C     0.98234   0.31429   0.97973   0.00000  Uiso   1.00
C728   C     0.51164   0.18396   0.02050   0.00000  Uiso   1.00
C729   C     0.74998   0.49996   0.35590   0.00000  Uiso   1.00
C730   C     0.75019  -0.00000   0.64405   0.00000  Uiso   1.00
C731   C     0.50004   0.24994   0.35591   0.00000  Uiso   1.00
C732   C     0.99999   0.25003   0.64408   0.00000  Uiso   1.00
C733   C     0.99979   0.24996   0.85594   0.00000  Uiso   1.00
C734   C     0.50000   0.24997   0.14409   0.00000  Uiso   1.00
C735   C     0.75001   0.00004   0.85592   0.00000  Uiso   1.00
C736   C     0.74997   0.49994   0.14410   0.00000  Uiso   1.00
C737   C     0.67997   0.06997   0.25003   0.00000  Uiso   1.00
C738   C     0.82014   0.43021   0.74984   0.00000  Uiso   1.00
C739   C     0.93002   0.17998   0.25000   0.00000  Uiso   1.00
C740   C     0.56998   0.31995   0.75000   0.00000  Uiso   1.00
C741   C     0.82000   0.43001   0.25005   0.00000  Uiso   1.00
C742   C     0.68002   0.06995   0.74998   0.00000  Uiso   1.00
C743   C     0.56990   0.32014   0.25012   0.00000  Uiso   1.00
C744   C     0.92985   0.18020   0.75017   0.00000  Uiso   1.00
C745   C     0.67992   0.42994   0.74999   0.00000  Uiso   1.00
C746   C     0.82003   0.07006   0.25000   0.00000  Uiso   1.00
C747   C     0.92988   0.32006   0.74997   0.00000  Uiso   1.00
C748   C     0.57003   0.17991   0.25005   0.00000  Uiso   1.00
C749   C     0.82013   0.07007   0.75002   0.00000  Uiso   1.00
C750   C     0.67961   0.43027   0.25033   0.00000  Uiso   1.00
C751   C     0.57008   0.17994   0.75001   0.00000  Uiso   1.00
C752   C     0.92996   0.32005   0.24998   0.00000  Uiso   1.00
C753   C     0.62515   0.40124   0.22013   0.00000  Uiso   1.00
C754   C     0.88408   0.08985   0.76229   0.00000  Uiso   1.00
C755   C     0.60186   0.12852   0.21770   0.00000  Uiso   1.00
C756   C     0.91000   0.38362   0.76272   0.00000  Uiso   1.00
C757   C     0.87094   0.10232   0.21733   0.00000  Uiso   1.00
C758   C     0.61494   0.41135   0.75596   0.00000  Uiso   1.00
C759   C     0.89735   0.37077   0.21720   0.00000  Uiso   1.00
C760   C     0.58859   0.11502   0.75611   0.00000  Uiso   1.00
C761   C     0.61509   0.08792   0.75314   0.00000  Uiso   1.00
C762   C     0.86926   0.39635   0.21658   0.00000  Uiso   1.00
C763   C     0.58814   0.38463   0.75244   0.00000  Uiso   1.00
C764   C     0.89656   0.13034   0.21663   0.00000  Uiso   1.00
C765   C     0.88412   0.41125   0.75876   0.00000  Uiso   1.00
C766   C     0.62999   0.10306   0.21691   0.00000  Uiso   1.00
C767   C     0.91159   0.11552   0.75712   0.00000  Uiso   1.00
C768   C     0.60055   0.37254   0.21868   0.00000  Uiso   1.00
C769   C     0.86587   0.16125   0.74122   0.00000  Uiso   1.00
C770   C     0.61981   0.35326   0.28354   0.00000  Uiso   1.00
C771   C     0.83842   0.36555   0.74290   0.00000  Uiso   1.00
C772   C     0.64668   0.11960   0.28342   0.00000  Uiso   1.00
C773   C     0.63492   0.33792   0.74685   0.00000  Uiso   1.00
C774   C     0.88054   0.14649   0.28337   0.00000  Uiso   1.00
C775   C     0.66185   0.13461   0.74754   0.00000  Uiso   1.00
C776   C     0.85376   0.38064   0.28358   0.00000  Uiso   1.00
C777   C     0.87939   0.35262   0.28288   0.00000  Uiso   1.00
C778   C     0.63505   0.16135   0.74404   0.00000  Uiso   1.00
C779   C     0.85242   0.12101   0.28263   0.00000  Uiso   1.00
C780   C     0.66141   0.36502   0.74390   0.00000  Uiso   1.00
C781   C     0.62114   0.14770   0.28267   0.00000  Uiso   1.00
C782   C     0.86594   0.33989   0.73769   0.00000  Uiso   1.00
C783   C     0.64772   0.37899   0.28283   0.00000  Uiso   1.00
C784   C     0.84000   0.13363   0.73725   0.00000  Uiso   1.00
C785   C     0.53303   0.24367   0.45921   0.00000  Uiso   1.00
C786   C     0.96732   0.25659   0.54067   0.00000  Uiso   1.00
C787   C     0.75775   0.03241   0.45902   0.00000  Uiso   1.00
C788   C     0.74407   0.46695   0.54076   0.00000  Uiso   1.00
C789   C     0.96720   0.25574   0.45905   0.00000  Uiso   1.00
C790   C     0.53292   0.24331   0.54088   0.00000  Uiso   1.00
C791   C     0.74443   0.46680   0.45909   0.00000  Uiso   1.00
C792   C     0.75915   0.03220   0.54063   0.00000  Uiso   1.00
C793   C     0.71704   0.49347   0.95914   0.00000  Uiso   1.00
C794   C     0.78278   0.00577   0.04094   0.00000  Uiso   1.00
C795   C     0.50553   0.21677   0.95924   0.00000  Uiso   1.00
C796   C     0.99168   0.28221   0.04085   0.00000  Uiso   1.00
C797   C     0.78265   0.00665   0.95933   0.00000  Uiso   1.00
C798   C     0.71695   0.49374   0.04082   0.00000  Uiso   1.00
C799   C     0.99020   0.28197   0.95925   0.00000  Uiso   1.00
C800   C     0.50516   0.21665   0.04092   0.00000  Uiso   1.00
H801   H     0.94327   0.26195   0.40220   0.00000  Uiso   1.00
H802   H     0.55732   0.24028   0.59785   0.00000  Uiso   1.00
H803   H     0.73718   0.44314   0.40224   0.00000  Uiso   1.00
H804   H     0.76312   0.05672   0.59742   0.00000  Uiso   1.00
H805   H     0.55693   0.23749   0.40240   0.00000  Uiso   1.00
H806   H     0.94278   0.25996   0.59745   0.00000  Uiso   1.00
H807   H     0.76358   0.05640   0.40218   0.00000  Uiso   1.00
H808   H     0.73959   0.44283   0.59771   0.00000  Uiso   1.00
H809   H     0.80720   0.00994   0.90255   0.00000  Uiso   1.00
H810   H     0.69317   0.48737   0.09768   0.00000  Uiso   1.00
H811   H     0.98640   0.30654   0.90246   0.00000  Uiso   1.00
H812   H     0.51262   0.19307   0.09781   0.00000  Uiso   1.00
H813   H     0.69265   0.49045   0.90217   0.00000  Uiso   1.00
H814   H     0.80674   0.01195   0.09778   0.00000  Uiso   1.00
H815   H     0.51034   0.19272   0.90230   0.00000  Uiso   1.00
H816   H     0.98634   0.30641   0.09761   0.00000  Uiso   1.00
C817   C     0.59730   0.34880   0.25068   0.00000  Uiso   1.00
C818   C     0.90217   0.15198   0.74935   0.00000  Uiso   1.00
C819   C     0.65186   0.09791   0.25012   0.00000  Uiso   1.00
C820   C     0.84783   0.40198   0.75067   0.00000  Uiso   1.00
C821   C     0.90203   0.15189   0.25000   0.00000  Uiso   1.00
C822   C     0.59813   0.34781   0.75019   0.00000  Uiso   1.00
C823   C     0.84807   0.40200   0.25010   0.00000  Uiso   1.00
C824   C     0.65187   0.09781   0.74979   0.00000  Uiso   1.00
C825   C     0.59821   0.15174   0.74979   0.00000  Uiso   1.00
C826   C     0.90191   0.34824   0.25004   0.00000  Uiso   1.00
C827   C     0.65179   0.40174   0.75022   0.00000  Uiso   1.00
C828   C     0.84815   0.09819   0.24999   0.00000  Uiso   1.00
C829   C     0.90165   0.34820   0.74990   0.00000  Uiso   1.00
C830   C     0.59806   0.15168   0.25014   0.00000  Uiso   1.00
C831   C     0.84836   0.09820   0.75007   0.00000  Uiso   1.00
C832   C     0.65048   0.40317   0.25110   0.00000  Uiso   1.00
C833   C     0.50012   0.24973   0.47957   0.00000  Uiso   1.00
C834   C     0.50012   0.24984   0.52034   0.00000  Uiso   1.00
C835   C     0.75123   0.49959   0.47949   0.00000  Uiso   1.00
C836   C     0.75145   0.49958   0.52026   0.00000  Uiso   1.00
C837   C     0.74985   0.49995   0.97968   0.00000  Uiso   1.00
C838   C     0.74985   0.49983   0.02044   0.00000  Uiso   1.00
C839   C     0.99798   0.24936   0.97968   0.00000  Uiso   1.00
C840   C     0.99821   0.24938   0.02045   0.00000  Uiso   1.00
N841   N     0.59923   0.23146   0.45937   0.00000  Uiso   1.00
O842   O     0.61373   0.25767   0.43926   0.00000  Uiso   1.00
O843   O     0.61720   0.20129   0.46437   0.00000  Uiso   1.00
N844   N     0.90161   0.27116   0.54047   0.00000  Uiso   1.00
O845   O     0.89906   0.30083   0.56089   0.00000  Uiso   1.00
O846   O     0.87295   0.25094   0.53536   0.00000  Uiso   1.00
N847   N     0.77176   0.09823   0.45882   0.00000  Uiso   1.00
O848   O     0.74543   0.11374   0.43969   0.00000  Uiso   1.00
O849   O     0.80280   0.11492   0.46237   0.00000  Uiso   1.00
N850   N     0.73014   0.40099   0.54084   0.00000  Uiso   1.00
O851   O     0.70083   0.39770   0.56169   0.00000  Uiso   1.00
O852   O     0.75104   0.37282   0.53568   0.00000  Uiso   1.00
N853   N     0.90101   0.26790   0.45882   0.00000  Uiso   1.00
O854   O     0.88647   0.24146   0.43906   0.00000  Uiso   1.00
O855   O     0.88319   0.29823   0.46310   0.00000  Uiso   1.00
N856   N     0.59899   0.23004   0.54109   0.00000  Uiso   1.00
O857   O     0.60238   0.20104   0.56252   0.00000  Uiso   1.00
O858   O     0.62709   0.25091   0.53548   0.00000  Uiso   1.00
N859   N     0.73184   0.40063   0.45911   0.00000  Uiso   1.00
O860   O     0.75776   0.38635   0.43842   0.00000  Uiso   1.00
O861   O     0.70181   0.38256   0.46428   0.00000  Uiso   1.00
N862   N     0.77648   0.09729   0.54033   0.00000  Uiso   1.00
O863   O     0.80708   0.09887   0.55930   0.00000  Uiso   1.00
O864   O     0.75748   0.12682   0.53531   0.00000  Uiso   1.00
N865   N     0.65097   0.48029   0.95894   0.00000  Uiso   1.00
O866   O     0.64755   0.45130   0.93753   0.00000  Uiso   1.00
O867   O     0.62288   0.00117   0.96457   0.00000  Uiso   1.00
N868   N     0.84900   0.01772   0.04115   0.00000  Uiso   1.00
O869   O     0.86348   0.49119   0.06088   0.00000  Uiso   1.00
O870   O     0.86690   0.04800   0.03687   0.00000  Uiso   1.00
N871   N     0.51957   0.15081   0.95926   0.00000  Uiso   1.00
O872   O     0.54894   0.14752   0.93852   0.00000  Uiso   1.00
O873   O     0.99870   0.12264   0.96444   0.00000  Uiso   1.00
N874   N     0.97768   0.34799   0.04086   0.00000  Uiso   1.00
O875   O     0.50460   0.36414   0.05830   0.00000  Uiso   1.00
O876   O     0.94644   0.36444   0.03802   0.00000  Uiso   1.00
N877   N     0.84837   0.02107   0.95950   0.00000  Uiso   1.00
O878   O     0.85096   0.05074   0.93904   0.00000  Uiso   1.00
O879   O     0.87700   0.00078   0.96460   0.00000  Uiso   1.00
N880   N     0.65077   0.48120   0.04069   0.00000  Uiso   1.00
O881   O     0.63656   0.00682   0.06189   0.00000  Uiso   1.00
O882   O     0.63273   0.45119   0.03509   0.00000  Uiso   1.00
N883   N     0.97253   0.34698   0.95944   0.00000  Uiso   1.00
O884   O     0.94205   0.34835   0.94021   0.00000  Uiso   1.00
O885   O     0.99128   0.37663   0.96453   0.00000  Uiso   1.00
N886   N     0.51786   0.15049   0.04101   0.00000  Uiso   1.00
O887   O     0.99198   0.13620   0.06172   0.00000  Uiso   1.00
O888   O     0.54792   0.13244   0.03583   0.00000  Uiso   1.00
O889   O     0.62626   0.42508   0.18890   0.00000  Uiso   1.00
C890   C     0.60585   0.45692   0.19734   0.00000  Uiso   1.00
H891   H     0.62057   0.48032   0.18422   0.00000  Uiso   1.00
H892   H     0.60354   0.46295   0.22906   0.00000  Uiso   1.00
C893   C     0.56790   0.45497   0.17915   0.00000  Uiso   1.00
H894   H     0.57009   0.44594   0.14843   0.00000  Uiso   1.00
H895   H     0.55111   0.43502   0.19542   0.00000  Uiso   1.00
C896   C     0.54908   0.49202   0.18039   0.00000  Uiso   1.00
H897   H     0.54710   0.00194   0.21080   0.00000  Uiso   1.00
H898   H     0.52122   0.48974   0.16823   0.00000  Uiso   1.00
H899   H     0.56449   0.01209   0.16277   0.00000  Uiso   1.00
O900   O     0.89335   0.05527   0.77479   0.00000  Uiso   1.00
C901   C     0.88911   0.05286   0.81569   0.00000  Uiso   1.00
H902   H     0.87680   0.02591   0.82218   0.00000  Uiso   1.00
H903   H     0.87029   0.07372   0.82817   0.00000  Uiso   1.00
C904   C     0.92604   0.05477   0.83610   0.00000  Uiso   1.00
H905   H     0.94415   0.03323   0.82439   0.00000  Uiso   1.00
H906   H     0.93874   0.08170   0.83074   0.00000  Uiso   1.00
C907   C     0.92200   0.04938   0.87984   0.00000  Uiso   1.00
H908   H     0.90549   0.07179   0.89236   0.00000  Uiso   1.00
H909   H     0.94914   0.04961   0.89397   0.00000  Uiso   1.00
H910   H     0.90876   0.02285   0.88614   0.00000  Uiso   1.00
O911   O     0.58021   0.13297   0.18506   0.00000  Uiso   1.00
C912   C     0.55327   0.10550   0.18473   0.00000  Uiso   1.00
H913   H     0.53900   0.10378   0.21327   0.00000  Uiso   1.00
H914   H     0.56566   0.07862   0.17801   0.00000  Uiso   1.00
C915   C     0.52518   0.11441   0.15337   0.00000  Uiso   1.00
H916   H     0.51256   0.14125   0.15970   0.00000  Uiso   1.00
H917   H     0.53886   0.11605   0.12465   0.00000  Uiso   1.00
C918   C     0.99546   0.08549   0.15172   0.00000  Uiso   1.00
H919   H     0.50719   0.05874   0.14344   0.00000  Uiso   1.00
H920   H     0.97469   0.09329   0.12980   0.00000  Uiso   1.00
H921   H     0.98208   0.08301   0.18049   0.00000  Uiso   1.00
O922   O     0.94472   0.39244   0.77476   0.00000  Uiso   1.00
C923   C     0.94528   0.39450   0.81569   0.00000  Uiso   1.00
H924   H     0.93597   0.36835   0.82881   0.00000  Uiso   1.00
H925   H     0.92759   0.41706   0.82621   0.00000  Uiso   1.00
C926   C     0.98426   0.40198   0.82863   0.00000  Uiso   1.00
H927   H     0.50291   0.38218   0.81449   0.00000  Uiso   1.00
H928   H     0.99199   0.42988   0.81943   0.00000  Uiso   1.00
C929   C     0.98845   0.39873   0.87249   0.00000  Uiso   1.00
H930   H     0.97013   0.41823   0.88749   0.00000  Uiso   1.00
H931   H     0.51698   0.40464   0.88093   0.00000  Uiso   1.00
H932   H     0.98195   0.37058   0.88168   0.00000  Uiso   1.00
O933   O     0.86587   0.08118   0.18444   0.00000  Uiso   1.00
C934   C     0.89302   0.05393   0.18335   0.00000  Uiso   1.00
H935   H     0.89545   0.03954   0.21182   0.00000  Uiso   1.00
H936   H     0.91970   0.06612   0.17581   0.00000  Uiso   1.00
C937   C     0.88313   0.02597   0.15224   0.00000  Uiso   1.00
H938   H     0.85648   0.01340   0.15935   0.00000  Uiso   1.00
H939   H     0.88075   0.03979   0.12361   0.00000  Uiso   1.00
C940   C     0.91190   0.49614   0.14967   0.00000  Uiso   1.00
H941   H     0.93855   0.00797   0.14122   0.00000  Uiso   1.00
H942   H     0.90378   0.47575   0.12753   0.00000  Uiso   1.00
H943   H     0.91474   0.48218   0.17812   0.00000  Uiso   1.00
O944   O     0.60444   0.44735   0.76004   0.00000  Uiso   1.00
C945   C     0.60461   0.45712   0.79991   0.00000  Uiso   1.00
H946   H     0.61374   0.48590   0.80182   0.00000  Uiso   1.00
H947   H     0.62397   0.44080   0.81798   0.00000  Uiso   1.00
C948   C     0.56651   0.45444   0.81720   0.00000  Uiso   1.00
H949   H     0.54712   0.47057   0.79931   0.00000  Uiso   1.00
H950   H     0.55784   0.42555   0.81724   0.00000  Uiso   1.00
C951   C     0.56604   0.46837   0.85896   0.00000  Uiso   1.00
H952   H     0.58287   0.45049   0.87784   0.00000  Uiso   1.00
H953   H     0.53773   0.46843   0.87006   0.00000  Uiso   1.00
H954   H     0.57690   0.49653   0.86038   0.00000  Uiso   1.00
O955   O     0.91698   0.36454   0.18354   0.00000  Uiso   1.00
C956   C     0.94347   0.39211   0.17870   0.00000  Uiso   1.00
H957   H     0.96813   0.38518   0.19595   0.00000  Uiso   1.00
H958   H     0.93391   0.41952   0.18805   0.00000  Uiso   1.00
C959   C     0.95357   0.39420   0.13576   0.00000  Uiso   1.00
H960   H     0.96238   0.36689   0.12557   0.00000  Uiso   1.00
H961   H     0.92928   0.40258   0.11867   0.00000  Uiso   1.00
C962   C     0.98418   0.42141   0.12886   0.00000  Uiso   1.00
H963   H     0.97683   0.44843   0.14088   0.00000  Uiso   1.00
H964   H     0.98899   0.42452   0.09722   0.00000  Uiso   1.00
H965   H     0.50958   0.41155   0.14279   0.00000  Uiso   1.00
O966   O     0.55281   0.10511   0.76266   0.00000  Uiso   1.00
C967   C     0.54745   0.09862   0.80289   0.00000  Uiso   1.00
H968   H     0.52953   0.12038   0.81451   0.00000  Uiso   1.00
H969   H     0.57294   0.09881   0.82073   0.00000  Uiso   1.00
C970   C     0.52849   0.06201   0.80864   0.00000  Uiso   1.00
H971   H     0.50251   0.06160   0.79213   0.00000  Uiso   1.00
H972   H     0.54606   0.03977   0.79752   0.00000  Uiso   1.00
C973   C     0.52067   0.05531   0.85155   0.00000  Uiso   1.00
H974   H     0.54639   0.05488   0.86851   0.00000  Uiso   1.00
H975   H     0.50677   0.02871   0.85509   0.00000  Uiso   1.00
H976   H     0.50289   0.07715   0.86320   0.00000  Uiso   1.00
O977   O     0.60470   0.05178   0.75577   0.00000  Uiso   1.00
C978   C     0.60629   0.03506   0.71871   0.00000  Uiso   1.00
H979   H     0.62525   0.01155   0.72063   0.00000  Uiso   1.00
H980   H     0.61646   0.05308   0.69488   0.00000  Uiso   1.00
C981   C     0.56851   0.02115   0.70774   0.00000  Uiso   1.00
H982   H     0.55859   0.00227   0.73061   0.00000  Uiso   1.00
H983   H     0.54947   0.04460   0.70582   0.00000  Uiso   1.00
C984   C     0.56907   0.00127   0.66883   0.00000  Uiso   1.00
H985   H     0.57832   0.01988   0.64541   0.00000  Uiso   1.00
H986   H     0.54129   0.49159   0.66159   0.00000  Uiso   1.00
H987   H     0.58759   0.47740   0.67033   0.00000  Uiso   1.00
O988   O     0.86429   0.41729   0.18354   0.00000  Uiso   1.00
C989   C     0.83845   0.40026   0.15923   0.00000  Uiso   1.00
H990   H     0.81159   0.39852   0.17406   0.00000  Uiso   1.00
H991   H     0.84756   0.37236   0.15097   0.00000  Uiso   1.00
C992   C     0.83424   0.42297   0.12228   0.00000  Uiso   1.00
H993   H     0.82814   0.45162   0.13021   0.00000  Uiso   1.00
H994   H     0.86022   0.42254   0.10583   0.00000  Uiso   1.00
C995   C     0.80376   0.40854   0.09639   0.00000  Uiso   1.00
H996   H     0.80919   0.37982   0.08815   0.00000  Uiso   1.00
H997   H     0.80209   0.42521   0.06951   0.00000  Uiso   1.00
H998   H     0.77726   0.41025   0.11173   0.00000  Uiso   1.00
O999   O     0.55198   0.39463   0.74952   0.00000  Uiso   1.00
C1000  C     0.54284   0.39817   0.70968   0.00000  Uiso   1.00
H1001  H     0.55902   0.38000   0.69019   0.00000  Uiso   1.00
H1002  H     0.54744   0.42683   0.70058   0.00000  Uiso   1.00
C1003  C     0.50280   0.38856   0.70417   0.00000  Uiso   1.00
H1004  H     0.99788   0.36032   0.71449   0.00000  Uiso   1.00
H1005  H     0.98613   0.40741   0.72172   0.00000  Uiso   1.00
C1006  C     0.99117   0.39154   0.66172   0.00000  Uiso   1.00
H1007  H     0.99576   0.41961   0.65077   0.00000  Uiso   1.00
H1008  H     0.96176   0.38508   0.65914   0.00000  Uiso   1.00
H1009  H     0.50677   0.37198   0.64364   0.00000  Uiso   1.00
O1010  O     0.91769   0.13491   0.18376   0.00000  Uiso   1.00
C1011  C     0.90077   0.16050   0.15902   0.00000  Uiso   1.00
H1012  H     0.89887   0.18754   0.17355   0.00000  Uiso   1.00
H1013  H     0.87297   0.15126   0.15058   0.00000  Uiso   1.00
C1014  C     0.92368   0.16440   0.12225   0.00000  Uiso   1.00
H1015  H     0.95223   0.17073   0.13039   0.00000  Uiso   1.00
H1016  H     0.92347   0.13820   0.10611   0.00000  Uiso   1.00
C1017  C     0.90926   0.19454   0.09587   0.00000  Uiso   1.00
H1018  H     0.88062   0.18894   0.08748   0.00000  Uiso   1.00
H1019  H     0.92602   0.19594   0.06911   0.00000  Uiso   1.00
H1020  H     0.91080   0.22126   0.11090   0.00000  Uiso   1.00
O1021  O     0.89429   0.44723   0.76406   0.00000  Uiso   1.00
C1022  C     0.91486   0.45933   0.73168   0.00000  Uiso   1.00
H1023  H     0.89734   0.47743   0.71374   0.00000  Uiso   1.00
H1024  H     0.92480   0.43709   0.71224   0.00000  Uiso   1.00
C1025  C     0.94768   0.48105   0.74609   0.00000  Uiso   1.00
H1026  H     0.93803   0.00612   0.76056   0.00000  Uiso   1.00
H1027  H     0.96319   0.46490   0.76776   0.00000  Uiso   1.00
C1028  C     0.97308   0.49153   0.71292   0.00000  Uiso   1.00
H1029  H     0.99037   0.46815   0.70461   0.00000  Uiso   1.00
H1030  H     0.99097   0.01410   0.72253   0.00000  Uiso   1.00
H1031  H     0.95750   0.00039   0.68694   0.00000  Uiso   1.00
O1032  O     0.63435   0.08172   0.18413   0.00000  Uiso   1.00
C1033  C     0.65941   0.09873   0.15897   0.00000  Uiso   1.00
H1034  H     0.68655   0.10114   0.17321   0.00000  Uiso   1.00
H1035  H     0.64968   0.12633   0.15034   0.00000  Uiso   1.00
C1036  C     0.66322   0.07547   0.12241   0.00000  Uiso   1.00
H1037  H     0.67021   0.04711   0.13080   0.00000  Uiso   1.00
H1038  H     0.63681   0.07499   0.10664   0.00000  Uiso   1.00
C1039  C     0.69268   0.09014   0.09546   0.00000  Uiso   1.00
H1040  H     0.68638   0.11858   0.08678   0.00000  Uiso   1.00
H1041  H     0.69406   0.07306   0.06890   0.00000  Uiso   1.00
H1042  H     0.71960   0.08932   0.11017   0.00000  Uiso   1.00
O1043  O     0.94743   0.10393   0.75968   0.00000  Uiso   1.00
C1044  C     0.96451   0.10449   0.72263   0.00000  Uiso   1.00
H1045  H     0.99160   0.09160   0.72626   0.00000  Uiso   1.00
H1046  H     0.96975   0.13275   0.71270   0.00000  Uiso   1.00
C1047  C     0.94364   0.08334   0.69097   0.00000  Uiso   1.00
H1048  H     0.93415   0.05698   0.70287   0.00000  Uiso   1.00
H1049  H     0.91932   0.09914   0.68171   0.00000  Uiso   1.00
C1050  C     0.96736   0.07669   0.65533   0.00000  Uiso   1.00
H1051  H     0.97634   0.10303   0.64272   0.00000  Uiso   1.00
H1052  H     0.95150   0.06160   0.63308   0.00000  Uiso   1.00
H1053  H     0.99165   0.06027   0.66323   0.00000  Uiso   1.00
O1054  O     0.57788   0.36963   0.18670   0.00000  Uiso   1.00
C1055  C     0.59451   0.34686   0.15889   0.00000  Uiso   1.00
H1056  H     0.59849   0.31895   0.17089   0.00000  Uiso   1.00
H1057  H     0.62132   0.35811   0.14972   0.00000  Uiso   1.00
C1058  C     0.56977   0.34457   0.12325   0.00000  Uiso   1.00
H1059  H     0.54213   0.33583   0.13233   0.00000  Uiso   1.00
H1060  H     0.56752   0.37196   0.10970   0.00000  Uiso   1.00
C1061  C     0.58443   0.31764   0.09338   0.00000  Uiso   1.00
H1062  H     0.61219   0.32570   0.08404   0.00000  Uiso   1.00
H1063  H     0.56637   0.31734   0.06749   0.00000  Uiso   1.00
H1064  H     0.58529   0.28976   0.10588   0.00000  Uiso   1.00
O1065  O     0.85570   0.19724   0.73586   0.00000  Uiso   1.00
C1066  C     0.83503   0.20935   0.76815   0.00000  Uiso   1.00
H1067  H     0.85249   0.22740   0.78617   0.00000  Uiso   1.00
H1068  H     0.82499   0.18711   0.78755   0.00000  Uiso   1.00
C1069  C     0.80227   0.23115   0.75360   0.00000  Uiso   1.00
H1070  H     0.81201   0.25622   0.73919   0.00000  Uiso   1.00
H1071  H     0.78685   0.21505   0.73183   0.00000  Uiso   1.00
C1072  C     0.77674   0.24162   0.78664   0.00000  Uiso   1.00
H1073  H     0.75930   0.21830   0.79475   0.00000  Uiso   1.00
H1074  H     0.75900   0.26433   0.77699   0.00000  Uiso   1.00
H1075  H     0.79221   0.25030   0.81275   0.00000  Uiso   1.00
O1076  O     0.61591   0.33143   0.31605   0.00000  Uiso   1.00
C1077  C     0.59079   0.34792   0.34155   0.00000  Uiso   1.00
H1078  H     0.56345   0.34979   0.32764   0.00000  Uiso   1.00
H1079  H     0.60000   0.37571   0.35006   0.00000  Uiso   1.00
C1080  C     0.58783   0.32463   0.37820   0.00000  Uiso   1.00
H1081  H     0.58137   0.29613   0.36998   0.00000  Uiso   1.00
H1082  H     0.61437   0.32478   0.39371   0.00000  Uiso   1.00
C1083  C     0.55831   0.33875   0.40541   0.00000  Uiso   1.00
H1084  H     0.56401   0.36736   0.41384   0.00000  Uiso   1.00
H1085  H     0.55762   0.32177   0.43210   0.00000  Uiso   1.00
H1086  H     0.53126   0.33723   0.39104   0.00000  Uiso   1.00
O1087  O     0.80259   0.35397   0.74036   0.00000  Uiso   1.00
C1088  C     0.78554   0.35447   0.77742   0.00000  Uiso   1.00
H1089  H     0.75843   0.34166   0.77380   0.00000  Uiso   1.00
H1090  H     0.78035   0.38272   0.78742   0.00000  Uiso   1.00
C1091  C     0.80641   0.33319   0.80902   0.00000  Uiso   1.00
H1092  H     0.81586   0.30684   0.79706   0.00000  Uiso   1.00
H1093  H     0.83075   0.34891   0.81829   0.00000  Uiso   1.00
C1094  C     0.78271   0.32648   0.84466   0.00000  Uiso   1.00
H1095  H     0.77377   0.35280   0.85734   0.00000  Uiso   1.00
H1096  H     0.79857   0.31130   0.86687   0.00000  Uiso   1.00
H1097  H     0.75839   0.31014   0.83676   0.00000  Uiso   1.00
O1098  O     0.66811   0.11518   0.31619   0.00000  Uiso   1.00
C1099  C     0.65146   0.08970   0.34118   0.00000  Uiso   1.00
H1100  H     0.64949   0.06259   0.32680   0.00000  Uiso   1.00
H1101  H     0.62372   0.09895   0.34972   0.00000  Uiso   1.00
C1102  C     0.67470   0.08601   0.37784   0.00000  Uiso   1.00
H1103  H     0.70321   0.07974   0.36959   0.00000  Uiso   1.00
H1104  H     0.67454   0.11227   0.39388   0.00000  Uiso   1.00
C1105  C     0.66064   0.05592   0.40443   0.00000  Uiso   1.00
H1106  H     0.63207   0.06149   0.41300   0.00000  Uiso   1.00
H1107  H     0.67768   0.05464   0.43107   0.00000  Uiso   1.00
H1108  H     0.66211   0.02916   0.38948   0.00000  Uiso   1.00
O1109  O     0.64533   0.30178   0.74424   0.00000  Uiso   1.00
C1110  C     0.64373   0.28502   0.78130   0.00000  Uiso   1.00
H1111  H     0.62477   0.26154   0.77937   0.00000  Uiso   1.00
H1112  H     0.63355   0.30304   0.80512   0.00000  Uiso   1.00
C1113  C     0.68150   0.27107   0.79228   0.00000  Uiso   1.00
H1114  H     0.69142   0.25218   0.76942   0.00000  Uiso   1.00
H1115  H     0.70054   0.29449   0.79419   0.00000  Uiso   1.00
C1116  C     0.68093   0.25117   0.83120   0.00000  Uiso   1.00
H1117  H     0.67169   0.26978   0.85462   0.00000  Uiso   1.00
H1118  H     0.70871   0.24144   0.83845   0.00000  Uiso   1.00
H1119  H     0.66240   0.22733   0.82973   0.00000  Uiso   1.00
O1120  O     0.88527   0.16758   0.31630   0.00000  Uiso   1.00
C1121  C     0.91093   0.15060   0.34090   0.00000  Uiso   1.00
H1122  H     0.93790   0.14876   0.32629   0.00000  Uiso   1.00
H1123  H     0.90175   0.12274   0.34922   0.00000  Uiso   1.00
C1124  C     0.91493   0.17341   0.37777   0.00000  Uiso   1.00
H1125  H     0.92111   0.20203   0.36975   0.00000  Uiso   1.00
H1126  H     0.88883   0.17307   0.39402   0.00000  Uiso   1.00
C1127  C     0.94523   0.15902   0.40395   0.00000  Uiso   1.00
H1128  H     0.93975   0.13032   0.41225   0.00000  Uiso   1.00
H1129  H     0.94671   0.17574   0.43078   0.00000  Uiso   1.00
H1130  H     0.97184   0.16066   0.38881   0.00000  Uiso   1.00
O1131  O     0.69801   0.14459   0.75045   0.00000  Uiso   1.00
C1132  C     0.70714   0.14816   0.79028   0.00000  Uiso   1.00
H1133  H     0.69101   0.12995   0.80979   0.00000  Uiso   1.00
H1134  H     0.70243   0.17681   0.79934   0.00000  Uiso   1.00
C1135  C     0.74721   0.13866   0.79581   0.00000  Uiso   1.00
H1136  H     0.75221   0.11040   0.78562   0.00000  Uiso   1.00
H1137  H     0.76381   0.15749   0.77817   0.00000  Uiso   1.00
C1138  C     0.75885   0.14180   0.83824   0.00000  Uiso   1.00
H1139  H     0.75420   0.16990   0.84905   0.00000  Uiso   1.00
H1140  H     0.78828   0.13538   0.84084   0.00000  Uiso   1.00
H1141  H     0.74330   0.12228   0.85643   0.00000  Uiso   1.00
O1142  O     0.83264   0.38522   0.31645   0.00000  Uiso   1.00
C1143  C     0.84945   0.41090   0.34111   0.00000  Uiso   1.00
H1144  H     0.85128   0.43790   0.32647   0.00000  Uiso   1.00
H1145  H     0.87727   0.40173   0.34961   0.00000  Uiso   1.00
C1146  C     0.82648   0.41482   0.37783   0.00000  Uiso   1.00
H1147  H     0.79793   0.42108   0.36963   0.00000  Uiso   1.00
H1148  H     0.82672   0.38864   0.39405   0.00000  Uiso   1.00
C1149  C     0.84077   0.44503   0.40414   0.00000  Uiso   1.00
H1150  H     0.86941   0.43947   0.41262   0.00000  Uiso   1.00
H1151  H     0.82395   0.44646   0.43085   0.00000  Uiso   1.00
H1152  H     0.83921   0.47171   0.38901   0.00000  Uiso   1.00
O1153  O     0.88436   0.33137   0.31573   0.00000  Uiso   1.00
C1154  C     0.85717   0.30418   0.31660   0.00000  Uiso   1.00
H1155  H     0.85519   0.28963   0.28820   0.00000  Uiso   1.00
H1156  H     0.83036   0.31644   0.32353   0.00000  Uiso   1.00
C1157  C     0.86647   0.27641   0.34813   0.00000  Uiso   1.00
H1158  H     0.89345   0.26408   0.34191   0.00000  Uiso   1.00
H1159  H     0.86791   0.29032   0.37676   0.00000  Uiso   1.00
C1160  C     0.83793   0.24632   0.34986   0.00000  Uiso   1.00
H1161  H     0.81091   0.25786   0.35738   0.00000  Uiso   1.00
H1162  H     0.84564   0.22602   0.37231   0.00000  Uiso   1.00
H1163  H     0.83609   0.23235   0.32132   0.00000  Uiso   1.00
O1164  O     0.64553   0.19736   0.73997   0.00000  Uiso   1.00
C1165  C     0.64537   0.20716   0.70010   0.00000  Uiso   1.00
H1166  H     0.63622   0.23595   0.69819   0.00000  Uiso   1.00
H1167  H     0.62604   0.19087   0.68202   0.00000  Uiso   1.00
C1168  C     0.68348   0.20451   0.68283   0.00000  Uiso   1.00
H1169  H     0.70285   0.22059   0.70074   0.00000  Uiso   1.00
H1170  H     0.69217   0.17561   0.68278   0.00000  Uiso   1.00
C1171  C     0.68396   0.21851   0.64109   0.00000  Uiso   1.00
H1172  H     0.66715   0.20066   0.62218   0.00000  Uiso   1.00
H1173  H     0.71229   0.21857   0.63000   0.00000  Uiso   1.00
H1174  H     0.67310   0.24667   0.63968   0.00000  Uiso   1.00
O1175  O     0.83122   0.11620   0.31547   0.00000  Uiso   1.00
C1176  C     0.80413   0.14351   0.31627   0.00000  Uiso   1.00
H1177  H     0.78925   0.14510   0.28802   0.00000  Uiso   1.00
H1178  H     0.81647   0.17043   0.32267   0.00000  Uiso   1.00
C1179  C     0.77680   0.13463   0.34825   0.00000  Uiso   1.00
H1180  H     0.76420   0.10769   0.34236   0.00000  Uiso   1.00
H1181  H     0.79113   0.13326   0.37667   0.00000  Uiso   1.00
C1182  C     0.74697   0.16345   0.35029   0.00000  Uiso   1.00
H1183  H     0.75880   0.19040   0.35769   0.00000  Uiso   1.00
H1184  H     0.72690   0.15593   0.37296   0.00000  Uiso   1.00
H1185  H     0.73272   0.16538   0.32190   0.00000  Uiso   1.00
O1186  O     0.69720   0.35509   0.73735   0.00000  Uiso   1.00
C1187  C     0.70256   0.34863   0.69713   0.00000  Uiso   1.00
H1188  H     0.72044   0.37041   0.68549   0.00000  Uiso   1.00
H1189  H     0.67706   0.34881   0.67929   0.00000  Uiso   1.00
C1190  C     0.72158   0.31205   0.69139   0.00000  Uiso   1.00
H1191  H     0.74757   0.31165   0.70788   0.00000  Uiso   1.00
H1192  H     0.70406   0.28978   0.70254   0.00000  Uiso   1.00
C1193  C     0.72939   0.30537   0.64848   0.00000  Uiso   1.00
H1194  H     0.70366   0.30493   0.63154   0.00000  Uiso   1.00
H1195  H     0.74333   0.27878   0.64495   0.00000  Uiso   1.00
H1196  H     0.74712   0.32724   0.63681   0.00000  Uiso   1.00
O1197  O     0.61648   0.16908   0.31543   0.00000  Uiso   1.00
C1198  C     0.64381   0.19612   0.31610   0.00000  Uiso   1.00
H1199  H     0.64508   0.21109   0.28790   0.00000  Uiso   1.00
H1200  H     0.67077   0.18371   0.32215   0.00000  Uiso   1.00
C1201  C     0.63537   0.22340   0.34831   0.00000  Uiso   1.00
H1202  H     0.60854   0.23631   0.34258   0.00000  Uiso   1.00
H1203  H     0.63401   0.20896   0.37665   0.00000  Uiso   1.00
C1204  C     0.66448   0.25291   0.35044   0.00000  Uiso   1.00
H1205  H     0.69132   0.24074   0.35770   0.00000  Uiso   1.00
H1206  H     0.65731   0.27300   0.37323   0.00000  Uiso   1.00
H1207  H     0.66643   0.26723   0.32212   0.00000  Uiso   1.00
O1208  O     0.85669   0.30534   0.72514   0.00000  Uiso   1.00
C1209  C     0.86095   0.30301   0.68425   0.00000  Uiso   1.00
H1210  H     0.87321   0.27604   0.67773   0.00000  Uiso   1.00
H1211  H     0.87980   0.32385   0.67181   0.00000  Uiso   1.00
C1212  C     0.82403   0.30506   0.66382   0.00000  Uiso   1.00
H1213  H     0.80588   0.28353   0.67548   0.00000  Uiso   1.00
H1214  H     0.81137   0.33201   0.66921   0.00000  Uiso   1.00
C1215  C     0.82809   0.29978   0.62007   0.00000  Uiso   1.00
H1216  H     0.84465   0.32217   0.60760   0.00000  Uiso   1.00
H1217  H     0.80096   0.30012   0.60592   0.00000  Uiso   1.00
H1218  H     0.84128   0.27323   0.61374   0.00000  Uiso   1.00
O1219  O     0.66973   0.38315   0.31525   0.00000  Uiso   1.00
C1220  C     0.69683   0.35586   0.31501   0.00000  Uiso   1.00
H1221  H     0.71102   0.35468   0.28639   0.00000  Uiso   1.00
H1222  H     0.68466   0.32886   0.32131   0.00000  Uiso   1.00
C1223  C     0.72489   0.36437   0.34649   0.00000  Uiso   1.00
H1224  H     0.73738   0.39137   0.34064   0.00000  Uiso   1.00
H1225  H     0.71122   0.36546   0.37525   0.00000  Uiso   1.00
C1226  C     0.75473   0.33554   0.34761   0.00000  Uiso   1.00
H1227  H     0.74308   0.30853   0.35506   0.00000  Uiso   1.00
H1228  H     0.77533   0.34289   0.36989   0.00000  Uiso   1.00
H1229  H     0.76831   0.33385   0.31888   0.00000  Uiso   1.00
O1230  O     0.80528   0.14248   0.72521   0.00000  Uiso   1.00
C1231  C     0.80471   0.14453   0.68428   0.00000  Uiso   1.00
H1232  H     0.81402   0.11837   0.67119   0.00000  Uiso   1.00
H1233  H     0.82240   0.16707   0.67372   0.00000  Uiso   1.00
C1234  C     0.76572   0.15205   0.67135   0.00000  Uiso   1.00
H1235  H     0.74708   0.13229   0.68554   0.00000  Uiso   1.00
H1236  H     0.75801   0.17996   0.68047   0.00000  Uiso   1.00
C1237  C     0.76151   0.14876   0.62749   0.00000  Uiso   1.00
H1238  H     0.77985   0.16818   0.61243   0.00000  Uiso   1.00
H1239  H     0.73298   0.15471   0.61905   0.00000  Uiso   1.00
H1240  H     0.76796   0.12057   0.61838   0.00000  Uiso   1.00
Zn1241 Zn    0.20660   0.50000   0.21735   0.00000  Uiso   1.00
Zn1242 Zn    0.29341   0.50000   0.78265   0.00000  Uiso   1.00
Zn1243 Zn    0.00000   0.70660   0.21735   0.00000  Uiso   1.00
Zn1244 Zn    0.00000   0.79341   0.78265   0.00000  Uiso   1.00
Zn1245 Zn    0.29341   0.50000   0.21735   0.00000  Uiso   1.00
Zn1246 Zn    0.20660   0.50000   0.78265   0.00000  Uiso   1.00
Zn1247 Zn    0.00000   0.79341   0.21735   0.00000  Uiso   1.00
Zn1248 Zn    0.00000   0.70660   0.78265   0.00000  Uiso   1.00
Zn1249 Zn    0.45660   0.75000   0.71735   0.00000  Uiso   1.00
Zn1250 Zn    0.04341   0.75000   0.28265   0.00000  Uiso   1.00
Zn1251 Zn    0.25000   0.95660   0.71735   0.00000  Uiso   1.00
Zn1252 Zn    0.25000   0.54340   0.28265   0.00000  Uiso   1.00
Zn1253 Zn    0.04341   0.75000   0.71735   0.00000  Uiso   1.00
Zn1254 Zn    0.45660   0.75000   0.28265   0.00000  Uiso   1.00
Zn1255 Zn    0.25000   0.54340   0.71735   0.00000  Uiso   1.00
Zn1256 Zn    0.25000   0.95660   0.28265   0.00000  Uiso   1.00
C1257  C     0.46783   0.75622   0.41846   0.00000  Uiso   1.00
C1258  C     0.03246   0.74421   0.58151   0.00000  Uiso   1.00
C1259  C     0.24349   0.96756   0.41847   0.00000  Uiso   1.00
C1260  C     0.25820   0.53196   0.58127   0.00000  Uiso   1.00
C1261  C     0.03238   0.74319   0.41859   0.00000  Uiso   1.00
C1262  C     0.46767   0.75590   0.58129   0.00000  Uiso   1.00
C1263  C     0.25760   0.53191   0.41844   0.00000  Uiso   1.00
C1264  C     0.24445   0.96752   0.58139   0.00000  Uiso   1.00
C1265  C     0.28231   0.50593   0.91871   0.00000  Uiso   1.00
C1266  C     0.21765   0.99318   0.08144   0.00000  Uiso   1.00
C1267  C     0.49134   0.78178   0.91864   0.00000  Uiso   1.00
C1268  C     0.00624   0.71747   0.08154   0.00000  Uiso   1.00
C1269  C     0.21750   0.99435   0.91851   0.00000  Uiso   1.00
C1270  C     0.28218   0.50623   0.08153   0.00000  Uiso   1.00
C1271  C     0.00532   0.71738   0.91860   0.00000  Uiso   1.00
C1272  C     0.49214   0.78184   0.08144   0.00000  Uiso   1.00
C1273  C     0.00010   0.74978   0.39832   0.00000  Uiso   1.00
C1274  C     0.00002   0.75004   0.60162   0.00000  Uiso   1.00
C1275  C     0.25026   0.99982   0.39827   0.00000  Uiso   1.00
C1276  C     0.25086   0.99988   0.60157   0.00000  Uiso   1.00
C1277  C     0.24995   0.50010   0.89838   0.00000  Uiso   1.00
C1278  C     0.24992   0.99978   0.10169   0.00000  Uiso   1.00
C1279  C     0.49892   0.74976   0.89839   0.00000  Uiso   1.00
C1280  C     0.49959   0.74979   0.10169   0.00000  Uiso   1.00
O1281  O     0.25000   0.50000   0.25000   0.00000  Uiso   1.00
O1282  O     0.25000   0.50000   0.75000   0.00000  Uiso   1.00
O1283  O     0.00000   0.75000   0.25000   0.00000  Uiso   1.00
O1284  O     0.00000   0.75000   0.75000   0.00000  Uiso   1.00
O1285  O     0.25000   0.96964   0.33755   0.00000  Uiso   1.00
O1286  O     0.25000   0.53036   0.66245   0.00000  Uiso   1.00
O1287  O     0.03037   0.75000   0.33755   0.00000  Uiso   1.00
O1288  O     0.46964   0.75000   0.66245   0.00000  Uiso   1.00
O1289  O     0.25000   0.53036   0.33755   0.00000  Uiso   1.00
O1290  O     0.25000   0.96964   0.66245   0.00000  Uiso   1.00
O1291  O     0.46964   0.75000   0.33755   0.00000  Uiso   1.00
O1292  O     0.03037   0.75000   0.66245   0.00000  Uiso   1.00
O1293  O     0.00000   0.71964   0.83755   0.00000  Uiso   1.00
O1294  O     0.00000   0.78037   0.16245   0.00000  Uiso   1.00
O1295  O     0.28037   0.50000   0.83755   0.00000  Uiso   1.00
O1296  O     0.21964   0.50000   0.16245   0.00000  Uiso   1.00
O1297  O     0.00000   0.78037   0.83755   0.00000  Uiso   1.00
O1298  O     0.00000   0.71964   0.16245   0.00000  Uiso   1.00
O1299  O     0.21964   0.50000   0.83755   0.00000  Uiso   1.00
O1300  O     0.28037   0.50000   0.16245   0.00000  Uiso   1.00
O1301  O     0.20725   0.57307   0.27302   0.00000  Uiso   1.00
O1302  O     0.29276   0.92693   0.72698   0.00000  Uiso   1.00
O1303  O     0.42693   0.70724   0.27302   0.00000  Uiso   1.00
O1304  O     0.07308   0.79276   0.72698   0.00000  Uiso   1.00
O1305  O     0.29276   0.92693   0.27302   0.00000  Uiso   1.00
O1306  O     0.20725   0.57307   0.72698   0.00000  Uiso   1.00
O1307  O     0.07308   0.79276   0.27302   0.00000  Uiso   1.00
O1308  O     0.42693   0.70724   0.72698   0.00000  Uiso   1.00
O1309  O     0.20725   0.92693   0.72698   0.00000  Uiso   1.00
O1310  O     0.29276   0.57307   0.27302   0.00000  Uiso   1.00
O1311  O     0.42693   0.79275   0.72698   0.00000  Uiso   1.00
O1312  O     0.07308   0.70725   0.27302   0.00000  Uiso   1.00
O1313  O     0.29276   0.57307   0.72698   0.00000  Uiso   1.00
O1314  O     0.20725   0.92693   0.27302   0.00000  Uiso   1.00
O1315  O     0.07308   0.70725   0.72698   0.00000  Uiso   1.00
O1316  O     0.42693   0.79275   0.27302   0.00000  Uiso   1.00
O1317  O     0.45725   0.82307   0.77302   0.00000  Uiso   1.00
O1318  O     0.04276   0.67693   0.22698   0.00000  Uiso   1.00
O1319  O     0.17693   0.95725   0.77302   0.00000  Uiso   1.00
O1320  O     0.32308   0.54275   0.22698   0.00000  Uiso   1.00
O1321  O     0.04276   0.67693   0.77302   0.00000  Uiso   1.00
O1322  O     0.45725   0.82307   0.22698   0.00000  Uiso   1.00
O1323  O     0.32308   0.54275   0.77302   0.00000  Uiso   1.00
O1324  O     0.17693   0.95725   0.22698   0.00000  Uiso   1.00
O1325  O     0.45725   0.67692   0.22698   0.00000  Uiso   1.00
O1326  O     0.04276   0.82308   0.77302   0.00000  Uiso   1.00
O1327  O     0.17693   0.54275   0.22698   0.00000  Uiso   1.00
O1328  O     0.32308   0.95725   0.77302   0.00000  Uiso   1.00
O1329  O     0.04276   0.82308   0.22698   0.00000  Uiso   1.00
O1330  O     0.45725   0.67692   0.77302   0.00000  Uiso   1.00
O1331  O     0.32308   0.95725   0.22698   0.00000  Uiso   1.00
O1332  O     0.17693   0.54275   0.77302   0.00000  Uiso   1.00
C1333  C     0.06574   0.73750   0.47975   0.00000  Uiso   1.00
C1334  C     0.43470   0.76318   0.52013   0.00000  Uiso   1.00
C1335  C     0.26525   0.56486   0.47936   0.00000  Uiso   1.00
C1336  C     0.23721   0.93430   0.52035   0.00000  Uiso   1.00
C1337  C     0.43451   0.76207   0.47938   0.00000  Uiso   1.00
C1338  C     0.06562   0.73682   0.52055   0.00000  Uiso   1.00
C1339  C     0.23798   0.93412   0.47955   0.00000  Uiso   1.00
C1340  C     0.26684   0.56457   0.52008   0.00000  Uiso   1.00
C1341  C     0.18434   0.98698   0.97949   0.00000  Uiso   1.00
C1342  C     0.31548   0.51204   0.02060   0.00000  Uiso   1.00
C1343  C     0.01242   0.68412   0.97970   0.00000  Uiso   1.00
C1344  C     0.48397   0.81459   0.02043   0.00000  Uiso   1.00
C1345  C     0.31528   0.51317   0.97986   0.00000  Uiso   1.00
C1346  C     0.18422   0.98757   0.02030   0.00000  Uiso   1.00
C1347  C     0.48234   0.81429   0.97973   0.00000  Uiso   1.00
C1348  C     0.01164   0.68396   0.02050   0.00000  Uiso   1.00
C1349  C     0.24998   0.99996   0.35590   0.00000  Uiso   1.00
C1350  C     0.25019   0.50000   0.64405   0.00000  Uiso   1.00
C1351  C     0.00004   0.74994   0.35591   0.00000  Uiso   1.00
C1352  C     0.49999   0.75003   0.64408   0.00000  Uiso   1.00
C1353  C     0.49979   0.74996   0.85594   0.00000  Uiso   1.00
C1354  C     0.00000   0.74997   0.14409   0.00000  Uiso   1.00
C1355  C     0.25001   0.50004   0.85592   0.00000  Uiso   1.00
C1356  C     0.24997   0.99994   0.14410   0.00000  Uiso   1.00
C1357  C     0.17997   0.56997   0.25003   0.00000  Uiso   1.00
C1358  C     0.32014   0.93021   0.74984   0.00000  Uiso   1.00
C1359  C     0.43002   0.67998   0.25000   0.00000  Uiso   1.00
C1360  C     0.06998   0.81995   0.75000   0.00000  Uiso   1.00
C1361  C     0.32000   0.93001   0.25005   0.00000  Uiso   1.00
C1362  C     0.18002   0.56995   0.74998   0.00000  Uiso   1.00
C1363  C     0.06990   0.82014   0.25012   0.00000  Uiso   1.00
C1364  C     0.42985   0.68020   0.75017   0.00000  Uiso   1.00
C1365  C     0.17992   0.92994   0.74999   0.00000  Uiso   1.00
C1366  C     0.32003   0.57006   0.25000   0.00000  Uiso   1.00
C1367  C     0.42988   0.82006   0.74997   0.00000  Uiso   1.00
C1368  C     0.07003   0.67991   0.25005   0.00000  Uiso   1.00
C1369  C     0.32013   0.57007   0.75002   0.00000  Uiso   1.00
C1370  C     0.17961   0.93027   0.25033   0.00000  Uiso   1.00
C1371  C     0.07008   0.67994   0.75001   0.00000  Uiso   1.00
C1372  C     0.42996   0.82005   0.24998   0.00000  Uiso   1.00
C1373  C     0.12515   0.90124   0.22013   0.00000  Uiso   1.00
C1374  C     0.38408   0.58985   0.76229   0.00000  Uiso   1.00
C1375  C     0.10186   0.62852   0.21770   0.00000  Uiso   1.00
C1376  C     0.41000   0.88362   0.76272   0.00000  Uiso   1.00
C1377  C     0.37094   0.60232   0.21733   0.00000  Uiso   1.00
C1378  C     0.11494   0.91135   0.75596   0.00000  Uiso   1.00
C1379  C     0.39735   0.87077   0.21720   0.00000  Uiso   1.00
C1380  C     0.08859   0.61502   0.75611   0.00000  Uiso   1.00
C1381  C     0.11509   0.58792   0.75314   0.00000  Uiso   1.00
C1382  C     0.36926   0.89635   0.21658   0.00000  Uiso   1.00
C1383  C     0.08814   0.88463   0.75244   0.00000  Uiso   1.00
C1384  C     0.39656   0.63034   0.21663   0.00000  Uiso   1.00
C1385  C     0.38412   0.91125   0.75876   0.00000  Uiso   1.00
C1386  C     0.12999   0.60306   0.21691   0.00000  Uiso   1.00
C1387  C     0.41159   0.61552   0.75712   0.00000  Uiso   1.00
C1388  C     0.10055   0.87254   0.21868   0.00000  Uiso   1.00
C1389  C     0.36587   0.66125   0.74122   0.00000  Uiso   1.00
C1390  C     0.11981   0.85326   0.28354   0.00000  Uiso   1.00
C1391  C     0.33842   0.86555   0.74290   0.00000  Uiso   1.00
C1392  C     0.14668   0.61960   0.28342   0.00000  Uiso   1.00
C1393  C     0.13492   0.83792   0.74685   0.00000  Uiso   1.00
C1394  C     0.38054   0.64649   0.28337   0.00000  Uiso   1.00
C1395  C     0.16185   0.63461   0.74754   0.00000  Uiso   1.00
C1396  C     0.35376   0.88064   0.28358   0.00000  Uiso   1.00
C1397  C     0.37939   0.85262   0.28288   0.00000  Uiso   1.00
C1398  C     0.13505   0.66135   0.74404   0.00000  Uiso   1.00
C1399  C     0.35242   0.62101   0.28263   0.00000  Uiso   1.00
C1400  C     0.16141   0.86502   0.74390   0.00000  Uiso   1.00
C1401  C     0.12114   0.64770   0.28267   0.00000  Uiso   1.00
C1402  C     0.36594   0.83989   0.73769   0.00000  Uiso   1.00
C1403  C     0.14772   0.87899   0.28283   0.00000  Uiso   1.00
C1404  C     0.34000   0.63363   0.73725   0.00000  Uiso   1.00
C1405  C     0.03303   0.74367   0.45921   0.00000  Uiso   1.00
C1406  C     0.46732   0.75659   0.54067   0.00000  Uiso   1.00
C1407  C     0.25775   0.53241   0.45902   0.00000  Uiso   1.00
C1408  C     0.24407   0.96695   0.54076   0.00000  Uiso   1.00
C1409  C     0.46720   0.75574   0.45905   0.00000  Uiso   1.00
C1410  C     0.03292   0.74331   0.54088   0.00000  Uiso   1.00
C1411  C     0.24443   0.96680   0.45909   0.00000  Uiso   1.00
C1412  C     0.25915   0.53220   0.54063   0.00000  Uiso   1.00
C1413  C     0.21704   0.99347   0.95914   0.00000  Uiso   1.00
C1414  C     0.28278   0.50577   0.04094   0.00000  Uiso   1.00
C1415  C     0.00553   0.71677   0.95924   0.00000  Uiso   1.00
C1416  C     0.49168   0.78221   0.04085   0.00000  Uiso   1.00
C1417  C     0.28265   0.50665   0.95933   0.00000  Uiso   1.00
C1418  C     0.21695   0.99374   0.04082   0.00000  Uiso   1.00
C1419  C     0.49020   0.78197   0.95925   0.00000  Uiso   1.00
C1420  C     0.00516   0.71665   0.04092   0.00000  Uiso   1.00
H1421  H     0.44327   0.76195   0.40220   0.00000  Uiso   1.00
H1422  H     0.05732   0.74028   0.59785   0.00000  Uiso   1.00
H1423  H     0.23718   0.94314   0.40224   0.00000  Uiso   1.00
H1424  H     0.26312   0.55672   0.59742   0.00000  Uiso   1.00
H1425  H     0.05693   0.73749   0.40240   0.00000  Uiso   1.00
H1426  H     0.44278   0.75996   0.59745   0.00000  Uiso   1.00
H1427  H     0.26358   0.55640   0.40218   0.00000  Uiso   1.00
H1428  H     0.23959   0.94283   0.59771   0.00000  Uiso   1.00
H1429  H     0.30720   0.50994   0.90255   0.00000  Uiso   1.00
H1430  H     0.19317   0.98737   0.09768   0.00000  Uiso   1.00
H1431  H     0.48640   0.80654   0.90246   0.00000  Uiso   1.00
H1432  H     0.01262   0.69307   0.09781   0.00000  Uiso   1.00
H1433  H     0.19265   0.99045   0.90217   0.00000  Uiso   1.00
H1434  H     0.30674   0.51195   0.09778   0.00000  Uiso   1.00
H1435  H     0.01034   0.69272   0.90230   0.00000  Uiso   1.00
H1436  H     0.48634   0.80641   0.09761   0.00000  Uiso   1.00
C1437  C     0.09730   0.84880   0.25068   0.00000  Uiso   1.00
C1438  C     0.40217   0.65198   0.74935   0.00000  Uiso   1.00
C1439  C     0.15186   0.59791   0.25012   0.00000  Uiso   1.00
C1440  C     0.34783   0.90198   0.75067   0.00000  Uiso   1.00
C1441  C     0.40203   0.65189   0.25000   0.00000  Uiso   1.00
C1442  C     0.09813   0.84781   0.75019   0.00000  Uiso   1.00
C1443  C     0.34807   0.90200   0.25010   0.00000  Uiso   1.00
C1444  C     0.15187   0.59781   0.74979   0.00000  Uiso   1.00
C1445  C     0.09821   0.65174   0.74979   0.00000  Uiso   1.00
C1446  C     0.40191   0.84824   0.25004   0.00000  Uiso   1.00
C1447  C     0.15179   0.90174   0.75022   0.00000  Uiso   1.00
C1448  C     0.34815   0.59819   0.24999   0.00000  Uiso   1.00
C1449  C     0.40165   0.84820   0.74990   0.00000  Uiso   1.00
C1450  C     0.09806   0.65168   0.25014   0.00000  Uiso   1.00
C1451  C     0.34836   0.59820   0.75007   0.00000  Uiso   1.00
C1452  C     0.15048   0.90317   0.25110   0.00000  Uiso   1.00
C1453  C     0.00012   0.74973   0.47957   0.00000  Uiso   1.00
C1454  C     0.00012   0.74984   0.52034   0.00000  Uiso   1.00
C1455  C     0.25123   0.99959   0.47949   0.00000  Uiso   1.00
C1456  C     0.25145   0.99958   0.52026   0.00000  Uiso   1.00
C1457  C     0.24985   0.99995   0.97968   0.00000  Uiso   1.00
C1458  C     0.24985   0.99983   0.02044   0.00000  Uiso   1.00
C1459  C     0.49798   0.74936   0.97968   0.00000  Uiso   1.00
C1460  C     0.49821   0.74938   0.02045   0.00000  Uiso   1.00
N1461  N     0.09923   0.73146   0.45937   0.00000  Uiso   1.00
O1462  O     0.11373   0.75767   0.43926   0.00000  Uiso   1.00
O1463  O     0.11720   0.70129   0.46437   0.00000  Uiso   1.00
N1464  N     0.40161   0.77116   0.54047   0.00000  Uiso   1.00
O1465  O     0.39906   0.80083   0.56089   0.00000  Uiso   1.00
O1466  O     0.37295   0.75094   0.53536   0.00000  Uiso   1.00
N1467  N     0.27176   0.59823   0.45882   0.00000  Uiso   1.00
O1468  O     0.24543   0.61374   0.43969   0.00000  Uiso   1.00
O1469  O     0.30280   0.61492   0.46237   0.00000  Uiso   1.00
N1470  N     0.23014   0.90099   0.54084   0.00000  Uiso   1.00
O1471  O     0.20083   0.89770   0.56169   0.00000  Uiso   1.00
O1472  O     0.25104   0.87282   0.53568   0.00000  Uiso   1.00
N1473  N     0.40101   0.76790   0.45882   0.00000  Uiso   1.00
O1474  O     0.38647   0.74146   0.43906   0.00000  Uiso   1.00
O1475  O     0.38319   0.79823   0.46310   0.00000  Uiso   1.00
N1476  N     0.09899   0.73004   0.54109   0.00000  Uiso   1.00
O1477  O     0.10238   0.70104   0.56252   0.00000  Uiso   1.00
O1478  O     0.12709   0.75091   0.53548   0.00000  Uiso   1.00
N1479  N     0.23184   0.90063   0.45911   0.00000  Uiso   1.00
O1480  O     0.25776   0.88635   0.43842   0.00000  Uiso   1.00
O1481  O     0.20181   0.88256   0.46428   0.00000  Uiso   1.00
N1482  N     0.27648   0.59729   0.54033   0.00000  Uiso   1.00
O1483  O     0.30708   0.59887   0.55930   0.00000  Uiso   1.00
O1484  O     0.25748   0.62682   0.53531   0.00000  Uiso   1.00
N1485  N     0.15097   0.98029   0.95894   0.00000  Uiso   1.00
O1486  O     0.14755   0.95130   0.93753   0.00000  Uiso   1.00
O1487  O     0.12288   0.50117   0.96457   0.00000  Uiso   1.00
N1488  N     0.34900   0.51772   0.04115   0.00000  Uiso   1.00
O1489  O     0.36348   0.99119   0.06088   0.00000  Uiso   1.00
O1490  O     0.36690   0.54800   0.03687   0.00000  Uiso   1.00
N1491  N     0.01957   0.65081   0.95926   0.00000  Uiso   1.00
O1492  O     0.04894   0.64752   0.93852   0.00000  Uiso   1.00
O1493  O     0.49870   0.62264   0.96444   0.00000  Uiso   1.00
N1494  N     0.47768   0.84799   0.04086   0.00000  Uiso   1.00
O1495  O     0.00460   0.86414   0.05830   0.00000  Uiso   1.00
O1496  O     0.44644   0.86444   0.03802   0.00000  Uiso   1.00
N1497  N     0.34837   0.52107   0.95950   0.00000  Uiso   1.00
O1498  O     0.35096   0.55074   0.93904   0.00000  Uiso   1.00
O1499  O     0.37700   0.50078   0.96460   0.00000  Uiso   1.00
N1500  N     0.15077   0.98120   0.04069   0.00000  Uiso   1.00
O1501  O     0.13656   0.50682   0.06189   0.00000  Uiso   1.00
O1502  O     0.13273   0.95119   0.03509   0.00000  Uiso   1.00
N1503  N     0.47253   0.84698   0.95944   0.00000  Uiso   1.00
O1504  O     0.44205   0.84835   0.94021   0.00000  Uiso   1.00
O1505  O     0.49128   0.87663   0.96453   0.00000  Uiso   1.00
N1506  N     0.01786   0.65049   0.04101   0.00000  Uiso   1.00
O1507  O     0.49198   0.63620   0.06172   0.00000  Uiso   1.00
O1508  O     0.04792   0.63244   0.03583   0.00000  Uiso   1.00
O1509  O     0.12626   0.92508   0.18890   0.00000  Uiso   1.00
C1510  C     0.10585   0.95692   0.19734   0.00000  Uiso   1.00
H1511  H     0.12057   0.98032   0.18422   0.00000  Uiso   1.00
H1512  H     0.10354   0.96295   0.22906   0.00000  Uiso   1.00
C1513  C     0.06790   0.95497   0.17915   0.00000  Uiso   1.00
H1514  H     0.07009   0.94594   0.14843   0.00000  Uiso   1.00
H1515  H     0.05111   0.93502   0.19542   0.00000  Uiso   1.00
C1516  C     0.04908   0.99202   0.18039   0.00000  Uiso   1.00
H1517  H     0.04710   0.50194   0.21080   0.00000  Uiso   1.00
H1518  H     0.02122   0.98974   0.16823   0.00000  Uiso   1.00
H1519  H     0.06449   0.51209   0.16277   0.00000  Uiso   1.00
O1520  O     0.39335   0.55527   0.77479   0.00000  Uiso   1.00
C1521  C     0.38911   0.55286   0.81569   0.00000  Uiso   1.00
H1522  H     0.37680   0.52591   0.82218   0.00000  Uiso   1.00
H1523  H     0.37029   0.57372   0.82817   0.00000  Uiso   1.00
C1524  C     0.42604   0.55477   0.83610   0.00000  Uiso   1.00
H1525  H     0.44415   0.53323   0.82439   0.00000  Uiso   1.00
H1526  H     0.43874   0.58170   0.83074   0.00000  Uiso   1.00
C1527  C     0.42200   0.54938   0.87984   0.00000  Uiso   1.00
H1528  H     0.40549   0.57179   0.89236   0.00000  Uiso   1.00
H1529  H     0.44914   0.54961   0.89397   0.00000  Uiso   1.00
H1530  H     0.40876   0.52285   0.88614   0.00000  Uiso   1.00
O1531  O     0.08021   0.63297   0.18506   0.00000  Uiso   1.00
C1532  C     0.05327   0.60550   0.18473   0.00000  Uiso   1.00
H1533  H     0.03900   0.60378   0.21327   0.00000  Uiso   1.00
H1534  H     0.06566   0.57862   0.17801   0.00000  Uiso   1.00
C1535  C     0.02518   0.61441   0.15337   0.00000  Uiso   1.00
H1536  H     0.01256   0.64125   0.15970   0.00000  Uiso   1.00
H1537  H     0.03886   0.61605   0.12465   0.00000  Uiso   1.00
C1538  C     0.49546   0.58549   0.15172   0.00000  Uiso   1.00
H1539  H     0.00719   0.55874   0.14344   0.00000  Uiso   1.00
H1540  H     0.47469   0.59329   0.12980   0.00000  Uiso   1.00
H1541  H     0.48208   0.58301   0.18049   0.00000  Uiso   1.00
O1542  O     0.44472   0.89244   0.77476   0.00000  Uiso   1.00
C1543  C     0.44528   0.89450   0.81569   0.00000  Uiso   1.00
H1544  H     0.43597   0.86835   0.82881   0.00000  Uiso   1.00
H1545  H     0.42759   0.91706   0.82621   0.00000  Uiso   1.00
C1546  C     0.48426   0.90198   0.82863   0.00000  Uiso   1.00
H1547  H     0.00291   0.88218   0.81449   0.00000  Uiso   1.00
H1548  H     0.49199   0.92988   0.81943   0.00000  Uiso   1.00
C1549  C     0.48845   0.89873   0.87249   0.00000  Uiso   1.00
H1550  H     0.47013   0.91823   0.88749   0.00000  Uiso   1.00
H1551  H     0.01698   0.90464   0.88093   0.00000  Uiso   1.00
H1552  H     0.48195   0.87058   0.88168   0.00000  Uiso   1.00
O1553  O     0.36587   0.58118   0.18444   0.00000  Uiso   1.00
C1554  C     0.39302   0.55393   0.18335   0.00000  Uiso   1.00
H1555  H     0.39545   0.53954   0.21182   0.00000  Uiso   1.00
H1556  H     0.41970   0.56612   0.17581   0.00000  Uiso   1.00
C1557  C     0.38313   0.52597   0.15224   0.00000  Uiso   1.00
H1558  H     0.35648   0.51340   0.15935   0.00000  Uiso   1.00
H1559  H     0.38075   0.53979   0.12361   0.00000  Uiso   1.00
C1560  C     0.41190   0.99614   0.14967   0.00000  Uiso   1.00
H1561  H     0.43855   0.50797   0.14122   0.00000  Uiso   1.00
H1562  H     0.40378   0.97575   0.12753   0.00000  Uiso   1.00
H1563  H     0.41474   0.98218   0.17812   0.00000  Uiso   1.00
O1564  O     0.10444   0.94735   0.76004   0.00000  Uiso   1.00
C1565  C     0.10461   0.95712   0.79991   0.00000  Uiso   1.00
H1566  H     0.11374   0.98590   0.80182   0.00000  Uiso   1.00
H1567  H     0.12397   0.94080   0.81798   0.00000  Uiso   1.00
C1568  C     0.06651   0.95444   0.81720   0.00000  Uiso   1.00
H1569  H     0.04712   0.97057   0.79931   0.00000  Uiso   1.00
H1570  H     0.05784   0.92555   0.81724   0.00000  Uiso   1.00
C1571  C     0.06604   0.96837   0.85896   0.00000  Uiso   1.00
H1572  H     0.08287   0.95049   0.87784   0.00000  Uiso   1.00
H1573  H     0.03773   0.96843   0.87006   0.00000  Uiso   1.00
H1574  H     0.07690   0.99653   0.86038   0.00000  Uiso   1.00
O1575  O     0.41698   0.86454   0.18354   0.00000  Uiso   1.00
C1576  C     0.44347   0.89211   0.17870   0.00000  Uiso   1.00
H1577  H     0.46813   0.88518   0.19595   0.00000  Uiso   1.00
H1578  H     0.43391   0.91952   0.18805   0.00000  Uiso   1.00
C1579  C     0.45357   0.89420   0.13576   0.00000  Uiso   1.00
H1580  H     0.46238   0.86689   0.12557   0.00000  Uiso   1.00
H1581  H     0.42928   0.90258   0.11867   0.00000  Uiso   1.00
C1582  C     0.48418   0.92141   0.12886   0.00000  Uiso   1.00
H1583  H     0.47683   0.94843   0.14088   0.00000  Uiso   1.00
H1584  H     0.48899   0.92452   0.09722   0.00000  Uiso   1.00
H1585  H     0.00958   0.91155   0.14279   0.00000  Uiso   1.00
O1586  O     0.05281   0.60511   0.76266   0.00000  Uiso   1.00
C1587  C     0.04745   0.59862   0.80289   0.00000  Uiso   1.00
H1588  H     0.02953   0.62038   0.81451   0.00000  Uiso   1.00
H1589  H     0.07294   0.59881   0.82073   0.00000  Uiso   1.00
C1590  C     0.02849   0.56201   0.80864   0.00000  Uiso   1.00
H1591  H     0.00251   0.56160   0.79213   0.00000  Uiso   1.00
H1592  H     0.04606   0.53977   0.79752   0.00000  Uiso   1.00
C1593  C     0.02067   0.55531   0.85155   0.00000  Uiso   1.00
H1594  H     0.04639   0.55488   0.86851   0.00000  Uiso   1.00
H1595  H     0.00677   0.52871   0.85509   0.00000  Uiso   1.00
H1596  H     0.00289   0.57715   0.86320   0.00000  Uiso   1.00
O1597  O     0.10470   0.55178   0.75577   0.00000  Uiso   1.00
C1598  C     0.10629   0.53506   0.71871   0.00000  Uiso   1.00
H1599  H     0.12525   0.51155   0.72063   0.00000  Uiso   1.00
H1600  H     0.11646   0.55308   0.69488   0.00000  Uiso   1.00
C1601  C     0.06851   0.52115   0.70774   0.00000  Uiso   1.00
H1602  H     0.05859   0.50227   0.73061   0.00000  Uiso   1.00
H1603  H     0.04947   0.54460   0.70582   0.00000  Uiso   1.00
C1604  C     0.06907   0.50127   0.66883   0.00000  Uiso   1.00
H1605  H     0.07832   0.51988   0.64541   0.00000  Uiso   1.00
H1606  H     0.04129   0.99159   0.66159   0.00000  Uiso   1.00
H1607  H     0.08759   0.97740   0.67033   0.00000  Uiso   1.00
O1608  O     0.36429   0.91729   0.18354   0.00000  Uiso   1.00
C1609  C     0.33845   0.90026   0.15923   0.00000  Uiso   1.00
H1610  H     0.31159   0.89852   0.17406   0.00000  Uiso   1.00
H1611  H     0.34756   0.87236   0.15097   0.00000  Uiso   1.00
C1612  C     0.33424   0.92297   0.12228   0.00000  Uiso   1.00
H1613  H     0.32814   0.95162   0.13021   0.00000  Uiso   1.00
H1614  H     0.36022   0.92254   0.10583   0.00000  Uiso   1.00
C1615  C     0.30376   0.90854   0.09639   0.00000  Uiso   1.00
H1616  H     0.30919   0.87982   0.08815   0.00000  Uiso   1.00
H1617  H     0.30209   0.92521   0.06951   0.00000  Uiso   1.00
H1618  H     0.27726   0.91025   0.11173   0.00000  Uiso   1.00
O1619  O     0.05198   0.89463   0.74952   0.00000  Uiso   1.00
C1620  C     0.04284   0.89817   0.70968   0.00000  Uiso   1.00
H1621  H     0.05902   0.88000   0.69019   0.00000  Uiso   1.00
H1622  H     0.04744   0.92683   0.70058   0.00000  Uiso   1.00
C1623  C     0.00280   0.88856   0.70417   0.00000  Uiso   1.00
H1624  H     0.49788   0.86032   0.71449   0.00000  Uiso   1.00
H1625  H     0.48613   0.90741   0.72172   0.00000  Uiso   1.00
C1626  C     0.49117   0.89154   0.66172   0.00000  Uiso   1.00
H1627  H     0.49576   0.91961   0.65077   0.00000  Uiso   1.00
H1628  H     0.46176   0.88508   0.65914   0.00000  Uiso   1.00
H1629  H     0.00677   0.87198   0.64364   0.00000  Uiso   1.00
O1630  O     0.41769   0.63491   0.18376   0.00000  Uiso   1.00
C1631  C     0.40077   0.66050   0.15902   0.00000  Uiso   1.00
H1632  H     0.39887   0.68754   0.17355   0.00000  Uiso   1.00
H1633  H     0.37297   0.65126   0.15058   0.00000  Uiso   1.00
C1634  C     0.42368   0.66440   0.12225   0.00000  Uiso   1.00
H1635  H     0.45223   0.67073   0.13039   0.00000  Uiso   1.00
H1636  H     0.42347   0.63820   0.10611   0.00000  Uiso   1.00
C1637  C     0.40926   0.69454   0.09587   0.00000  Uiso   1.00
H1638  H     0.38062   0.68894   0.08748   0.00000  Uiso   1.00
H1639  H     0.42602   0.69594   0.06911   0.00000  Uiso   1.00
H1640  H     0.41080   0.72126   0.11090   0.00000  Uiso   1.00
O1641  O     0.39429   0.94723   0.76406   0.00000  Uiso   1.00
C1642  C     0.41486   0.95933   0.73168   0.00000  Uiso   1.00
H1643  H     0.39734   0.97743   0.71374   0.00000  Uiso   1.00
H1644  H     0.42480   0.93709   0.71224   0.00000  Uiso   1.00
C1645  C     0.44768   0.98105   0.74609   0.00000  Uiso   1.00
H1646  H     0.43803   0.50612   0.76056   0.00000  Uiso   1.00
H1647  H     0.46319   0.96490   0.76776   0.00000  Uiso   1.00
C1648  C     0.47308   0.99153   0.71292   0.00000  Uiso   1.00
H1649  H     0.49037   0.96815   0.70461   0.00000  Uiso   1.00
H1650  H     0.49097   0.51410   0.72253   0.00000  Uiso   1.00
H1651  H     0.45750   0.50039   0.68694   0.00000  Uiso   1.00
O1652  O     0.13435   0.58172   0.18413   0.00000  Uiso   1.00
C1653  C     0.15941   0.59873   0.15897   0.00000  Uiso   1.00
H1654  H     0.18655   0.60114   0.17321   0.00000  Uiso   1.00
H1655  H     0.14968   0.62633   0.15034   0.00000  Uiso   1.00
C1656  C     0.16322   0.57547   0.12241   0.00000  Uiso   1.00
H1657  H     0.17021   0.54711   0.13080   0.00000  Uiso   1.00
H1658  H     0.13681   0.57499   0.10664   0.00000  Uiso   1.00
C1659  C     0.19268   0.59014   0.09546   0.00000  Uiso   1.00
H1660  H     0.18638   0.61858   0.08678   0.00000  Uiso   1.00
H1661  H     0.19406   0.57306   0.06890   0.00000  Uiso   1.00
H1662  H     0.21960   0.58932   0.11017   0.00000  Uiso   1.00
O1663  O     0.44743   0.60393   0.75968   0.00000  Uiso   1.00
C1664  C     0.46451   0.60449   0.72263   0.00000  Uiso   1.00
H1665  H     0.49160   0.59160   0.72626   0.00000  Uiso   1.00
H1666  H     0.46975   0.63275   0.71270   0.00000  Uiso   1.00
C1667  C     0.44364   0.58334   0.69097   0.00000  Uiso   1.00
H1668  H     0.43415   0.55698   0.70287   0.00000  Uiso   1.00
H1669  H     0.41932   0.59914   0.68171   0.00000  Uiso   1.00
C1670  C     0.46736   0.57669   0.65533   0.00000  Uiso   1.00
H1671  H     0.47634   0.60303   0.64272   0.00000  Uiso   1.00
H1672  H     0.45150   0.56160   0.63308   0.00000  Uiso   1.00
H1673  H     0.49165   0.56027   0.66323   0.00000  Uiso   1.00
O1674  O     0.07788   0.86963   0.18670   0.00000  Uiso   1.00
C1675  C     0.09451   0.84686   0.15889   0.00000  Uiso   1.00
H1676  H     0.09849   0.81895   0.17089   0.00000  Uiso   1.00
H1677  H     0.12132   0.85811   0.14972   0.00000  Uiso   1.00
C1678  C     0.06977   0.84457   0.12325   0.00000  Uiso   1.00
H1679  H     0.04213   0.83583   0.13233   0.00000  Uiso   1.00
H1680  H     0.06752   0.87196   0.10970   0.00000  Uiso   1.00
C1681  C     0.08443   0.81764   0.09338   0.00000  Uiso   1.00
H1682  H     0.11219   0.82570   0.08404   0.00000  Uiso   1.00
H1683  H     0.06637   0.81734   0.06749   0.00000  Uiso   1.00
H1684  H     0.08529   0.78976   0.10588   0.00000  Uiso   1.00
O1685  O     0.35570   0.69724   0.73586   0.00000  Uiso   1.00
C1686  C     0.33503   0.70935   0.76815   0.00000  Uiso   1.00
H1687  H     0.35249   0.72740   0.78617   0.00000  Uiso   1.00
H1688  H     0.32499   0.68711   0.78755   0.00000  Uiso   1.00
C1689  C     0.30227   0.73115   0.75360   0.00000  Uiso   1.00
H1690  H     0.31201   0.75622   0.73919   0.00000  Uiso   1.00
H1691  H     0.28685   0.71505   0.73183   0.00000  Uiso   1.00
C1692  C     0.27674   0.74162   0.78664   0.00000  Uiso   1.00
H1693  H     0.25930   0.71830   0.79475   0.00000  Uiso   1.00
H1694  H     0.25900   0.76433   0.77699   0.00000  Uiso   1.00
H1695  H     0.29221   0.75030   0.81275   0.00000  Uiso   1.00
O1696  O     0.11591   0.83143   0.31605   0.00000  Uiso   1.00
C1697  C     0.09079   0.84792   0.34155   0.00000  Uiso   1.00
H1698  H     0.06345   0.84979   0.32764   0.00000  Uiso   1.00
H1699  H     0.10000   0.87571   0.35006   0.00000  Uiso   1.00
C1700  C     0.08783   0.82463   0.37820   0.00000  Uiso   1.00
H1701  H     0.08137   0.79613   0.36998   0.00000  Uiso   1.00
H1702  H     0.11437   0.82478   0.39371   0.00000  Uiso   1.00
C1703  C     0.05831   0.83875   0.40541   0.00000  Uiso   1.00
H1704  H     0.06401   0.86736   0.41384   0.00000  Uiso   1.00
H1705  H     0.05762   0.82177   0.43210   0.00000  Uiso   1.00
H1706  H     0.03126   0.83723   0.39104   0.00000  Uiso   1.00
O1707  O     0.30259   0.85397   0.74036   0.00000  Uiso   1.00
C1708  C     0.28554   0.85447   0.77742   0.00000  Uiso   1.00
H1709  H     0.25843   0.84166   0.77380   0.00000  Uiso   1.00
H1710  H     0.28035   0.88272   0.78742   0.00000  Uiso   1.00
C1711  C     0.30641   0.83319   0.80902   0.00000  Uiso   1.00
H1712  H     0.31586   0.80684   0.79706   0.00000  Uiso   1.00
H1713  H     0.33075   0.84891   0.81829   0.00000  Uiso   1.00
C1714  C     0.28271   0.82648   0.84466   0.00000  Uiso   1.00
H1715  H     0.27377   0.85280   0.85734   0.00000  Uiso   1.00
H1716  H     0.29857   0.81130   0.86687   0.00000  Uiso   1.00
H1717  H     0.25839   0.81014   0.83676   0.00000  Uiso   1.00
O1718  O     0.16811   0.61518   0.31619   0.00000  Uiso   1.00
C1719  C     0.15146   0.58970   0.34118   0.00000  Uiso   1.00
H1720  H     0.14949   0.56259   0.32680   0.00000  Uiso   1.00
H1721  H     0.12372   0.59895   0.34972   0.00000  Uiso   1.00
C1722  C     0.17470   0.58601   0.37784   0.00000  Uiso   1.00
H1723  H     0.20321   0.57974   0.36959   0.00000  Uiso   1.00
H1724  H     0.17454   0.61227   0.39388   0.00000  Uiso   1.00
C1725  C     0.16064   0.55592   0.40443   0.00000  Uiso   1.00
H1726  H     0.13207   0.56149   0.41300   0.00000  Uiso   1.00
H1727  H     0.17768   0.55464   0.43107   0.00000  Uiso   1.00
H1728  H     0.16211   0.52916   0.38948   0.00000  Uiso   1.00
O1729  O     0.14533   0.80178   0.74424   0.00000  Uiso   1.00
C1730  C     0.14373   0.78502   0.78130   0.00000  Uiso   1.00
H1731  H     0.12477   0.76154   0.77937   0.00000  Uiso   1.00
H1732  H     0.13355   0.80304   0.80512   0.00000  Uiso   1.00
C1733  C     0.18150   0.77107   0.79228   0.00000  Uiso   1.00
H1734  H     0.19142   0.75218   0.76942   0.00000  Uiso   1.00
H1735  H     0.20054   0.79449   0.79419   0.00000  Uiso   1.00
C1736  C     0.18093   0.75117   0.83120   0.00000  Uiso   1.00
H1737  H     0.17169   0.76978   0.85462   0.00000  Uiso   1.00
H1738  H     0.20871   0.74144   0.83845   0.00000  Uiso   1.00
H1739  H     0.16240   0.72733   0.82973   0.00000  Uiso   1.00
O1740  O     0.38527   0.66758   0.31630   0.00000  Uiso   1.00
C1741  C     0.41093   0.65060   0.34090   0.00000  Uiso   1.00
H1742  H     0.43790   0.64876   0.32629   0.00000  Uiso   1.00
H1743  H     0.40175   0.62274   0.34922   0.00000  Uiso   1.00
C1744  C     0.41493   0.67341   0.37777   0.00000  Uiso   1.00
H1745  H     0.42111   0.70203   0.36975   0.00000  Uiso   1.00
H1746  H     0.38883   0.67307   0.39402   0.00000  Uiso   1.00
C1747  C     0.44523   0.65902   0.40395   0.00000  Uiso   1.00
H1748  H     0.43975   0.63032   0.41225   0.00000  Uiso   1.00
H1749  H     0.44671   0.67574   0.43078   0.00000  Uiso   1.00
H1750  H     0.47184   0.66066   0.38881   0.00000  Uiso   1.00
O1751  O     0.19801   0.64459   0.75045   0.00000  Uiso   1.00
C1752  C     0.20714   0.64816   0.79028   0.00000  Uiso   1.00
H1753  H     0.19101   0.62995   0.80979   0.00000  Uiso   1.00
H1754  H     0.20243   0.67681   0.79934   0.00000  Uiso   1.00
C1755  C     0.24721   0.63866   0.79581   0.00000  Uiso   1.00
H1756  H     0.25221   0.61040   0.78562   0.00000  Uiso   1.00
H1757  H     0.26381   0.65749   0.77817   0.00000  Uiso   1.00
C1758  C     0.25885   0.64180   0.83824   0.00000  Uiso   1.00
H1759  H     0.25420   0.66990   0.84905   0.00000  Uiso   1.00
H1760  H     0.28828   0.63538   0.84084   0.00000  Uiso   1.00
H1761  H     0.24330   0.62228   0.85643   0.00000  Uiso   1.00
O1762  O     0.33264   0.88522   0.31645   0.00000  Uiso   1.00
C1763  C     0.34945   0.91090   0.34111   0.00000  Uiso   1.00
H1764  H     0.35128   0.93790   0.32647   0.00000  Uiso   1.00
H1765  H     0.37727   0.90173   0.34961   0.00000  Uiso   1.00
C1766  C     0.32648   0.91482   0.37783   0.00000  Uiso   1.00
H1767  H     0.29793   0.92108   0.36963   0.00000  Uiso   1.00
H1768  H     0.32672   0.88864   0.39405   0.00000  Uiso   1.00
C1769  C     0.34077   0.94503   0.40414   0.00000  Uiso   1.00
H1770  H     0.36941   0.93947   0.41262   0.00000  Uiso   1.00
H1771  H     0.32395   0.94646   0.43085   0.00000  Uiso   1.00
H1772  H     0.33921   0.97171   0.38901   0.00000  Uiso   1.00
O1773  O     0.38436   0.83137   0.31573   0.00000  Uiso   1.00
C1774  C     0.35717   0.80418   0.31660   0.00000  Uiso   1.00
H1775  H     0.35519   0.78963   0.28820   0.00000  Uiso   1.00
H1776  H     0.33036   0.81644   0.32353   0.00000  Uiso   1.00
C1777  C     0.36647   0.77641   0.34813   0.00000  Uiso   1.00
H1778  H     0.39345   0.76408   0.34191   0.00000  Uiso   1.00
H1779  H     0.36791   0.79032   0.37676   0.00000  Uiso   1.00
C1780  C     0.33793   0.74632   0.34986   0.00000  Uiso   1.00
H1781  H     0.31091   0.75786   0.35738   0.00000  Uiso   1.00
H1782  H     0.34564   0.72602   0.37231   0.00000  Uiso   1.00
H1783  H     0.33609   0.73235   0.32132   0.00000  Uiso   1.00
O1784  O     0.14553   0.69736   0.73997   0.00000  Uiso   1.00
C1785  C     0.14537   0.70716   0.70010   0.00000  Uiso   1.00
H1786  H     0.13622   0.73595   0.69819   0.00000  Uiso   1.00
H1787  H     0.12604   0.69087   0.68202   0.00000  Uiso   1.00
C1788  C     0.18348   0.70451   0.68283   0.00000  Uiso   1.00
H1789  H     0.20285   0.72059   0.70074   0.00000  Uiso   1.00
H1790  H     0.19217   0.67561   0.68278   0.00000  Uiso   1.00
C1791  C     0.18396   0.71851   0.64109   0.00000  Uiso   1.00
H1792  H     0.16715   0.70066   0.62218   0.00000  Uiso   1.00
H1793  H     0.21229   0.71857   0.63000   0.00000  Uiso   1.00
H1794  H     0.17310   0.74667   0.63968   0.00000  Uiso   1.00
O1795  O     0.33122   0.61620   0.31547   0.00000  Uiso   1.00
C1796  C     0.30413   0.64351   0.31627   0.00000  Uiso   1.00
H1797  H     0.28925   0.64510   0.28802   0.00000  Uiso   1.00
H1798  H     0.31647   0.67043   0.32267   0.00000  Uiso   1.00
C1799  C     0.27680   0.63463   0.34825   0.00000  Uiso   1.00
H1800  H     0.26420   0.60769   0.34236   0.00000  Uiso   1.00
H1801  H     0.29113   0.63326   0.37667   0.00000  Uiso   1.00
C1802  C     0.24697   0.66345   0.35029   0.00000  Uiso   1.00
H1803  H     0.25880   0.69040   0.35769   0.00000  Uiso   1.00
H1804  H     0.22690   0.65593   0.37296   0.00000  Uiso   1.00
H1805  H     0.23272   0.66538   0.32190   0.00000  Uiso   1.00
O1806  O     0.19720   0.85509   0.73735   0.00000  Uiso   1.00
C1807  C     0.20256   0.84863   0.69713   0.00000  Uiso   1.00
H1808  H     0.22044   0.87041   0.68549   0.00000  Uiso   1.00
H1809  H     0.17706   0.84881   0.67929   0.00000  Uiso   1.00
C1810  C     0.22158   0.81205   0.69139   0.00000  Uiso   1.00
H1811  H     0.24757   0.81165   0.70788   0.00000  Uiso   1.00
H1812  H     0.20406   0.78978   0.70254   0.00000  Uiso   1.00
C1813  C     0.22939   0.80537   0.64848   0.00000  Uiso   1.00
H1814  H     0.20366   0.80493   0.63154   0.00000  Uiso   1.00
H1815  H     0.24333   0.77878   0.64495   0.00000  Uiso   1.00
H1816  H     0.24712   0.82724   0.63681   0.00000  Uiso   1.00
O1817  O     0.11648   0.66908   0.31543   0.00000  Uiso   1.00
C1818  C     0.14381   0.69612   0.31610   0.00000  Uiso   1.00
H1819  H     0.14508   0.71109   0.28790   0.00000  Uiso   1.00
H1820  H     0.17077   0.68371   0.32215   0.00000  Uiso   1.00
C1821  C     0.13537   0.72340   0.34831   0.00000  Uiso   1.00
H1822  H     0.10854   0.73631   0.34258   0.00000  Uiso   1.00
H1823  H     0.13401   0.70896   0.37665   0.00000  Uiso   1.00
C1824  C     0.16448   0.75291   0.35044   0.00000  Uiso   1.00
H1825  H     0.19132   0.74074   0.35770   0.00000  Uiso   1.00
H1826  H     0.15731   0.77300   0.37323   0.00000  Uiso   1.00
H1827  H     0.16643   0.76723   0.32212   0.00000  Uiso   1.00
O1828  O     0.35669   0.80534   0.72514   0.00000  Uiso   1.00
C1829  C     0.36095   0.80301   0.68425   0.00000  Uiso   1.00
H1830  H     0.37321   0.77604   0.67773   0.00000  Uiso   1.00
H1831  H     0.37980   0.82385   0.67181   0.00000  Uiso   1.00
C1832  C     0.32403   0.80506   0.66382   0.00000  Uiso   1.00
H1833  H     0.30588   0.78353   0.67548   0.00000  Uiso   1.00
H1834  H     0.31137   0.83201   0.66921   0.00000  Uiso   1.00
C1835  C     0.32809   0.79978   0.62007   0.00000  Uiso   1.00
H1836  H     0.34465   0.82217   0.60760   0.00000  Uiso   1.00
H1837  H     0.30096   0.80012   0.60592   0.00000  Uiso   1.00
H1838  H     0.34128   0.77323   0.61374   0.00000  Uiso   1.00
O1839  O     0.16973   0.88315   0.31525   0.00000  Uiso   1.00
C1840  C     0.19683   0.85586   0.31501   0.00000  Uiso   1.00
H1841  H     0.21102   0.85468   0.28639   0.00000  Uiso   1.00
H1842  H     0.18466   0.82886   0.32131   0.00000  Uiso   1.00
C1843  C     0.22489   0.86437   0.34649   0.00000  Uiso   1.00
H1844  H     0.23738   0.89137   0.34064   0.00000  Uiso   1.00
H1845  H     0.21122   0.86546   0.37525   0.00000  Uiso   1.00
C1846  C     0.25473   0.83554   0.34761   0.00000  Uiso   1.00
H1847  H     0.24308   0.80853   0.35506   0.00000  Uiso   1.00
H1848  H     0.27533   0.84289   0.36989   0.00000  Uiso   1.00
H1849  H     0.26831   0.83385   0.31888   0.00000  Uiso   1.00
O1850  O     0.30528   0.64248   0.72521   0.00000  Uiso   1.00
C1851  C     0.30471   0.64453   0.68428   0.00000  Uiso   1.00
H1852  H     0.31402   0.61837   0.67119   0.00000  Uiso   1.00
H1853  H     0.32240   0.66707   0.67372   0.00000  Uiso   1.00
C1854  C     0.26572   0.65205   0.67135   0.00000  Uiso   1.00
H1855  H     0.24708   0.63229   0.68554   0.00000  Uiso   1.00
H1856  H     0.25801   0.67996   0.68047   0.00000  Uiso   1.00
C1857  C     0.26151   0.64876   0.62749   0.00000  Uiso   1.00
H1858  H     0.27985   0.66818   0.61243   0.00000  Uiso   1.00
H1859  H     0.23298   0.65471   0.61905   0.00000  Uiso   1.00
H1860  H     0.26796   0.62057   0.61838   0.00000  Uiso   1.00
Zn1861 Zn    0.70660   0.50000   0.21735   0.00000  Uiso   1.00
Zn1862 Zn    0.79341   0.50000   0.78265   0.00000  Uiso   1.00
Zn1863 Zn    0.50000   0.70660   0.21735   0.00000  Uiso   1.00
Zn1864 Zn    0.50000   0.79341   0.78265   0.00000  Uiso   1.00
Zn1865 Zn    0.79341   0.50000   0.21735   0.00000  Uiso   1.00
Zn1866 Zn    0.70660   0.50000   0.78265   0.00000  Uiso   1.00
Zn1867 Zn    0.50000   0.79341   0.21735   0.00000  Uiso   1.00
Zn1868 Zn    0.50000   0.70660   0.78265   0.00000  Uiso   1.00
Zn1869 Zn    0.95660   0.75000   0.71735   0.00000  Uiso   1.00
Zn1870 Zn    0.54341   0.75000   0.28265   0.00000  Uiso   1.00
Zn1871 Zn    0.75000   0.95660   0.71735   0.00000  Uiso   1.00
Zn1872 Zn    0.75000   0.54340   0.28265   0.00000  Uiso   1.00
Zn1873 Zn    0.54341   0.75000   0.71735   0.00000  Uiso   1.00
Zn1874 Zn    0.95660   0.75000   0.28265   0.00000  Uiso   1.00
Zn1875 Zn    0.75000   0.54340   0.71735   0.00000  Uiso   1.00
Zn1876 Zn    0.75000   0.95660   0.28265   0.00000  Uiso   1.00
C1877  C     0.96783   0.75622   0.41846   0.00000  Uiso   1.00
C1878  C     0.53246   0.74421   0.58151   0.00000  Uiso   1.00
C1879  C     0.74349   0.96756   0.41847   0.00000  Uiso   1.00
C1880  C     0.75820   0.53196   0.58127   0.00000  Uiso   1.00
C1881  C     0.53238   0.74319   0.41859   0.00000  Uiso   1.00
C1882  C     0.96767   0.75590   0.58129   0.00000  Uiso   1.00
C1883  C     0.75760   0.53191   0.41844   0.00000  Uiso   1.00
C1884  C     0.74445   0.96752   0.58139   0.00000  Uiso   1.00
C1885  C     0.78231   0.50593   0.91871   0.00000  Uiso   1.00
C1886  C     0.71765   0.99318   0.08144   0.00000  Uiso   1.00
C1887  C     0.99134   0.78178   0.91864   0.00000  Uiso   1.00
C1888  C     0.50624   0.71747   0.08154   0.00000  Uiso   1.00
C1889  C     0.71750   0.99435   0.91851   0.00000  Uiso   1.00
C1890  C     0.78218   0.50623   0.08153   0.00000  Uiso   1.00
C1891  C     0.50532   0.71738   0.91860   0.00000  Uiso   1.00
C1892  C     0.99214   0.78184   0.08144   0.00000  Uiso   1.00
C1893  C     0.50010   0.74978   0.39832   0.00000  Uiso   1.00
C1894  C     0.50002   0.75004   0.60162   0.00000  Uiso   1.00
C1895  C     0.75026   0.99982   0.39827   0.00000  Uiso   1.00
C1896  C     0.75086   0.99988   0.60157   0.00000  Uiso   1.00
C1897  C     0.74995   0.50010   0.89838   0.00000  Uiso   1.00
C1898  C     0.74992   0.99978   0.10169   0.00000  Uiso   1.00
C1899  C     0.99892   0.74976   0.89839   0.00000  Uiso   1.00
C1900  C     0.99959   0.74979   0.10169   0.00000  Uiso   1.00
O1901  O     0.75000   0.50000   0.25000   0.00000  Uiso   1.00
O1902  O     0.75000   0.50000   0.75000   0.00000  Uiso   1.00
O1903  O     0.50000   0.75000   0.25000   0.00000  Uiso   1.00
O1904  O     0.50000   0.75000   0.75000   0.00000  Uiso   1.00
O1905  O     0.75000   0.96964   0.33755   0.00000  Uiso   1.00
O1906  O     0.75000   0.53036   0.66245   0.00000  Uiso   1.00
O1907  O     0.53037   0.75000   0.33755   0.00000  Uiso   1.00
O1908  O     0.96964   0.75000   0.66245   0.00000  Uiso   1.00
O1909  O     0.75000   0.53036   0.33755   0.00000  Uiso   1.00
O1910  O     0.75000   0.96964   0.66245   0.00000  Uiso   1.00
O1911  O     0.96964   0.75000   0.33755   0.00000  Uiso   1.00
O1912  O     0.53037   0.75000   0.66245   0.00000  Uiso   1.00
O1913  O     0.50000   0.71964   0.83755   0.00000  Uiso   1.00
O1914  O     0.50000   0.78037   0.16245   0.00000  Uiso   1.00
O1915  O     0.78037   0.50000   0.83755   0.00000  Uiso   1.00
O1916  O     0.71964   0.50000   0.16245   0.00000  Uiso   1.00
O1917  O     0.50000   0.78037   0.83755   0.00000  Uiso   1.00
O1918  O     0.50000   0.71964   0.16245   0.00000  Uiso   1.00
O1919  O     0.71964   0.50000   0.83755   0.00000  Uiso   1.00
O1920  O     0.78037   0.50000   0.16245   0.00000  Uiso   1.00
O1921  O     0.70725   0.57307   0.27302   0.00000  Uiso   1.00
O1922  O     0.79276   0.92693   0.72698   0.00000  Uiso   1.00
O1923  O     0.92693   0.70724   0.27302   0.00000  Uiso   1.00
O1924  O     0.57308   0.79276   0.72698   0.00000  Uiso   1.00
O1925  O     0.79276   0.92693   0.27302   0.00000  Uiso   1.00
O1926  O     0.70725   0.57307   0.72698   0.00000  Uiso   1.00
O1927  O     0.57308   0.79276   0.27302   0.00000  Uiso   1.00
O1928  O     0.92693   0.70724   0.72698   0.00000  Uiso   1.00
O1929  O     0.70725   0.92693   0.72698   0.00000  Uiso   1.00
O1930  O     0.79276   0.57307   0.27302   0.00000  Uiso   1.00
O1931  O     0.92693   0.79275   0.72698   0.00000  Uiso   1.00
O1932  O     0.57308   0.70725   0.27302   0.00000  Uiso   1.00
O1933  O     0.79276   0.57307   0.72698   0.00000  Uiso   1.00
O1934  O     0.70725   0.92693   0.27302   0.00000  Uiso   1.00
O1935  O     0.57308   0.70725   0.72698   0.00000  Uiso   1.00
O1936  O     0.92693   0.79275   0.27302   0.00000  Uiso   1.00
O1937  O     0.95725   0.82307   0.77302   0.00000  Uiso   1.00
O1938  O     0.54276   0.67693   0.22698   0.00000  Uiso   1.00
O1939  O     0.67693   0.95725   0.77302   0.00000  Uiso   1.00
O1940  O     0.82308   0.54275   0.22698   0.00000  Uiso   1.00
O1941  O     0.54276   0.67693   0.77302   0.00000  Uiso   1.00
O1942  O     0.95725   0.82307   0.22698   0.00000  Uiso   1.00
O1943  O     0.82308   0.54275   0.77302   0.00000  Uiso   1.00
O1944  O     0.67693   0.95725   0.22698   0.00000  Uiso   1.00
O1945  O     0.95725   0.67692   0.22698   0.00000  Uiso   1.00
O1946  O     0.54276   0.82308   0.77302   0.00000  Uiso   1.00
O1947  O     0.67693   0.54275   0.22698   0.00000  Uiso   1.00
O1948  O     0.82308   0.95725   0.77302   0.00000  Uiso   1.00
O1949  O     0.54276   0.82308   0.22698   0.00000  Uiso   1.00
O1950  O     0.95725   0.67692   0.77302   0.00000  Uiso   1.00
O1951  O     0.82308   0.95725   0.22698   0.00000  Uiso   1.00
O1952  O     0.67693   0.54275   0.77302   0.00000  Uiso   1.00
C1953  C     0.56574   0.73750   0.47975   0.00000  Uiso   1.00
C1954  C     0.93470   0.76318   0.52013   0.00000  Uiso   1.00
C1955  C     0.76525   0.56486   0.47936   0.00000  Uiso   1.00
C1956  C     0.73721   0.93430   0.52035   0.00000  Uiso   1.00
C1957  C     0.93451   0.76207   0.47938   0.00000  Uiso   1.00
C1958  C     0.56562   0.73682   0.52055   0.00000  Uiso   1.00
C1959  C     0.73798   0.93412   0.47955   0.00000  Uiso   1.00
C1960  C     0.76684   0.56457   0.52008   0.00000  Uiso   1.00
C1961  C     0.68434   0.98698   0.97949   0.00000  Uiso   1.00
C1962  C     0.81548   0.51204   0.02060   0.00000  Uiso   1.00
C1963  C     0.51242   0.68412   0.97970   0.00000  Uiso   1.00
C1964  C     0.98397   0.81459   0.02043   0.00000  Uiso   1.00
C1965  C     0.81528   0.51317   0.97986   0.00000  Uiso   1.00
C1966  C     0.68422   0.98757   0.02030   0.00000  Uiso   1.00
C1967  C     0.98234   0.81429   0.97973   0.00000  Uiso   1.00
C1968  C     0.51164   0.68396   0.02050   0.00000  Uiso   1.00
C1969  C     0.74998   0.99996   0.35590   0.00000  Uiso   1.00
C1970  C     0.75019   0.50000   0.64405   0.00000  Uiso   1.00
C1971  C     0.50004   0.74994   0.35591   0.00000  Uiso   1.00
C1972  C     0.99999   0.75003   0.64408   0.00000  Uiso   1.00
C1973  C     0.99979   0.74996   0.85594   0.00000  Uiso   1.00
C1974  C     0.50000   0.74997   0.14409   0.00000  Uiso   1.00
C1975  C     0.75001   0.50004   0.85592   0.00000  Uiso   1.00
C1976  C     0.74997   0.99994   0.14410   0.00000  Uiso   1.00
C1977  C     0.67997   0.56997   0.25003   0.00000  Uiso   1.00
C1978  C     0.82014   0.93021   0.74984   0.00000  Uiso   1.00
C1979  C     0.93002   0.67998   0.25000   0.00000  Uiso   1.00
C1980  C     0.56998   0.81995   0.75000   0.00000  Uiso   1.00
C1981  C     0.82000   0.93001   0.25005   0.00000  Uiso   1.00
C1982  C     0.68002   0.56995   0.74998   0.00000  Uiso   1.00
C1983  C     0.56990   0.82014   0.25012   0.00000  Uiso   1.00
C1984  C     0.92985   0.68020   0.75017   0.00000  Uiso   1.00
C1985  C     0.67992   0.92994   0.74999   0.00000  Uiso   1.00
C1986  C     0.82003   0.57006   0.25000   0.00000  Uiso   1.00
C1987  C     0.92988   0.82006   0.74997   0.00000  Uiso   1.00
C1988  C     0.57003   0.67991   0.25005   0.00000  Uiso   1.00
C1989  C     0.82013   0.57007   0.75002   0.00000  Uiso   1.00
C1990  C     0.67961   0.93027   0.25033   0.00000  Uiso   1.00
C1991  C     0.57008   0.67994   0.75001   0.00000  Uiso   1.00
C1992  C     0.92996   0.82005   0.24998   0.00000  Uiso   1.00
C1993  C     0.62515   0.90124   0.22013   0.00000  Uiso   1.00
C1994  C     0.88408   0.58985   0.76229   0.00000  Uiso   1.00
C1995  C     0.60186   0.62852   0.21770   0.00000  Uiso   1.00
C1996  C     0.91000   0.88362   0.76272   0.00000  Uiso   1.00
C1997  C     0.87094   0.60232   0.21733   0.00000  Uiso   1.00
C1998  C     0.61494   0.91135   0.75596   0.00000  Uiso   1.00
C1999  C     0.89735   0.87077   0.21720   0.00000  Uiso   1.00
C2000  C     0.58859   0.61502   0.75611   0.00000  Uiso   1.00
C2001  C     0.61509   0.58792   0.75314   0.00000  Uiso   1.00
C2002  C     0.86926   0.89635   0.21658   0.00000  Uiso   1.00
C2003  C     0.58814   0.88463   0.75244   0.00000  Uiso   1.00
C2004  C     0.89656   0.63034   0.21663   0.00000  Uiso   1.00
C2005  C     0.88412   0.91125   0.75876   0.00000  Uiso   1.00
C2006  C     0.62999   0.60306   0.21691   0.00000  Uiso   1.00
C2007  C     0.91159   0.61552   0.75712   0.00000  Uiso   1.00
C2008  C     0.60055   0.87254   0.21868   0.00000  Uiso   1.00
C2009  C     0.86587   0.66125   0.74122   0.00000  Uiso   1.00
C2010  C     0.61981   0.85326   0.28354   0.00000  Uiso   1.00
C2011  C     0.83842   0.86555   0.74290   0.00000  Uiso   1.00
C2012  C     0.64668   0.61960   0.28342   0.00000  Uiso   1.00
C2013  C     0.63492   0.83792   0.74685   0.00000  Uiso   1.00
C2014  C     0.88054   0.64649   0.28337   0.00000  Uiso   1.00
C2015  C     0.66185   0.63461   0.74754   0.00000  Uiso   1.00
C2016  C     0.85376   0.88064   0.28358   0.00000  Uiso   1.00
C2017  C     0.87939   0.85262   0.28288   0.00000  Uiso   1.00
C2018  C     0.63505   0.66135   0.74404   0.00000  Uiso   1.00
C2019  C     0.85242   0.62101   0.28263   0.00000  Uiso   1.00
C2020  C     0.66141   0.86502   0.74390   0.00000  Uiso   1.00
C2021  C     0.62114   0.64770   0.28267   0.00000  Uiso   1.00
C2022  C     0.86594   0.83989   0.73769   0.00000  Uiso   1.00
C2023  C     0.64772   0.87899   0.28283   0.00000  Uiso   1.00
C2024  C     0.84000   0.63363   0.73725   0.00000  Uiso   1.00
C2025  C     0.53303   0.74367   0.45921   0.00000  Uiso   1.00
C2026  C     0.96732   0.75659   0.54067   0.00000  Uiso   1.00
C2027  C     0.75775   0.53241   0.45902   0.00000  Uiso   1.00
C2028  C     0.74407   0.96695   0.54076   0.00000  Uiso   1.00
C2029  C     0.96720   0.75574   0.45905   0.00000  Uiso   1.00
C2030  C     0.53292   0.74331   0.54088   0.00000  Uiso   1.00
C2031  C     0.74443   0.96680   0.45909   0.00000  Uiso   1.00
C2032  C     0.75915   0.53220   0.54063   0.00000  Uiso   1.00
C2033  C     0.71704   0.99347   0.95914   0.00000  Uiso   1.00
C2034  C     0.78278   0.50577   0.04094   0.00000  Uiso   1.00
C2035  C     0.50553   0.71677   0.95924   0.00000  Uiso   1.00
C2036  C     0.99168   0.78221   0.04085   0.00000  Uiso   1.00
C2037  C     0.78265   0.50665   0.95933   0.00000  Uiso   1.00
C2038  C     0.71695   0.99374   0.04082   0.00000  Uiso   1.00
C2039  C     0.99020   0.78197   0.95925   0.00000  Uiso   1.00
C2040  C     0.50516   0.71665   0.04092   0.00000  Uiso   1.00
H2041  H     0.94327   0.76195   0.40220   0.00000  Uiso   1.00
H2042  H     0.55732   0.74028   0.59785   0.00000  Uiso   1.00
H2043  H     0.73718   0.94314   0.40224   0.00000  Uiso   1.00
H2044  H     0.76312   0.55672   0.59742   0.00000  Uiso   1.00
H2045  H     0.55693   0.73749   0.40240   0.00000  Uiso   1.00
H2046  H     0.94278   0.75996   0.59745   0.00000  Uiso   1.00
H2047  H     0.76358   0.55640   0.40218   0.00000  Uiso   1.00
H2048  H     0.73959   0.94283   0.59771   0.00000  Uiso   1.00
H2049  H     0.80720   0.50994   0.90255   0.00000  Uiso   1.00
H2050  H     0.69317   0.98737   0.09768   0.00000  Uiso   1.00
H2051  H     0.98640   0.80654   0.90246   0.00000  Uiso   1.00
H2052  H     0.51262   0.69307   0.09781   0.00000  Uiso   1.00
H2053  H     0.69265   0.99045   0.90217   0.00000  Uiso   1.00
H2054  H     0.80674   0.51195   0.09778   0.00000  Uiso   1.00
H2055  H     0.51034   0.69272   0.90230   0.00000  Uiso   1.00
H2056  H     0.98634   0.80641   0.09761   0.00000  Uiso   1.00
C2057  C     0.59730   0.84880   0.25068   0.00000  Uiso   1.00
C2058  C     0.90217   0.65198   0.74935   0.00000  Uiso   1.00
C2059  C     0.65186   0.59791   0.25012   0.00000  Uiso   1.00
C2060  C     0.84783   0.90198   0.75067   0.00000  Uiso   1.00
C2061  C     0.90203   0.65189   0.25000   0.00000  Uiso   1.00
C2062  C     0.59813   0.84781   0.75019   0.00000  Uiso   1.00
C2063  C     0.84807   0.90200   0.25010   0.00000  Uiso   1.00
C2064  C     0.65187   0.59781   0.74979   0.00000  Uiso   1.00
C2065  C     0.59821   0.65174   0.74979   0.00000  Uiso   1.00
C2066  C     0.90191   0.84824   0.25004   0.00000  Uiso   1.00
C2067  C     0.65179   0.90174   0.75022   0.00000  Uiso   1.00
C2068  C     0.84815   0.59819   0.24999   0.00000  Uiso   1.00
C2069  C     0.90165   0.84820   0.74990   0.00000  Uiso   1.00
C2070  C     0.59806   0.65168   0.25014   0.00000  Uiso   1.00
C2071  C     0.84836   0.59820   0.75007   0.00000  Uiso   1.00
C2072  C     0.65048   0.90317   0.25110   0.00000  Uiso   1.00
C2073  C     0.50012   0.74973   0.47957   0.00000  Uiso   1.00
C2074  C     0.50012   0.74984   0.52034   0.00000  Uiso   1.00
C2075  C     0.75123   0.99959   0.47949   0.00000  Uiso   1.00
C2076  C     0.75145   0.99958   0.52026   0.00000  Uiso   1.00
C2077  C     0.74985   0.99995   0.97968   0.00000  Uiso   1.00
C2078  C     0.74985   0.99983   0.02044   0.00000  Uiso   1.00
C2079  C     0.99798   0.74936   0.97968   0.00000  Uiso   1.00
C2080  C     0.99821   0.74938   0.02045   0.00000  Uiso   1.00
N2081  N     0.59923   0.73146   0.45937   0.00000  Uiso   1.00
O2082  O     0.61373   0.75767   0.43926   0.00000  Uiso   1.00
O2083  O     0.61720   0.70129   0.46437   0.00000  Uiso   1.00
N2084  N     0.90161   0.77116   0.54047   0.00000  Uiso   1.00
O2085  O     0.89906   0.80083   0.56089   0.00000  Uiso   1.00
O2086  O     0.87295   0.75094   0.53536   0.00000  Uiso   1.00
N2087  N     0.77176   0.59823   0.45882   0.00000  Uiso   1.00
O2088  O     0.74543   0.61374   0.43969   0.00000  Uiso   1.00
O2089  O     0.80280   0.61492   0.46237   0.00000  Uiso   1.00
N2090  N     0.73014   0.90099   0.54084   0.00000  Uiso   1.00
O2091  O     0.70083   0.89770   0.56169   0.00000  Uiso   1.00
O2092  O     0.75104   0.87282   0.53568   0.00000  Uiso   1.00
N2093  N     0.90101   0.76790   0.45882   0.00000  Uiso   1.00
O2094  O     0.88647   0.74146   0.43906   0.00000  Uiso   1.00
O2095  O     0.88319   0.79823   0.46310   0.00000  Uiso   1.00
N2096  N     0.59899   0.73004   0.54109   0.00000  Uiso   1.00
O2097  O     0.60238   0.70104   0.56252   0.00000  Uiso   1.00
O2098  O     0.62709   0.75091   0.53548   0.00000  Uiso   1.00
N2099  N     0.73184   0.90063   0.45911   0.00000  Uiso   1.00
O2100  O     0.75776   0.88635   0.43842   0.00000  Uiso   1.00
O2101  O     0.70181   0.88256   0.46428   0.00000  Uiso   1.00
N2102  N     0.77648   0.59729   0.54033   0.00000  Uiso   1.00
O2103  O     0.80708   0.59887   0.55930   0.00000  Uiso   1.00
O2104  O     0.75748   0.62682   0.53531   0.00000  Uiso   1.00
N2105  N     0.65097   0.98029   0.95894   0.00000  Uiso   1.00
O2106  O     0.64755   0.95130   0.93753   0.00000  Uiso   1.00
O2107  O     0.62288   0.50117   0.96457   0.00000  Uiso   1.00
N2108  N     0.84900   0.51772   0.04115   0.00000  Uiso   1.00
O2109  O     0.86348   0.99119   0.06088   0.00000  Uiso   1.00
O2110  O     0.86690   0.54800   0.03687   0.00000  Uiso   1.00
N2111  N     0.51957   0.65081   0.95926   0.00000  Uiso   1.00
O2112  O     0.54894   0.64752   0.93852   0.00000  Uiso   1.00
O2113  O     0.99870   0.62264   0.96444   0.00000  Uiso   1.00
N2114  N     0.97768   0.84799   0.04086   0.00000  Uiso   1.00
O2115  O     0.50460   0.86414   0.05830   0.00000  Uiso   1.00
O2116  O     0.94644   0.86444   0.03802   0.00000  Uiso   1.00
N2117  N     0.84837   0.52107   0.95950   0.00000  Uiso   1.00
O2118  O     0.85096   0.55074   0.93904   0.00000  Uiso   1.00
O2119  O     0.87700   0.50078   0.96460   0.00000  Uiso   1.00
N2120  N     0.65077   0.98120   0.04069   0.00000  Uiso   1.00
O2121  O     0.63656   0.50682   0.06189   0.00000  Uiso   1.00
O2122  O     0.63273   0.95119   0.03509   0.00000  Uiso   1.00
N2123  N     0.97253   0.84698   0.95944   0.00000  Uiso   1.00
O2124  O     0.94205   0.84835   0.94021   0.00000  Uiso   1.00
O2125  O     0.99128   0.87663   0.96453   0.00000  Uiso   1.00
N2126  N     0.51786   0.65049   0.04101   0.00000  Uiso   1.00
O2127  O     0.99198   0.63620   0.06172   0.00000  Uiso   1.00
O2128  O     0.54792   0.63244   0.03583   0.00000  Uiso   1.00
O2129  O     0.62626   0.92508   0.18890   0.00000  Uiso   1.00
C2130  C     0.60585   0.95692   0.19734   0.00000  Uiso   1.00
H2131  H     0.62057   0.98032   0.18422   0.00000  Uiso   1.00
H2132  H     0.60354   0.96295   0.22906   0.00000  Uiso   1.00
C2133  C     0.56790   0.95497   0.17915   0.00000  Uiso   1.00
H2134  H     0.57009   0.94594   0.14843   0.00000  Uiso   1.00
H2135  H     0.55111   0.93502   0.19542   0.00000  Uiso   1.00
C2136  C     0.54908   0.99202   0.18039   0.00000  Uiso   1.00
H2137  H     0.54710   0.50194   0.21080   0.00000  Uiso   1.00
H2138  H     0.52122   0.98974   0.16823   0.00000  Uiso   1.00
H2139  H     0.56449   0.51209   0.16277   0.00000  Uiso   1.00
O2140  O     0.89335   0.55527   0.77479   0.00000  Uiso   1.00
C2141  C     0.88911   0.55286   0.81569   0.00000  Uiso   1.00
H2142  H     0.87680   0.52591   0.82218   0.00000  Uiso   1.00
H2143  H     0.87029   0.57372   0.82817   0.00000  Uiso   1.00
C2144  C     0.92604   0.55477   0.83610   0.00000  Uiso   1.00
H2145  H     0.94415   0.53323   0.82439   0.00000  Uiso   1.00
H2146  H     0.93874   0.58170   0.83074   0.00000  Uiso   1.00
C2147  C     0.92200   0.54938   0.87984   0.00000  Uiso   1.00
H2148  H     0.90549   0.57179   0.89236   0.00000  Uiso   1.00
H2149  H     0.94914   0.54961   0.89397   0.00000  Uiso   1.00
H2150  H     0.90876   0.52285   0.88614   0.00000  Uiso   1.00
O2151  O     0.58021   0.63297   0.18506   0.00000  Uiso   1.00
C2152  C     0.55327   0.60550   0.18473   0.00000  Uiso   1.00
H2153  H     0.53900   0.60378   0.21327   0.00000  Uiso   1.00
H2154  H     0.56566   0.57862   0.17801   0.00000  Uiso   1.00
C2155  C     0.52518   0.61441   0.15337   0.00000  Uiso   1.00
H2156  H     0.51256   0.64125   0.15970   0.00000  Uiso   1.00
H2157  H     0.53886   0.61605   0.12465   0.00000  Uiso   1.00
C2158  C     0.99546   0.58549   0.15172   0.00000  Uiso   1.00
H2159  H     0.50719   0.55874   0.14344   0.00000  Uiso   1.00
H2160  H     0.97469   0.59329   0.12980   0.00000  Uiso   1.00
H2161  H     0.98208   0.58301   0.18049   0.00000  Uiso   1.00
O2162  O     0.94472   0.89244   0.77476   0.00000  Uiso   1.00
C2163  C     0.94528   0.89450   0.81569   0.00000  Uiso   1.00
H2164  H     0.93597   0.86835   0.82881   0.00000  Uiso   1.00
H2165  H     0.92759   0.91706   0.82621   0.00000  Uiso   1.00
C2166  C     0.98426   0.90198   0.82863   0.00000  Uiso   1.00
H2167  H     0.50291   0.88218   0.81449   0.00000  Uiso   1.00
H2168  H     0.99199   0.92988   0.81943   0.00000  Uiso   1.00
C2169  C     0.98845   0.89873   0.87249   0.00000  Uiso   1.00
H2170  H     0.97013   0.91823   0.88749   0.00000  Uiso   1.00
H2171  H     0.51698   0.90464   0.88093   0.00000  Uiso   1.00
H2172  H     0.98195   0.87058   0.88168   0.00000  Uiso   1.00
O2173  O     0.86587   0.58118   0.18444   0.00000  Uiso   1.00
C2174  C     0.89302   0.55393   0.18335   0.00000  Uiso   1.00
H2175  H     0.89545   0.53954   0.21182   0.00000  Uiso   1.00
H2176  H     0.91970   0.56612   0.17581   0.00000  Uiso   1.00
C2177  C     0.88313   0.52597   0.15224   0.00000  Uiso   1.00
H2178  H     0.85648   0.51340   0.15935   0.00000  Uiso   1.00
H2179  H     0.88075   0.53979   0.12361   0.00000  Uiso   1.00
C2180  C     0.91190   0.99614   0.14967   0.00000  Uiso   1.00
H2181  H     0.93855   0.50797   0.14122   0.00000  Uiso   1.00
H2182  H     0.90378   0.97575   0.12753   0.00000  Uiso   1.00
H2183  H     0.91474   0.98218   0.17812   0.00000  Uiso   1.00
O2184  O     0.60444   0.94735   0.76004   0.00000  Uiso   1.00
C2185  C     0.60461   0.95712   0.79991   0.00000  Uiso   1.00
H2186  H     0.61374   0.98590   0.80182   0.00000  Uiso   1.00
H2187  H     0.62397   0.94080   0.81798   0.00000  Uiso   1.00
C2188  C     0.56651   0.95444   0.81720   0.00000  Uiso   1.00
H2189  H     0.54712   0.97057   0.79931   0.00000  Uiso   1.00
H2190  H     0.55784   0.92555   0.81724   0.00000  Uiso   1.00
C2191  C     0.56604   0.96837   0.85896   0.00000  Uiso   1.00
H2192  H     0.58287   0.95049   0.87784   0.00000  Uiso   1.00
H2193  H     0.53773   0.96843   0.87006   0.00000  Uiso   1.00
H2194  H     0.57690   0.99653   0.86038   0.00000  Uiso   1.00
O2195  O     0.91698   0.86454   0.18354   0.00000  Uiso   1.00
C2196  C     0.94347   0.89211   0.17870   0.00000  Uiso   1.00
H2197  H     0.96813   0.88518   0.19595   0.00000  Uiso   1.00
H2198  H     0.93391   0.91952   0.18805   0.00000  Uiso   1.00
C2199  C     0.95357   0.89420   0.13576   0.00000  Uiso   1.00
H2200  H     0.96238   0.86689   0.12557   0.00000  Uiso   1.00
H2201  H     0.92928   0.90258   0.11867   0.00000  Uiso   1.00
C2202  C     0.98418   0.92141   0.12886   0.00000  Uiso   1.00
H2203  H     0.97683   0.94843   0.14088   0.00000  Uiso   1.00
H2204  H     0.98899   0.92452   0.09722   0.00000  Uiso   1.00
H2205  H     0.50958   0.91155   0.14279   0.00000  Uiso   1.00
O2206  O     0.55281   0.60511   0.76266   0.00000  Uiso   1.00
C2207  C     0.54745   0.59862   0.80289   0.00000  Uiso   1.00
H2208  H     0.52953   0.62038   0.81451   0.00000  Uiso   1.00
H2209  H     0.57294   0.59881   0.82073   0.00000  Uiso   1.00
C2210  C     0.52849   0.56201   0.80864   0.00000  Uiso   1.00
H2211  H     0.50251   0.56160   0.79213   0.00000  Uiso   1.00
H2212  H     0.54606   0.53977   0.79752   0.00000  Uiso   1.00
C2213  C     0.52067   0.55531   0.85155   0.00000  Uiso   1.00
H2214  H     0.54639   0.55488   0.86851   0.00000  Uiso   1.00
H2215  H     0.50677   0.52871   0.85509   0.00000  Uiso   1.00
H2216  H     0.50289   0.57715   0.86320   0.00000  Uiso   1.00
O2217  O     0.60470   0.55178   0.75577   0.00000  Uiso   1.00
C2218  C     0.60629   0.53506   0.71871   0.00000  Uiso   1.00
H2219  H     0.62525   0.51155   0.72063   0.00000  Uiso   1.00
H2220  H     0.61646   0.55308   0.69488   0.00000  Uiso   1.00
C2221  C     0.56851   0.52115   0.70774   0.00000  Uiso   1.00
H2222  H     0.55859   0.50227   0.73061   0.00000  Uiso   1.00
H2223  H     0.54947   0.54460   0.70582   0.00000  Uiso   1.00
C2224  C     0.56907   0.50127   0.66883   0.00000  Uiso   1.00
H2225  H     0.57832   0.51988   0.64541   0.00000  Uiso   1.00
H2226  H     0.54129   0.99159   0.66159   0.00000  Uiso   1.00
H2227  H     0.58759   0.97740   0.67033   0.00000  Uiso   1.00
O2228  O     0.86429   0.91729   0.18354   0.00000  Uiso   1.00
C2229  C     0.83845   0.90026   0.15923   0.00000  Uiso   1.00
H2230  H     0.81159   0.89852   0.17406   0.00000  Uiso   1.00
H2231  H     0.84756   0.87236   0.15097   0.00000  Uiso   1.00
C2232  C     0.83424   0.92297   0.12228   0.00000  Uiso   1.00
H2233  H     0.82814   0.95162   0.13021   0.00000  Uiso   1.00
H2234  H     0.86022   0.92254   0.10583   0.00000  Uiso   1.00
C2235  C     0.80376   0.90854   0.09639   0.00000  Uiso   1.00
H2236  H     0.80919   0.87982   0.08815   0.00000  Uiso   1.00
H2237  H     0.80209   0.92521   0.06951   0.00000  Uiso   1.00
H2238  H     0.77726   0.91025   0.11173   0.00000  Uiso   1.00
O2239  O     0.55198   0.89463   0.74952   0.00000  Uiso   1.00
C2240  C     0.54284   0.89817   0.70968   0.00000  Uiso   1.00
H2241  H     0.55902   0.88000   0.69019   0.00000  Uiso   1.00
H2242  H     0.54744   0.92683   0.70058   0.00000  Uiso   1.00
C2243  C     0.50280   0.88856   0.70417   0.00000  Uiso   1.00
H2244  H     0.99788   0.86032   0.71449   0.00000  Uiso   1.00
H2245  H     0.98613   0.90741   0.72172   0.00000  Uiso   1.00
C2246  C     0.99117   0.89154   0.66172   0.00000  Uiso   1.00
H2247  H     0.99576   0.91961   0.65077   0.00000  Uiso   1.00
H2248  H     0.96176   0.88508   0.65914   0.00000  Uiso   1.00
H2249  H     0.50677   0.87198   0.64364   0.00000  Uiso   1.00
O2250  O     0.91769   0.63491   0.18376   0.00000  Uiso   1.00
C2251  C     0.90077   0.66050   0.15902   0.00000  Uiso   1.00
H2252  H     0.89887   0.68754   0.17355   0.00000  Uiso   1.00
H2253  H     0.87297   0.65126   0.15058   0.00000  Uiso   1.00
C2254  C     0.92368   0.66440   0.12225   0.00000  Uiso   1.00
H2255  H     0.95223   0.67073   0.13039   0.00000  Uiso   1.00
H2256  H     0.92347   0.63820   0.10611   0.00000  Uiso   1.00
C2257  C     0.90926   0.69454   0.09587   0.00000  Uiso   1.00
H2258  H     0.88062   0.68894   0.08748   0.00000  Uiso   1.00
H2259  H     0.92602   0.69594   0.06911   0.00000  Uiso   1.00
H2260  H     0.91080   0.72126   0.11090   0.00000  Uiso   1.00
O2261  O     0.89429   0.94723   0.76406   0.00000  Uiso   1.00
C2262  C     0.91486   0.95933   0.73168   0.00000  Uiso   1.00
H2263  H     0.89734   0.97743   0.71374   0.00000  Uiso   1.00
H2264  H     0.92480   0.93709   0.71224   0.00000  Uiso   1.00
C2265  C     0.94768   0.98105   0.74609   0.00000  Uiso   1.00
H2266  H     0.93803   0.50612   0.76056   0.00000  Uiso   1.00
H2267  H     0.96319   0.96490   0.76776   0.00000  Uiso   1.00
C2268  C     0.97308   0.99153   0.71292   0.00000  Uiso   1.00
H2269  H     0.99037   0.96815   0.70461   0.00000  Uiso   1.00
H2270  H     0.99097   0.51410   0.72253   0.00000  Uiso   1.00
H2271  H     0.95750   0.50039   0.68694   0.00000  Uiso   1.00
O2272  O     0.63435   0.58172   0.18413   0.00000  Uiso   1.00
C2273  C     0.65941   0.59873   0.15897   0.00000  Uiso   1.00
H2274  H     0.68655   0.60114   0.17321   0.00000  Uiso   1.00
H2275  H     0.64968   0.62633   0.15034   0.00000  Uiso   1.00
C2276  C     0.66322   0.57547   0.12241   0.00000  Uiso   1.00
H2277  H     0.67021   0.54711   0.13080   0.00000  Uiso   1.00
H2278  H     0.63681   0.57499   0.10664   0.00000  Uiso   1.00
C2279  C     0.69268   0.59014   0.09546   0.00000  Uiso   1.00
H2280  H     0.68638   0.61858   0.08678   0.00000  Uiso   1.00
H2281  H     0.69406   0.57306   0.06890   0.00000  Uiso   1.00
H2282  H     0.71960   0.58932   0.11017   0.00000  Uiso   1.00
O2283  O     0.94743   0.60393   0.75968   0.00000  Uiso   1.00
C2284  C     0.96451   0.60449   0.72263   0.00000  Uiso   1.00
H2285  H     0.99160   0.59160   0.72626   0.00000  Uiso   1.00
H2286  H     0.96975   0.63275   0.71270   0.00000  Uiso   1.00
C2287  C     0.94364   0.58334   0.69097   0.00000  Uiso   1.00
H2288  H     0.93415   0.55698   0.70287   0.00000  Uiso   1.00
H2289  H     0.91932   0.59914   0.68171   0.00000  Uiso   1.00
C2290  C     0.96736   0.57669   0.65533   0.00000  Uiso   1.00
H2291  H     0.97634   0.60303   0.64272   0.00000  Uiso   1.00
H2292  H     0.95150   0.56160   0.63308   0.00000  Uiso   1.00
H2293  H     0.99165   0.56027   0.66323   0.00000  Uiso   1.00
O2294  O     0.57788   0.86963   0.18670   0.00000  Uiso   1.00
C2295  C     0.59451   0.84686   0.15889   0.00000  Uiso   1.00
H2296  H     0.59849   0.81895   0.17089   0.00000  Uiso   1.00
H2297  H     0.62132   0.85811   0.14972   0.00000  Uiso   1.00
C2298  C     0.56977   0.84457   0.12325   0.00000  Uiso   1.00
H2299  H     0.54213   0.83583   0.13233   0.00000  Uiso   1.00
H2300  H     0.56752   0.87196   0.10970   0.00000  Uiso   1.00
C2301  C     0.58443   0.81764   0.09338   0.00000  Uiso   1.00
H2302  H     0.61219   0.82570   0.08404   0.00000  Uiso   1.00
H2303  H     0.56637   0.81734   0.06749   0.00000  Uiso   1.00
H2304  H     0.58529   0.78976   0.10588   0.00000  Uiso   1.00
O2305  O     0.85570   0.69724   0.73586   0.00000  Uiso   1.00
C2306  C     0.83503   0.70935   0.76815   0.00000  Uiso   1.00
H2307  H     0.85249   0.72740   0.78617   0.00000  Uiso   1.00
H2308  H     0.82499   0.68711   0.78755   0.00000  Uiso   1.00
C2309  C     0.80227   0.73115   0.75360   0.00000  Uiso   1.00
H2310  H     0.81201   0.75622   0.73919   0.00000  Uiso   1.00
H2311  H     0.78685   0.71505   0.73183   0.00000  Uiso   1.00
C2312  C     0.77674   0.74162   0.78664   0.00000  Uiso   1.00
H2313  H     0.75930   0.71830   0.79475   0.00000  Uiso   1.00
H2314  H     0.75900   0.76433   0.77699   0.00000  Uiso   1.00
H2315  H     0.79221   0.75030   0.81275   0.00000  Uiso   1.00
O2316  O     0.61591   0.83143   0.31605   0.00000  Uiso   1.00
C2317  C     0.59079   0.84792   0.34155   0.00000  Uiso   1.00
H2318  H     0.56345   0.84979   0.32764   0.00000  Uiso   1.00
H2319  H     0.60000   0.87571   0.35006   0.00000  Uiso   1.00
C2320  C     0.58783   0.82463   0.37820   0.00000  Uiso   1.00
H2321  H     0.58137   0.79613   0.36998   0.00000  Uiso   1.00
H2322  H     0.61437   0.82478   0.39371   0.00000  Uiso   1.00
C2323  C     0.55831   0.83875   0.40541   0.00000  Uiso   1.00
H2324  H     0.56401   0.86736   0.41384   0.00000  Uiso   1.00
H2325  H     0.55762   0.82177   0.43210   0.00000  Uiso   1.00
H2326  H     0.53126   0.83723   0.39104   0.00000  Uiso   1.00
O2327  O     0.80259   0.85397   0.74036   0.00000  Uiso   1.00
C2328  C     0.78554   0.85447   0.77742   0.00000  Uiso   1.00
H2329  H     0.75843   0.84166   0.77380   0.00000  Uiso   1.00
H2330  H     0.78035   0.88272   0.78742   0.00000  Uiso   1.00
C2331  C     0.80641   0.83319   0.80902   0.00000  Uiso   1.00
H2332  H     0.81586   0.80684   0.79706   0.00000  Uiso   1.00
H2333  H     0.83075   0.84891   0.81829   0.00000  Uiso   1.00
C2334  C     0.78271   0.82648   0.84466   0.00000  Uiso   1.00
H2335  H     0.77377   0.85280   0.85734   0.00000  Uiso   1.00
H2336  H     0.79857   0.81130   0.86687   0.00000  Uiso   1.00
H2337  H     0.75839   0.81014   0.83676   0.00000  Uiso   1.00
O2338  O     0.66811   0.61518   0.31619   0.00000  Uiso   1.00
C2339  C     0.65146   0.58970   0.34118   0.00000  Uiso   1.00
H2340  H     0.64949   0.56259   0.32680   0.00000  Uiso   1.00
H2341  H     0.62372   0.59895   0.34972   0.00000  Uiso   1.00
C2342  C     0.67470   0.58601   0.37784   0.00000  Uiso   1.00
H2343  H     0.70321   0.57974   0.36959   0.00000  Uiso   1.00
H2344  H     0.67454   0.61227   0.39388   0.00000  Uiso   1.00
C2345  C     0.66064   0.55592   0.40443   0.00000  Uiso   1.00
H2346  H     0.63207   0.56149   0.41300   0.00000  Uiso   1.00
H2347  H     0.67768   0.55464   0.43107   0.00000  Uiso   1.00
H2348  H     0.66211   0.52916   0.38948   0.00000  Uiso   1.00
O2349  O     0.64533   0.80178   0.74424   0.00000  Uiso   1.00
C2350  C     0.64373   0.78502   0.78130   0.00000  Uiso   1.00
H2351  H     0.62477   0.76154   0.77937   0.00000  Uiso   1.00
H2352  H     0.63355   0.80304   0.80512   0.00000  Uiso   1.00
C2353  C     0.68150   0.77107   0.79228   0.00000  Uiso   1.00
H2354  H     0.69142   0.75218   0.76942   0.00000  Uiso   1.00
H2355  H     0.70054   0.79449   0.79419   0.00000  Uiso   1.00
C2356  C     0.68093   0.75117   0.83120   0.00000  Uiso   1.00
H2357  H     0.67169   0.76978   0.85462   0.00000  Uiso   1.00
H2358  H     0.70871   0.74144   0.83845   0.00000  Uiso   1.00
H2359  H     0.66240   0.72733   0.82973   0.00000  Uiso   1.00
O2360  O     0.88527   0.66758   0.31630   0.00000  Uiso   1.00
C2361  C     0.91093   0.65060   0.34090   0.00000  Uiso   1.00
H2362  H     0.93790   0.64876   0.32629   0.00000  Uiso   1.00
H2363  H     0.90175   0.62274   0.34922   0.00000  Uiso   1.00
C2364  C     0.91493   0.67341   0.37777   0.00000  Uiso   1.00
H2365  H     0.92111   0.70203   0.36975   0.00000  Uiso   1.00
H2366  H     0.88883   0.67307   0.39402   0.00000  Uiso   1.00
C2367  C     0.94523   0.65902   0.40395   0.00000  Uiso   1.00
H2368  H     0.93975   0.63032   0.41225   0.00000  Uiso   1.00
H2369  H     0.94671   0.67574   0.43078   0.00000  Uiso   1.00
H2370  H     0.97184   0.66066   0.38881   0.00000  Uiso   1.00
O2371  O     0.69801   0.64459   0.75045   0.00000  Uiso   1.00
C2372  C     0.70714   0.64816   0.79028   0.00000  Uiso   1.00
H2373  H     0.69101   0.62995   0.80979   0.00000  Uiso   1.00
H2374  H     0.70243   0.67681   0.79934   0.00000  Uiso   1.00
C2375  C     0.74721   0.63866   0.79581   0.00000  Uiso   1.00
H2376  H     0.75221   0.61040   0.78562   0.00000  Uiso   1.00
H2377  H     0.76381   0.65749   0.77817   0.00000  Uiso   1.00
C2378  C     0.75885   0.64180   0.83824   0.00000  Uiso   1.00
H2379  H     0.75420   0.66990   0.84905   0.00000  Uiso   1.00
H2380  H     0.78828   0.63538   0.84084   0.00000  Uiso   1.00
H2381  H     0.74330   0.62228   0.85643   0.00000  Uiso   1.00
O2382  O     0.83264   0.88522   0.31645   0.00000  Uiso   1.00
C2383  C     0.84945   0.91090   0.34111   0.00000  Uiso   1.00
H2384  H     0.85128   0.93790   0.32647   0.00000  Uiso   1.00
H2385  H     0.87727   0.90173   0.34961   0.00000  Uiso   1.00
C2386  C     0.82648   0.91482   0.37783   0.00000  Uiso   1.00
H2387  H     0.79793   0.92108   0.36963   0.00000  Uiso   1.00
H2388  H     0.82672   0.88864   0.39405   0.00000  Uiso   1.00
C2389  C     0.84077   0.94503   0.40414   0.00000  Uiso   1.00
H2390  H     0.86941   0.93947   0.41262   0.00000  Uiso   1.00
H2391  H     0.82395   0.94646   0.43085   0.00000  Uiso   1.00
H2392  H     0.83921   0.97171   0.38901   0.00000  Uiso   1.00
O2393  O     0.88436   0.83137   0.31573   0.00000  Uiso   1.00
C2394  C     0.85717   0.80418   0.31660   0.00000  Uiso   1.00
H2395  H     0.85519   0.78963   0.28820   0.00000  Uiso   1.00
H2396  H     0.83036   0.81644   0.32353   0.00000  Uiso   1.00
C2397  C     0.86647   0.77641   0.34813   0.00000  Uiso   1.00
H2398  H     0.89345   0.76408   0.34191   0.00000  Uiso   1.00
H2399  H     0.86791   0.79032   0.37676   0.00000  Uiso   1.00
C2400  C     0.83793   0.74632   0.34986   0.00000  Uiso   1.00
H2401  H     0.81091   0.75786   0.35738   0.00000  Uiso   1.00
H2402  H     0.84564   0.72602   0.37231   0.00000  Uiso   1.00
H2403  H     0.83609   0.73235   0.32132   0.00000  Uiso   1.00
O2404  O     0.64553   0.69736   0.73997   0.00000  Uiso   1.00
C2405  C     0.64537   0.70716   0.70010   0.00000  Uiso   1.00
H2406  H     0.63622   0.73595   0.69819   0.00000  Uiso   1.00
H2407  H     0.62604   0.69087   0.68202   0.00000  Uiso   1.00
C2408  C     0.68348   0.70451   0.68283   0.00000  Uiso   1.00
H2409  H     0.70285   0.72059   0.70074   0.00000  Uiso   1.00
H2410  H     0.69217   0.67561   0.68278   0.00000  Uiso   1.00
C2411  C     0.68396   0.71851   0.64109   0.00000  Uiso   1.00
H2412  H     0.66715   0.70066   0.62218   0.00000  Uiso   1.00
H2413  H     0.71229   0.71857   0.63000   0.00000  Uiso   1.00
H2414  H     0.67310   0.74667   0.63968   0.00000  Uiso   1.00
O2415  O     0.83122   0.61620   0.31547   0.00000  Uiso   1.00
C2416  C     0.80413   0.64351   0.31627   0.00000  Uiso   1.00
H2417  H     0.78925   0.64510   0.28802   0.00000  Uiso   1.00
H2418  H     0.81647   0.67043   0.32267   0.00000  Uiso   1.00
C2419  C     0.77680   0.63463   0.34825   0.00000  Uiso   1.00
H2420  H     0.76420   0.60769   0.34236   0.00000  Uiso   1.00
H2421  H     0.79113   0.63326   0.37667   0.00000  Uiso   1.00
C2422  C     0.74697   0.66345   0.35029   0.00000  Uiso   1.00
H2423  H     0.75880   0.69040   0.35769   0.00000  Uiso   1.00
H2424  H     0.72690   0.65593   0.37296   0.00000  Uiso   1.00
H2425  H     0.73272   0.66538   0.32190   0.00000  Uiso   1.00
O2426  O     0.69720   0.85509   0.73735   0.00000  Uiso   1.00
C2427  C     0.70256   0.84863   0.69713   0.00000  Uiso   1.00
H2428  H     0.72044   0.87041   0.68549   0.00000  Uiso   1.00
H2429  H     0.67706   0.84881   0.67929   0.00000  Uiso   1.00
C2430  C     0.72158   0.81205   0.69139   0.00000  Uiso   1.00
H2431  H     0.74757   0.81165   0.70788   0.00000  Uiso   1.00
H2432  H     0.70406   0.78978   0.70254   0.00000  Uiso   1.00
C2433  C     0.72939   0.80537   0.64848   0.00000  Uiso   1.00
H2434  H     0.70366   0.80493   0.63154   0.00000  Uiso   1.00
H2435  H     0.74333   0.77878   0.64495   0.00000  Uiso   1.00
H2436  H     0.74712   0.82724   0.63681   0.00000  Uiso   1.00
O2437  O     0.61648   0.66908   0.31543   0.00000  Uiso   1.00
C2438  C     0.64381   0.69612   0.31610   0.00000  Uiso   1.00
H2439  H     0.64508   0.71109   0.28790   0.00000  Uiso   1.00
H2440  H     0.67077   0.68371   0.32215   0.00000  Uiso   1.00
C2441  C     0.63537   0.72340   0.34831   0.00000  Uiso   1.00
H2442  H     0.60854   0.73631   0.34258   0.00000  Uiso   1.00
H2443  H     0.63401   0.70896   0.37665   0.00000  Uiso   1.00
C2444  C     0.66448   0.75291   0.35044   0.00000  Uiso   1.00
H2445  H     0.69132   0.74074   0.35770   0.00000  Uiso   1.00
H2446  H     0.65731   0.77300   0.37323   0.00000  Uiso   1.00
H2447  H     0.66643   0.76723   0.32212   0.00000  Uiso   1.00
O2448  O     0.85669   0.80534   0.72514   0.00000  Uiso   1.00
C2449  C     0.86095   0.80301   0.68425   0.00000  Uiso   1.00
H2450  H     0.87321   0.77604   0.67773   0.00000  Uiso   1.00
H2451  H     0.87980   0.82385   0.67181   0.00000  Uiso   1.00
C2452  C     0.82403   0.80506   0.66382   0.00000  Uiso   1.00
H2453  H     0.80588   0.78353   0.67548   0.00000  Uiso   1.00
H2454  H     0.81137   0.83201   0.66921   0.00000  Uiso   1.00
C2455  C     0.82809   0.79978   0.62007   0.00000  Uiso   1.00
H2456  H     0.84465   0.82217   0.60760   0.00000  Uiso   1.00
H2457  H     0.80096   0.80012   0.60592   0.00000  Uiso   1.00
H2458  H     0.84128   0.77323   0.61374   0.00000  Uiso   1.00
O2459  O     0.66973   0.88315   0.31525   0.00000  Uiso   1.00
C2460  C     0.69683   0.85586   0.31501   0.00000  Uiso   1.00
H2461  H     0.71102   0.85468   0.28639   0.00000  Uiso   1.00
H2462  H     0.68466   0.82886   0.32131   0.00000  Uiso   1.00
C2463  C     0.72489   0.86437   0.34649   0.00000  Uiso   1.00
H2464  H     0.73738   0.89137   0.34064   0.00000  Uiso   1.00
H2465  H     0.71122   0.86546   0.37525   0.00000  Uiso   1.00
C2466  C     0.75473   0.83554   0.34761   0.00000  Uiso   1.00
H2467  H     0.74308   0.80853   0.35506   0.00000  Uiso   1.00
H2468  H     0.77533   0.84289   0.36989   0.00000  Uiso   1.00
H2469  H     0.76831   0.83385   0.31888   0.00000  Uiso   1.00
O2470  O     0.80528   0.64248   0.72521   0.00000  Uiso   1.00
C2471  C     0.80471   0.64453   0.68428   0.00000  Uiso   1.00
H2472  H     0.81402   0.61837   0.67119   0.00000  Uiso   1.00
H2473  H     0.82240   0.66707   0.67372   0.00000  Uiso   1.00
C2474  C     0.76572   0.65205   0.67135   0.00000  Uiso   1.00
H2475  H     0.74708   0.63229   0.68554   0.00000  Uiso   1.00
H2476  H     0.75801   0.67996   0.68047   0.00000  Uiso   1.00
C2477  C     0.76151   0.64876   0.62749   0.00000  Uiso   1.00
H2478  H     0.77985   0.66818   0.61243   0.00000  Uiso   1.00
H2479  H     0.73298   0.65471   0.61905   0.00000  Uiso   1.00
H2480  H     0.76796   0.62057   0.61838   0.00000  Uiso   1.00
loop_
_geom_bond_atom_site_label_1
_geom_bond_atom_site_label_2
_geom_bond_distance
_geom_bond_site_symmetry_2
_ccdc_geom_bond_type
Zn1    O87     1.941   .     S
Zn1    O56     1.950   .     S
Zn1    O41     1.950   .     S
Zn1    O1324   1.941   1_545 S
Zn2    O83     1.941   .     S
Zn2    O55     1.950   .     S
Zn2    O42     1.950   .     S
Zn2    O1328   1.941   1_545 S
Zn3    O58     1.949   .     S
Zn3    O78     1.940   .     S
Zn3    O43     1.951   .     S
Zn3    O705    1.942   1_455 S
Zn4    O86     1.942   .     S
Zn4    O44     1.951   .     S
Zn4    O57     1.949   .     S
Zn4    O697    1.940   1_455 S
Zn5    O60     1.949   .     S
Zn5    O80     1.941   .     S
Zn5    O41     1.954   .     S
Zn5    O1331   1.940   1_545 S
Zn6    O42     1.954   .     S
Zn6    O59     1.949   .     S
Zn6    O92     1.940   .     S
Zn6    O1319   1.941   1_545 S
Zn7    O43     1.950   .     S
Zn7    O54     1.950   .     S
Zn7    O89     1.941   .     S
Zn7    O702    1.941   1_455 S
Zn8    O81     1.941   .     S
Zn8    O53     1.950   .     S
Zn8    O44     1.950   .     S
Zn8    O710    1.941   1_455 S
Zn9    O48     1.950   .     S
Zn9    O71     1.941   .     S
Zn9    O68     1.941   .     S
Zn9    O664    1.950   .     S
Zn10   O47     1.950   .     S
Zn10   O72     1.941   .     S
Zn10   O67     1.941   .     S
Zn10   O43     1.950   .     S
Zn11   O62     1.940   .     S
Zn11   O69     1.942   .     S
Zn11   O50     1.949   .     S
Zn11   O1282   1.951   .     S
Zn12   O49     1.949   .     S
Zn12   O70     1.942   .     S
Zn12   O61     1.940   .     S
Zn12   O41     1.951   .     S
Zn13   O44     1.954   .     S
Zn13   O75     1.940   .     S
Zn13   O52     1.949   .     S
Zn13   O64     1.941   .     S
Zn14   O76     1.940   .     S
Zn14   O63     1.941   .     S
Zn14   O51     1.949   .     S
Zn14   O663    1.954   .     S
Zn15   O66     1.941   .     S
Zn15   O42     1.950   .     S
Zn15   O46     1.950   .     S
Zn15   O73     1.941   .     S
Zn16   O45     1.950   .     S
Zn16   O65     1.941   .     S
Zn16   O74     1.941   .     S
Zn16   O1281   1.950   .     S
C17    H181    1.082   .     S
C17    C169    1.397   .     A
C17    C653    1.396   .     S
C18    C170    1.399   .     A
C18    C34     1.397   .     A
C18    H182    1.082   .     S
C19    C35     1.396   .     A
C19    C171    1.398   .     A
C19    H183    1.082   .     S
C20    H184    1.081   .     S
C20    C172    1.399   .     A
C20    C1276   1.397   1_545 S
C21    C33     1.396   .     A
C21    C165    1.399   .     A
C21    H185    1.082   .     S
C22    C166    1.398   .     A
C22    H186    1.082   .     S
C22    C654    1.396   .     S
C23    C167    1.397   .     A
C23    H187    1.082   .     S
C23    C1275   1.394   1_545 S
C24    C36     1.397   .     A
C24    H188    1.082   .     S
C24    C168    1.399   .     A
C25    H189    1.082   .     S
C25    C177    1.398   .     A
C25    C37     1.395   .     A
C26    C178    1.399   .     A
C26    C38     1.396   .     A
C26    H190    1.082   .     S
C27    C179    1.398   .     A
C27    C39     1.396   .     A
C27    H191    1.081   .     S
C28    C180    1.399   .     A
C28    H192    1.082   .     S
C28    C660    1.397   1_455 S
C29    H193    1.082   .     S
C29    C173    1.399   .     A
C29    C1277   1.397   .     S
C30    C174    1.397   .     A
C30    H194    1.082   .     S
C30    C1278   1.395   1_545 S
C31    H195    1.082   .     S
C31    C175    1.399   .     A
C31    C659    1.397   1_455 S
C32    H196    1.082   .     S
C32    C176    1.397   .     A
C32    C40     1.395   .     A
C33    C111    1.460   .     S
C33    C637    1.396   1_455 S
C34    C642    1.396   1_455 S
C34    C732    1.461   1_455 S
C35    C109    1.459   .     S
C35    C1263   1.394   .     S
C36    C1350   1.462   .     S
C36    C1260   1.397   .     S
C37    C115    1.461   .     S
C37    C1269   1.397   1_545 S
C38    C116    1.460   .     S
C38    C1270   1.395   .     S
C39    C113    1.462   .     S
C39    C651    1.397   .     S
C40    C648    1.397   .     S
C40    C734    1.460   .     S
O41    Zn1256  1.950   1_545 S
O42    Zn1251  1.951   1_545 S
O43    Zn634   1.954   1_455 S
O44    Zn629   1.950   1_455 S
O45    C109    1.281   .     A
O46    C110    1.283   .     S
O47    C111    1.283   .     A
O48    C112    1.284   .     A
O49    C1349   1.283   1_545 S
O50    C1350   1.282   .     A
O51    C731    1.283   .     S
O52    C732    1.282   1_455 S
O53    C733    1.282   1_455 S
O54    C114    1.283   .     A
O55    C115    1.284   .     A
O56    C1356   1.283   1_545 S
O57    C733    1.283   1_455 S
O58    C114    1.281   .     A
O59    C115    1.282   .     A
O60    C1356   1.283   1_545 S
O61    C117    1.281   .     A
O62    C118    1.282   .     A
O63    C119    1.283   .     A
O64    C120    1.281   .     A
O65    C121    1.282   .     A
O66    C122    1.283   .     A
O67    C123    1.283   .     A
O68    C124    1.278   .     A
O69    C125    1.285   .     A
O70    C126    1.284   .     A
O71    C127    1.283   .     A
O72    C128    1.283   .     A
O73    C129    1.285   .     A
O74    C130    1.286   .     A
O75    C131    1.283   .     A
O76    C132    1.283   .     A
O77    C127    1.285   .     A
O77    Zn624   1.940   .     S
O78    C128    1.282   .     A
O79    C125    1.283   .     A
O79    Zn1246  1.941   .     S
O80    C126    1.284   .     A
O81    C131    1.285   .     A
O82    C132    1.284   .     A
O82    Zn627   1.941   .     S
O83    C129    1.282   .     A
O84    C130    1.279   .     A
O84    Zn1241  1.941   .     S
O85    C119    1.282   .     A
O85    Zn623   1.942   .     S
O86    C120    1.283   .     A
O87    C117    1.281   .     A
O88    C118    1.279   .     A
O88    Zn1242  1.941   .     S
O89    C123    1.280   .     A
O90    C124    1.282   .     A
O90    Zn628   1.941   .     S
O91    C121    1.282   .     A
O91    Zn1245  1.940   .     S
O92    C122    1.280   .     A
C93    C165    1.412   .     A
C93    N221    1.435   .     S
C93    C98     1.404   .     A
C94    N224    1.435   .     S
C94    C97     1.403   .     A
C94    C166    1.411   .     A
C95    C100    1.403   .     A
C95    C167    1.410   .     A
C95    N227    1.435   .     S
C96    C99     1.405   .     A
C96    C168    1.413   .     A
C96    N230    1.436   .     S
C97    C169    1.411   .     A
C97    N233    1.435   .     S
C98    N236    1.436   .     S
C98    C170    1.413   .     A
C99    N239    1.436   .     S
C99    C171    1.412   .     A
C100   N242    1.434   .     S
C100   C172    1.412   .     A
C101   N245    1.436   .     S
C101   C173    1.413   .     A
C101   C106    1.405   1_556 S
C102   N248    1.435   .     S
C102   C174    1.411   .     A
C102   C105    1.403   1_554 S
C103   N251    1.436   .     S
C103   C175    1.413   .     A
C103   C108    1.405   1_556 S
C104   C176    1.410   .     A
C104   N254    1.433   .     S
C104   C107    1.402   1_554 S
C105   C177    1.411   .     A
C105   N257    1.435   .     S
C105   C102    1.403   1_556 S
C106   C178    1.412   .     A
C106   N260    1.436   .     S
C106   C101    1.405   1_554 S
C107   C179    1.411   .     A
C107   N263    1.434   .     S
C107   C104    1.402   1_556 S
C108   C180    1.412   .     A
C108   N266    1.435   .     S
C108   C103    1.405   1_554 S
C109   O1289   1.283   .     S
C110   O1290   1.282   1_545 A
C110   C1276   1.462   1_545 S
C111   O671    1.283   1_455 S
C112   C654    1.461   .     S
C112   O672    1.282   .     S
C113   O677    1.283   .     S
C113   O673    1.282   .     S
C114   C660    1.460   1_455 S
C116   O1300   1.283   .     S
C116   O1296   1.283   .     S
C117   C199    1.456   .     S
C118   C200    1.453   .     S
C119   C201    1.458   .     S
C120   C202    1.456   .     S
C121   C203    1.457   .     S
C122   C204    1.455   .     S
C123   C197    1.458   .     S
C124   C198    1.453   .     S
C125   C207    1.464   .     S
C126   C208    1.462   .     S
C127   C209    1.464   .     S
C128   C210    1.461   .     S
C129   C211    1.465   .     S
C130   C212    1.462   .     S
C131   C205    1.463   .     S
C132   C206    1.461   .     S
C133   O269    1.387   .     S
C133   C148    1.390   .     A
C133   C212    1.416   .     A
C134   C211    1.412   .     A
C134   O280    1.383   .     S
C134   C147    1.395   .     A
C135   C146    1.394   .     A
C135   C210    1.411   .     A
C135   O291    1.385   .     S
C136   O302    1.380   .     S
C136   C209    1.408   .     A
C136   C145    1.397   .     A
C137   O313    1.386   .     S
C137   C144    1.395   .     A
C137   C208    1.411   .     A
C138   O324    1.385   .     S
C138   C143    1.396   .     A
C138   C207    1.414   .     A
C139   C142    1.396   .     A
C139   C206    1.410   .     A
C139   O335    1.385   .     S
C140   C205    1.411   .     A
C140   O346    1.384   .     S
C140   C141    1.397   .     A
C141   C204    1.405   .     A
C141   O357    1.384   .     S
C142   O368    1.385   .     S
C142   C203    1.409   .     A
C143   O379    1.382   .     S
C143   C202    1.403   .     A
C144   C201    1.410   .     A
C144   O390    1.384   .     S
C145   O401    1.386   .     S
C145   C200    1.405   .     A
C146   O412    1.384   .     S
C146   C199    1.409   .     A
C147   C198    1.408   .     A
C147   O423    1.387   .     S
C148   C197    1.410   .     A
C148   O434    1.384   .     S
C149   C164    1.397   .     A
C149   O445    1.386   .     S
C149   C198    1.405   .     A
C150   C163    1.396   .     A
C150   O456    1.384   .     S
C150   C197    1.410   .     A
C151   O467    1.387   .     S
C151   C200    1.408   .     A
C151   C162    1.394   .     A
C152   O478    1.384   .     S
C152   C161    1.395   .     A
C152   C199    1.409   .     A
C153   O489    1.384   .     S
C153   C160    1.397   .     A
C153   C202    1.405   .     A
C154   C201    1.409   .     A
C154   O500    1.384   .     S
C154   C159    1.395   .     A
C155   C158    1.396   .     A
C155   O511    1.382   .     S
C155   C204    1.403   .     A
C156   C203    1.409   .     A
C156   O522    1.384   .     S
C156   C157    1.395   .     A
C157   O533    1.386   .     S
C157   C206    1.412   .     A
C158   O544    1.385   .     S
C158   C205    1.414   .     A
C159   O555    1.385   .     S
C159   C208    1.411   .     A
C160   O566    1.384   .     S
C160   C207    1.411   .     A
C161   C210    1.411   .     A
C161   O577    1.385   .     S
C162   O588    1.383   .     S
C162   C209    1.411   .     A
C163   O599    1.385   .     S
C163   C212    1.411   .     A
C164   C211    1.408   .     A
C164   O610    1.380   .     S
C165   C213    1.417   .     A
C166   C834    1.417   .     S
C167   C1455   1.417   1_545 S
C168   C216    1.417   .     A
C169   C833    1.417   .     S
C170   C214    1.417   .     A
C171   C215    1.417   .     A
C172   C1456   1.417   1_545 S
C173   C217    1.417   .     A
C174   C1458   1.417   1_545 S
C175   C839    1.417   1_455 S
C176   C220    1.416   .     A
C177   C1457   1.417   1_545 S
C178   C218    1.417   .     A
C179   C219    1.417   .     A
C180   C840    1.416   1_455 S
C213   C214    1.403   .     A
C213   C789    1.417   1_455 S
C214   C786    1.417   1_455 S
C215   C216    1.403   .     A
C215   C1407   1.417   .     S
C216   C1412   1.417   .     S
C217   C1417   1.417   .     S
C217   C218    1.403   1_556 S
C218   C1414   1.417   .     S
C218   C217    1.403   1_554 S
C219   C795    1.417   .     S
C219   C220    1.403   1_556 S
C220   C800    1.416   .     S
C220   C219    1.403   1_554 S
N221   O222    1.301   .     A
N221   O223    1.301   .     A
N224   O225    1.301   .     A
N224   O226    1.301   .     A
N227   O229    1.301   .     A
N227   O228    1.301   .     A
N230   O231    1.301   .     A
N230   O232    1.301   .     A
N233   O234    1.301   .     A
N233   O235    1.301   .     A
N236   O238    1.301   .     A
N236   O237    1.301   .     A
N239   O241    1.301   .     A
N239   O240    1.301   .     A
N242   O244    1.301   .     A
N242   O243    1.301   .     A
N245   O246    1.301   .     A
N245   O1487   1.301   .     S
O247   N1485   1.301   1_545 S
N248   O250    1.301   .     A
N248   O1489   1.301   1_545 S
O249   N1488   1.301   .     S
N251   O252    1.301   .     A
N251   O873    1.301   1_455 S
O253   N871    1.301   .     S
N254   O256    1.301   .     A
N254   O875    1.300   .     S
O255   N874    1.300   1_455 S
N257   O258    1.301   .     A
N257   O259    1.301   .     A
N260   O262    1.301   .     A
N260   O1501   1.301   .     S
O261   N1500   1.301   1_545 S
N263   O265    1.301   .     A
N263   O264    1.301   .     A
N266   O268    1.301   .     A
N266   O887    1.301   1_455 S
O267   N886    1.301   .     S
O269   C270    1.420   .     S
C270   H272    1.118   .     S
C270   C273    1.530   .     S
C270   H271    1.112   .     S
C273   C276    1.527   .     S
C273   H274    1.112   .     S
C273   H275    1.110   .     S
C276   H278    1.109   .     S
C276   H1517   1.111   .     S
C276   H1519   1.111   .     S
H277   C1516   1.111   1_545 S
H279   C1516   1.111   1_545 S
O280   C281    1.419   .     S
C281   C284    1.529   .     S
C281   H282    1.112   .     S
C281   H283    1.119   .     S
C284   H285    1.110   .     S
C284   C287    1.526   .     S
C284   H286    1.110   .     S
C287   H290    1.111   .     S
C287   H289    1.109   .     S
C287   H288    1.110   .     S
O291   C292    1.414   .     S
C292   H293    1.117   .     S
C292   H294    1.112   .     S
C292   C295    1.527   .     S
C295   H296    1.111   .     S
C295   H297    1.111   .     S
C295   C918    1.525   1_455 S
C298   H300    1.110   .     S
C298   H301    1.110   .     S
C298   C915    1.525   .     S
C298   H919    1.110   .     S
H299   C918    1.110   1_455 S
O302   C303    1.411   .     S
C303   H305    1.114   .     S
C303   H304    1.116   .     S
C303   C306    1.525   .     S
C306   C309    1.522   .     S
C306   H308    1.110   .     S
C306   H927    1.112   .     S
H307   C926    1.112   1_455 S
C309   H310    1.111   .     S
C309   H312    1.108   .     S
C309   H931    1.110   .     S
H311   C929    1.110   1_455 S
O313   C314    1.414   .     S
C314   H315    1.117   .     S
C314   H316    1.110   .     S
C314   C317    1.528   .     S
C317   H319    1.111   .     S
C317   H318    1.111   .     S
C317   C1560   1.525   1_545 S
C320   H323    1.110   .     S
C320   H322    1.110   .     S
C320   C1557   1.525   .     S
C320   H1561   1.111   .     S
H321   C1560   1.111   1_545 S
O324   C325    1.418   .     S
C325   H327    1.118   .     S
C325   H326    1.111   .     S
C325   C328    1.526   .     S
C328   H330    1.108   .     S
C328   H329    1.111   .     S
C328   C331    1.526   .     S
C331   H334    1.110   .     S
C331   H332    1.111   .     S
C331   H333    1.110   .     S
O335   C336    1.415   .     S
C336   C339    1.526   .     S
C336   H337    1.112   .     S
C336   H338    1.114   .     S
C339   C342    1.524   .     S
C339   H340    1.111   .     S
C339   H341    1.112   .     S
C342   H343    1.109   .     S
C342   H344    1.109   .     S
C342   H965    1.110   .     S
H345   C962    1.110   1_455 S
O346   C347    1.419   .     S
C347   C350    1.528   .     S
C347   H348    1.111   .     S
C347   H349    1.119   .     S
C350   H351    1.110   .     S
C350   C353    1.525   .     S
C350   H352    1.110   .     S
C353   H355    1.110   .     S
C353   H354    1.110   .     S
C353   H356    1.110   .     S
O357   C358    1.417   .     S
C358   H359    1.111   .     S
C358   C361    1.527   .     S
C358   H360    1.119   .     S
C361   C364    1.526   .     S
C361   H363    1.111   .     S
C361   H362    1.111   .     S
C364   H365    1.111   .     S
C364   H1606   1.110   1_545 S
C364   H1607   1.111   1_545 S
H366   C1604   1.110   .     S
H367   C1604   1.111   .     S
O368   C369    1.411   .     S
C369   C372    1.528   .     S
C369   H371    1.115   .     S
C369   H370    1.114   .     S
C372   H373    1.110   .     S
C372   C375    1.525   .     S
C372   H374    1.111   .     S
C375   H376    1.111   .     S
C375   H378    1.111   .     S
C375   H377    1.111   .     S
O379   C380    1.417   .     S
C380   H381    1.119   .     S
C380   C383    1.525   .     S
C380   H382    1.111   .     S
C383   H1004   1.111   1_455 S
C383   H1005   1.105   1_455 S
C383   C1006   1.525   1_455 S
H384   C1003   1.111   .     S
H385   C1003   1.105   .     S
C386   H388    1.111   .     S
C386   H387    1.111   .     S
C386   C1003   1.525   .     S
C386   H1009   1.111   .     S
H389   C1006   1.111   1_455 S
O390   C391    1.411   .     S
C391   C394    1.528   .     S
C391   H392    1.115   .     S
C391   H393    1.115   .     S
C394   H395    1.111   .     S
C394   H396    1.112   .     S
C394   C397    1.526   .     S
C397   H399    1.110   .     S
C397   H398    1.111   .     S
C397   H400    1.111   .     S
O401   C402    1.419   .     S
C402   H403    1.112   .     S
C402   H404    1.118   .     S
C402   C405    1.529   .     S
C405   C408    1.526   .     S
C405   H407    1.110   .     S
C405   H1646   1.106   .     S
H406   C1645   1.106   1_545 S
C408   H409    1.106   .     S
C408   H1650   1.109   .     S
C408   H1651   1.109   .     S
H410   C1648   1.109   1_545 S
H411   C1648   1.109   1_545 S
O412   C413    1.411   .     S
C413   H415    1.115   .     S
C413   H414    1.115   .     S
C413   C416    1.528   .     S
C416   H417    1.111   .     S
C416   C419    1.526   .     S
C416   H418    1.112   .     S
C419   H422    1.111   .     S
C419   H420    1.111   .     S
C419   H421    1.110   .     S
O423   C424    1.423   .     S
C424   H425    1.109   .     S
C424   C427    1.542   .     S
C424   H426    1.110   .     S
C427   H428    1.108   .     S
C427   H429    1.112   .     S
C427   C430    1.526   .     S
C430   H432    1.110   .     S
C430   H433    1.111   .     S
C430   H431    1.111   .     S
O434   C435    1.411   .     S
C435   H437    1.115   .     S
C435   C438    1.528   .     S
C435   H436    1.115   .     S
C438   H439    1.111   .     S
C438   C441    1.526   .     S
C438   H440    1.112   .     S
C441   H444    1.111   .     S
C441   H443    1.110   .     S
C441   H442    1.111   .     S
O445   C446    1.419   .     S
C446   C449    1.529   .     S
C446   H448    1.118   .     S
C446   H447    1.112   .     S
C449   H451    1.110   .     S
C449   H450    1.106   .     S
C449   C452    1.526   .     S
C452   H455    1.109   .     S
C452   H453    1.106   .     S
C452   H454    1.109   .     S
O456   C457    1.412   .     S
C457   H458    1.115   .     S
C457   C460    1.528   .     S
C457   H459    1.115   .     S
C460   H462    1.111   .     S
C460   H461    1.110   .     S
C460   C463    1.526   .     S
C463   H466    1.111   .     S
C463   H464    1.111   .     S
C463   H465    1.110   .     S
O467   C468    1.423   .     S
C468   H470    1.110   .     S
C468   H469    1.109   .     S
C468   C471    1.542   .     S
C471   H473    1.112   .     S
C471   H472    1.108   .     S
C471   C474    1.526   .     S
C474   H475    1.111   .     S
C474   H476    1.110   .     S
C474   H477    1.111   .     S
O478   C479    1.411   .     S
C479   H480    1.115   .     S
C479   C482    1.528   .     S
C479   H481    1.115   .     S
C482   H484    1.112   .     S
C482   C485    1.526   .     S
C482   H483    1.110   .     S
C485   H486    1.111   .     S
C485   H488    1.111   .     S
C485   H487    1.110   .     S
O489   C490    1.417   .     S
C490   C493    1.527   .     S
C490   H491    1.111   .     S
C490   H492    1.119   .     S
C493   H494    1.111   .     S
C493   C496    1.526   .     S
C493   H495    1.111   .     S
C496   H499    1.111   .     S
C496   H498    1.110   .     S
C496   H497    1.111   .     S
O500   C501    1.411   .     S
C501   H502    1.114   .     S
C501   C504    1.528   .     S
C501   H503    1.115   .     S
C504   H505    1.110   .     S
C504   C507    1.526   .     S
C504   H506    1.112   .     S
C507   H509    1.111   .     S
C507   H510    1.111   .     S
C507   H508    1.111   .     S
O511   C512    1.417   .     S
C512   H513    1.119   .     S
C512   C515    1.525   .     S
C512   H514    1.111   .     S
C515   C518    1.525   .     S
C515   H516    1.111   .     S
C515   H517    1.105   .     S
C518   H519    1.111   .     S
C518   H521    1.111   .     S
C518   H520    1.111   .     S
O522   C523    1.411   .     S
C523   C526    1.528   .     S
C523   H524    1.115   .     S
C523   H525    1.115   .     S
C526   H528    1.112   .     S
C526   C529    1.526   .     S
C526   H527    1.111   .     S
C529   H530    1.111   .     S
C529   H532    1.111   .     S
C529   H531    1.110   .     S
O533   C534    1.414   .     S
C534   H535    1.117   .     S
C534   C537    1.527   .     S
C534   H536    1.110   .     S
C537   C540    1.526   .     S
C537   H539    1.111   .     S
C537   H538    1.111   .     S
C540   H541    1.111   .     S
C540   H543    1.110   .     S
C540   H542    1.110   .     S
O544   C545    1.418   .     S
C545   C548    1.526   .     S
C545   H547    1.118   .     S
C545   H546    1.111   .     S
C548   H550    1.108   .     S
C548   C551    1.526   .     S
C548   H549    1.111   .     S
C551   H554    1.110   .     S
C551   H553    1.110   .     S
C551   H552    1.111   .     S
O555   C556    1.414   .     S
C556   H557    1.116   .     S
C556   H558    1.110   .     S
C556   C559    1.527   .     S
C559   C562    1.525   .     S
C559   H561    1.111   .     S
C559   H560    1.111   .     S
C562   H564    1.110   .     S
C562   H565    1.110   .     S
C562   H563    1.111   .     S
O566   C567    1.419   .     S
C567   H568    1.111   .     S
C567   C570    1.528   .     S
C567   H569    1.119   .     S
C570   H572    1.110   .     S
C570   C573    1.525   .     S
C570   H571    1.110   .     S
C573   H575    1.110   .     S
C573   H576    1.110   .     S
C573   H574    1.110   .     S
O577   C578    1.413   .     S
C578   H580    1.110   .     S
C578   C581    1.527   .     S
C578   H579    1.116   .     S
C581   C584    1.525   .     S
C581   H582    1.111   .     S
C581   H583    1.111   .     S
C584   H585    1.111   .     S
C584   H587    1.110   .     S
C584   H586    1.110   .     S
O588   C589    1.419   .     S
C589   H590    1.112   .     S
C589   C592    1.529   .     S
C589   H591    1.119   .     S
C592   H593    1.110   .     S
C592   C595    1.526   .     S
C592   H594    1.110   .     S
C595   H598    1.111   .     S
C595   H596    1.110   .     S
C595   H597    1.109   .     S
O599   C600    1.413   .     S
C600   H601    1.116   .     S
C600   C603    1.527   .     S
C600   H602    1.110   .     S
C603   H604    1.111   .     S
C603   H605    1.112   .     S
C603   C606    1.525   .     S
C606   H609    1.110   .     S
C606   H607    1.111   .     S
C606   H608    1.110   .     S
O610   C611    1.411   .     S
C611   H613    1.114   .     S
C611   C614    1.525   .     S
C611   H612    1.116   .     S
C614   C617    1.522   .     S
C614   H616    1.110   .     S
C614   H615    1.112   .     S
C617   H618    1.111   .     S
C617   H620    1.108   .     S
C617   H619    1.110   .     S
Zn621  O707    1.941   .     S
Zn621  O676    1.950   .     S
Zn621  O661    1.950   .     S
Zn621  O1944   1.941   1_545 S
Zn622  O703    1.941   .     S
Zn622  O675    1.950   .     S
Zn622  O662    1.950   .     S
Zn622  O1948   1.941   1_545 S
Zn623  O678    1.949   .     S
Zn623  O698    1.940   .     S
Zn623  O663    1.951   .     S
Zn624  O706    1.942   .     S
Zn624  O664    1.951   .     S
Zn624  O677    1.949   .     S
Zn625  O680    1.949   .     S
Zn625  O700    1.941   .     S
Zn625  O661    1.954   .     S
Zn625  O1951   1.940   1_545 S
Zn626  O662    1.954   .     S
Zn626  O679    1.949   .     S
Zn626  O712    1.940   .     S
Zn626  O1939   1.941   1_545 S
Zn627  O663    1.950   .     S
Zn627  O674    1.950   .     S
Zn627  O709    1.941   .     S
Zn628  O701    1.941   .     S
Zn628  O673    1.950   .     S
Zn628  O664    1.950   .     S
Zn629  O668    1.950   .     S
Zn629  O691    1.941   .     S
Zn629  O688    1.941   .     S
Zn629  O44     1.950   1_655 S
Zn630  O667    1.950   .     S
Zn630  O692    1.941   .     S
Zn630  O687    1.941   .     S
Zn630  O663    1.950   .     S
Zn631  O682    1.940   .     S
Zn631  O689    1.942   .     S
Zn631  O670    1.949   .     S
Zn631  O1902   1.951   .     S
Zn632  O669    1.949   .     S
Zn632  O690    1.942   .     S
Zn632  O681    1.940   .     S
Zn632  O661    1.951   .     S
Zn633  O664    1.954   .     S
Zn633  O695    1.940   .     S
Zn633  O672    1.949   .     S
Zn633  O684    1.941   .     S
Zn634  O696    1.940   .     S
Zn634  O683    1.941   .     S
Zn634  O671    1.949   .     S
Zn634  O43     1.954   1_655 S
Zn635  O686    1.941   .     S
Zn635  O662    1.950   .     S
Zn635  O666    1.950   .     S
Zn635  O693    1.941   .     S
Zn636  O665    1.950   .     S
Zn636  O685    1.941   .     S
Zn636  O694    1.941   .     S
Zn636  O1901   1.950   .     S
C637   H801    1.082   .     S
C637   C789    1.397   .     A
C637   C33     1.396   1_655 S
C638   C790    1.399   .     A
C638   C654    1.397   .     A
C638   H802    1.082   .     S
C639   C655    1.396   .     A
C639   C791    1.398   .     A
C639   H803    1.082   .     S
C640   H804    1.081   .     S
C640   C792    1.399   .     A
C640   C1896   1.397   1_545 S
C641   C653    1.396   .     A
C641   C785    1.399   .     A
C641   H805    1.082   .     S
C642   C786    1.398   .     A
C642   H806    1.082   .     S
C642   C34     1.396   1_655 S
C643   C787    1.397   .     A
C643   H807    1.082   .     S
C643   C1895   1.394   1_545 S
C644   C656    1.397   .     A
C644   H808    1.082   .     S
C644   C788    1.399   .     A
C645   H809    1.082   .     S
C645   C797    1.398   .     A
C645   C657    1.395   .     A
C646   C798    1.399   .     A
C646   C658    1.396   .     A
C646   H810    1.082   .     S
C647   C799    1.398   .     A
C647   C659    1.396   .     A
C647   H811    1.081   .     S
C648   C800    1.399   .     A
C648   H812    1.082   .     S
C649   H813    1.082   .     S
C649   C793    1.399   .     A
C649   C1897   1.397   .     S
C650   C794    1.397   .     A
C650   H814    1.082   .     S
C650   C1898   1.395   1_545 S
C651   H815    1.082   .     S
C651   C795    1.399   .     A
C652   H816    1.082   .     S
C652   C796    1.397   .     A
C652   C660    1.395   .     A
C653   C731    1.460   .     S
C655   C729    1.459   .     S
C655   C1883   1.394   .     S
C656   C1970   1.462   .     S
C656   C1880   1.397   .     S
C657   C735    1.461   .     S
C657   C1889   1.397   1_545 S
C658   C736    1.460   .     S
C658   C1890   1.395   .     S
C659   C733    1.462   .     S
C659   C31     1.397   1_655 S
C660   C28     1.397   1_655 S
C660   C114    1.460   1_655 S
O661   Zn1876  1.950   1_545 S
O662   Zn1871  1.951   1_545 S
O665   C729    1.281   .     A
O666   C730    1.283   .     S
O667   C731    1.283   .     A
O668   C732    1.284   .     A
O669   C1969   1.283   1_545 S
O670   C1970   1.282   .     A
O671   C111    1.283   1_655 S
O674   C734    1.283   .     A
O675   C735    1.284   .     A
O676   C1976   1.283   1_545 S
O678   C734    1.281   .     A
O679   C735    1.282   .     A
O680   C1976   1.283   1_545 S
O681   C737    1.281   .     A
O682   C738    1.282   .     A
O683   C739    1.283   .     A
O684   C740    1.281   .     A
O685   C741    1.282   .     A
O686   C742    1.283   .     A
O687   C743    1.283   .     A
O688   C744    1.278   .     A
O689   C745    1.285   .     A
O690   C746    1.284   .     A
O691   C747    1.283   .     A
O692   C748    1.283   .     A
O693   C749    1.285   .     A
O694   C750    1.286   .     A
O695   C751    1.283   .     A
O696   C752    1.283   .     A
O697   C747    1.285   .     A
O697   Zn4     1.940   1_655 S
O698   C748    1.282   .     A
O699   C745    1.283   .     A
O699   Zn1866  1.941   .     S
O700   C746    1.284   .     A
O701   C751    1.285   .     A
O702   C752    1.284   .     A
O702   Zn7     1.941   1_655 S
O703   C749    1.282   .     A
O704   C750    1.279   .     A
O704   Zn1861  1.941   .     S
O705   C739    1.282   .     A
O705   Zn3     1.942   1_655 S
O706   C740    1.283   .     A
O707   C737    1.281   .     A
O708   C738    1.279   .     A
O708   Zn1862  1.941   .     S
O709   C743    1.280   .     A
O710   C744    1.282   .     A
O710   Zn8     1.941   1_655 S
O711   C741    1.282   .     A
O711   Zn1865  1.940   .     S
O712   C742    1.280   .     A
C713   C785    1.412   .     A
C713   N841    1.435   .     S
C713   C718    1.404   .     A
C714   N844    1.435   .     S
C714   C717    1.403   .     A
C714   C786    1.411   .     A
C715   C720    1.403   .     A
C715   C787    1.410   .     A
C715   N847    1.435   .     S
C716   C719    1.405   .     A
C716   C788    1.413   .     A
C716   N850    1.436   .     S
C717   C789    1.411   .     A
C717   N853    1.435   .     S
C718   N856    1.436   .     S
C718   C790    1.413   .     A
C719   N859    1.436   .     S
C719   C791    1.412   .     A
C720   N862    1.434   .     S
C720   C792    1.412   .     A
C721   N865    1.436   .     S
C721   C793    1.413   .     A
C721   C726    1.405   1_556 S
C722   N868    1.435   .     S
C722   C794    1.411   .     A
C722   C725    1.403   1_554 S
C723   N871    1.436   .     S
C723   C795    1.413   .     A
C723   C728    1.405   1_556 S
C724   C796    1.410   .     A
C724   N874    1.433   .     S
C724   C727    1.402   1_554 S
C725   C797    1.411   .     A
C725   N877    1.435   .     S
C725   C722    1.403   1_556 S
C726   C798    1.412   .     A
C726   N880    1.436   .     S
C726   C721    1.405   1_554 S
C727   C799    1.411   .     A
C727   N883    1.434   .     S
C727   C724    1.402   1_556 S
C728   C800    1.412   .     A
C728   N886    1.435   .     S
C728   C723    1.405   1_554 S
C729   O1909   1.283   .     S
C730   O1910   1.282   1_545 A
C730   C1896   1.462   1_545 S
C732   C34     1.461   1_655 S
C732   O52     1.282   1_655 S
C733   O57     1.283   1_655 S
C733   O53     1.282   1_655 S
C736   O1920   1.283   .     S
C736   O1916   1.283   .     S
C737   C819    1.456   .     S
C738   C820    1.453   .     S
C739   C821    1.458   .     S
C740   C822    1.456   .     S
C741   C823    1.457   .     S
C742   C824    1.455   .     S
C743   C817    1.458   .     S
C744   C818    1.453   .     S
C745   C827    1.464   .     S
C746   C828    1.462   .     S
C747   C829    1.464   .     S
C748   C830    1.461   .     S
C749   C831    1.465   .     S
C750   C832    1.462   .     S
C751   C825    1.463   .     S
C752   C826    1.461   .     S
C753   O889    1.387   .     S
C753   C768    1.390   .     A
C753   C832    1.416   .     A
C754   C831    1.412   .     A
C754   O900    1.383   .     S
C754   C767    1.395   .     A
C755   C766    1.394   .     A
C755   C830    1.411   .     A
C755   O911    1.385   .     S
C756   O922    1.380   .     S
C756   C829    1.408   .     A
C756   C765    1.397   .     A
C757   O933    1.386   .     S
C757   C764    1.395   .     A
C757   C828    1.411   .     A
C758   O944    1.385   .     S
C758   C763    1.396   .     A
C758   C827    1.414   .     A
C759   C762    1.396   .     A
C759   C826    1.410   .     A
C759   O955    1.385   .     S
C760   C825    1.411   .     A
C760   O966    1.384   .     S
C760   C761    1.397   .     A
C761   C824    1.405   .     A
C761   O977    1.384   .     S
C762   O988    1.385   .     S
C762   C823    1.409   .     A
C763   O999    1.382   .     S
C763   C822    1.403   .     A
C764   C821    1.410   .     A
C764   O1010   1.384   .     S
C765   O1021   1.386   .     S
C765   C820    1.405   .     A
C766   O1032   1.384   .     S
C766   C819    1.409   .     A
C767   C818    1.408   .     A
C767   O1043   1.387   .     S
C768   C817    1.410   .     A
C768   O1054   1.384   .     S
C769   C784    1.397   .     A
C769   O1065   1.386   .     S
C769   C818    1.405   .     A
C770   C783    1.396   .     A
C770   O1076   1.384   .     S
C770   C817    1.410   .     A
C771   O1087   1.387   .     S
C771   C820    1.408   .     A
C771   C782    1.394   .     A
C772   O1098   1.384   .     S
C772   C781    1.395   .     A
C772   C819    1.409   .     A
C773   O1109   1.384   .     S
C773   C780    1.397   .     A
C773   C822    1.405   .     A
C774   C821    1.409   .     A
C774   O1120   1.384   .     S
C774   C779    1.395   .     A
C775   C778    1.396   .     A
C775   O1131   1.382   .     S
C775   C824    1.403   .     A
C776   C823    1.409   .     A
C776   O1142   1.384   .     S
C776   C777    1.395   .     A
C777   O1153   1.386   .     S
C777   C826    1.412   .     A
C778   O1164   1.385   .     S
C778   C825    1.414   .     A
C779   O1175   1.385   .     S
C779   C828    1.411   .     A
C780   O1186   1.384   .     S
C780   C827    1.411   .     A
C781   C830    1.411   .     A
C781   O1197   1.385   .     S
C782   O1208   1.383   .     S
C782   C829    1.411   .     A
C783   O1219   1.385   .     S
C783   C832    1.411   .     A
C784   C831    1.408   .     A
C784   O1230   1.380   .     S
C785   C833    1.417   .     A
C786   C214    1.417   1_655 S
C787   C2075   1.417   1_545 S
C788   C836    1.417   .     A
C789   C213    1.417   1_655 S
C790   C834    1.417   .     A
C791   C835    1.417   .     A
C792   C2076   1.417   1_545 S
C793   C837    1.417   .     A
C794   C2078   1.417   1_545 S
C796   C840    1.416   .     A
C797   C2077   1.417   1_545 S
C798   C838    1.417   .     A
C799   C839    1.417   .     A
C833   C834    1.403   .     A
C835   C836    1.403   .     A
C835   C2027   1.417   .     S
C836   C2032   1.417   .     S
C837   C2037   1.417   .     S
C837   C838    1.403   1_556 S
C838   C2034   1.417   .     S
C838   C837    1.403   1_554 S
C839   C175    1.417   1_655 S
C839   C840    1.403   1_556 S
C840   C180    1.416   1_655 S
C840   C839    1.403   1_554 S
N841   O842    1.301   .     A
N841   O843    1.301   .     A
N844   O845    1.301   .     A
N844   O846    1.301   .     A
N847   O849    1.301   .     A
N847   O848    1.301   .     A
N850   O851    1.301   .     A
N850   O852    1.301   .     A
N853   O854    1.301   .     A
N853   O855    1.301   .     A
N856   O858    1.301   .     A
N856   O857    1.301   .     A
N859   O861    1.301   .     A
N859   O860    1.301   .     A
N862   O864    1.301   .     A
N862   O863    1.301   .     A
N865   O866    1.301   .     A
N865   O2107   1.301   .     S
O867   N2105   1.301   1_545 S
N868   O870    1.301   .     A
N868   O2109   1.301   1_545 S
O869   N2108   1.301   .     S
N871   O872    1.301   .     A
O873   N251    1.301   1_655 S
N874   O876    1.301   .     A
N874   O255    1.300   1_655 S
N877   O878    1.301   .     A
N877   O879    1.301   .     A
N880   O882    1.301   .     A
N880   O2121   1.301   .     S
O881   N2120   1.301   1_545 S
N883   O885    1.301   .     A
N883   O884    1.301   .     A
N886   O888    1.301   .     A
O887   N266    1.301   1_655 S
O889   C890    1.420   .     S
C890   H892    1.118   .     S
C890   C893    1.530   .     S
C890   H891    1.112   .     S
C893   C896    1.527   .     S
C893   H894    1.112   .     S
C893   H895    1.110   .     S
C896   H898    1.109   .     S
C896   H2137   1.111   .     S
C896   H2139   1.111   .     S
H897   C2136   1.111   1_545 S
H899   C2136   1.111   1_545 S
O900   C901    1.419   .     S
C901   C904    1.529   .     S
C901   H902    1.112   .     S
C901   H903    1.119   .     S
C904   H905    1.110   .     S
C904   C907    1.526   .     S
C904   H906    1.110   .     S
C907   H910    1.111   .     S
C907   H909    1.109   .     S
C907   H908    1.110   .     S
O911   C912    1.414   .     S
C912   H913    1.117   .     S
C912   H914    1.112   .     S
C912   C915    1.527   .     S
C915   H916    1.111   .     S
C915   H917    1.111   .     S
C918   H920    1.110   .     S
C918   H921    1.110   .     S
C918   C295    1.525   1_655 S
C918   H299    1.110   1_655 S
O922   C923    1.411   .     S
C923   H925    1.114   .     S
C923   H924    1.116   .     S
C923   C926    1.525   .     S
C926   C929    1.522   .     S
C926   H928    1.110   .     S
C926   H307    1.112   1_655 S
C929   H930    1.111   .     S
C929   H932    1.108   .     S
C929   H311    1.110   1_655 S
O933   C934    1.414   .     S
C934   H935    1.117   .     S
C934   H936    1.110   .     S
C934   C937    1.528   .     S
C937   H939    1.111   .     S
C937   H938    1.111   .     S
C937   C2180   1.525   1_545 S
C940   H943    1.110   .     S
C940   H942    1.110   .     S
C940   C2177   1.525   .     S
C940   H2181   1.111   .     S
H941   C2180   1.111   1_545 S
O944   C945    1.418   .     S
C945   H947    1.118   .     S
C945   H946    1.111   .     S
C945   C948    1.526   .     S
C948   H950    1.108   .     S
C948   H949    1.111   .     S
C948   C951    1.526   .     S
C951   H954    1.110   .     S
C951   H952    1.111   .     S
C951   H953    1.110   .     S
O955   C956    1.415   .     S
C956   C959    1.526   .     S
C956   H957    1.112   .     S
C956   H958    1.114   .     S
C959   C962    1.524   .     S
C959   H960    1.111   .     S
C959   H961    1.112   .     S
C962   H963    1.109   .     S
C962   H964    1.109   .     S
C962   H345    1.110   1_655 S
O966   C967    1.419   .     S
C967   C970    1.528   .     S
C967   H968    1.111   .     S
C967   H969    1.119   .     S
C970   H971    1.110   .     S
C970   C973    1.525   .     S
C970   H972    1.110   .     S
C973   H975    1.110   .     S
C973   H974    1.110   .     S
C973   H976    1.110   .     S
O977   C978    1.417   .     S
C978   H979    1.111   .     S
C978   C981    1.527   .     S
C978   H980    1.119   .     S
C981   C984    1.526   .     S
C981   H983    1.111   .     S
C981   H982    1.111   .     S
C984   H985    1.111   .     S
C984   H2226   1.110   1_545 S
C984   H2227   1.111   1_545 S
H986   C2224   1.110   .     S
H987   C2224   1.111   .     S
O988   C989    1.411   .     S
C989   C992    1.528   .     S
C989   H991    1.115   .     S
C989   H990    1.114   .     S
C992   H993    1.110   .     S
C992   C995    1.525   .     S
C992   H994    1.111   .     S
C995   H996    1.111   .     S
C995   H998    1.111   .     S
C995   H997    1.111   .     S
O999   C1000   1.417   .     S
C1000  H1001   1.119   .     S
C1000  C1003   1.525   .     S
C1000  H1002   1.111   .     S
H1004  C383    1.111   1_655 S
H1005  C383    1.105   1_655 S
C1006  H1008   1.111   .     S
C1006  H1007   1.111   .     S
C1006  C383    1.525   1_655 S
C1006  H389    1.111   1_655 S
O1010  C1011   1.411   .     S
C1011  C1014   1.528   .     S
C1011  H1012   1.115   .     S
C1011  H1013   1.115   .     S
C1014  H1015   1.111   .     S
C1014  H1016   1.112   .     S
C1014  C1017   1.526   .     S
C1017  H1019   1.110   .     S
C1017  H1018   1.111   .     S
C1017  H1020   1.111   .     S
O1021  C1022   1.419   .     S
C1022  H1023   1.112   .     S
C1022  H1024   1.118   .     S
C1022  C1025   1.529   .     S
C1025  C1028   1.526   .     S
C1025  H1027   1.110   .     S
C1025  H2266   1.106   .     S
H1026  C2265   1.106   1_545 S
C1028  H1029   1.106   .     S
C1028  H2270   1.109   .     S
C1028  H2271   1.109   .     S
H1030  C2268   1.109   1_545 S
H1031  C2268   1.109   1_545 S
O1032  C1033   1.411   .     S
C1033  H1035   1.115   .     S
C1033  H1034   1.115   .     S
C1033  C1036   1.528   .     S
C1036  H1037   1.111   .     S
C1036  C1039   1.526   .     S
C1036  H1038   1.112   .     S
C1039  H1042   1.111   .     S
C1039  H1040   1.111   .     S
C1039  H1041   1.110   .     S
O1043  C1044   1.423   .     S
C1044  H1045   1.109   .     S
C1044  C1047   1.542   .     S
C1044  H1046   1.110   .     S
C1047  H1048   1.108   .     S
C1047  H1049   1.112   .     S
C1047  C1050   1.526   .     S
C1050  H1052   1.110   .     S
C1050  H1053   1.111   .     S
C1050  H1051   1.111   .     S
O1054  C1055   1.411   .     S
C1055  H1057   1.115   .     S
C1055  C1058   1.528   .     S
C1055  H1056   1.115   .     S
C1058  H1059   1.111   .     S
C1058  C1061   1.526   .     S
C1058  H1060   1.112   .     S
C1061  H1064   1.111   .     S
C1061  H1063   1.110   .     S
C1061  H1062   1.111   .     S
O1065  C1066   1.419   .     S
C1066  C1069   1.529   .     S
C1066  H1068   1.118   .     S
C1066  H1067   1.112   .     S
C1069  H1071   1.110   .     S
C1069  H1070   1.106   .     S
C1069  C1072   1.526   .     S
C1072  H1075   1.109   .     S
C1072  H1073   1.106   .     S
C1072  H1074   1.109   .     S
O1076  C1077   1.412   .     S
C1077  H1078   1.115   .     S
C1077  C1080   1.528   .     S
C1077  H1079   1.115   .     S
C1080  H1082   1.111   .     S
C1080  H1081   1.110   .     S
C1080  C1083   1.526   .     S
C1083  H1086   1.111   .     S
C1083  H1084   1.111   .     S
C1083  H1085   1.110   .     S
O1087  C1088   1.423   .     S
C1088  H1090   1.110   .     S
C1088  H1089   1.109   .     S
C1088  C1091   1.542   .     S
C1091  H1093   1.112   .     S
C1091  H1092   1.108   .     S
C1091  C1094   1.526   .     S
C1094  H1095   1.111   .     S
C1094  H1096   1.110   .     S
C1094  H1097   1.111   .     S
O1098  C1099   1.411   .     S
C1099  H1100   1.115   .     S
C1099  C1102   1.528   .     S
C1099  H1101   1.115   .     S
C1102  H1104   1.112   .     S
C1102  C1105   1.526   .     S
C1102  H1103   1.110   .     S
C1105  H1106   1.111   .     S
C1105  H1108   1.111   .     S
C1105  H1107   1.110   .     S
O1109  C1110   1.417   .     S
C1110  C1113   1.527   .     S
C1110  H1111   1.111   .     S
C1110  H1112   1.119   .     S
C1113  H1114   1.111   .     S
C1113  C1116   1.526   .     S
C1113  H1115   1.111   .     S
C1116  H1119   1.111   .     S
C1116  H1118   1.110   .     S
C1116  H1117   1.111   .     S
O1120  C1121   1.411   .     S
C1121  H1122   1.114   .     S
C1121  C1124   1.528   .     S
C1121  H1123   1.115   .     S
C1124  H1125   1.110   .     S
C1124  C1127   1.526   .     S
C1124  H1126   1.112   .     S
C1127  H1129   1.111   .     S
C1127  H1130   1.111   .     S
C1127  H1128   1.111   .     S
O1131  C1132   1.417   .     S
C1132  H1133   1.119   .     S
C1132  C1135   1.525   .     S
C1132  H1134   1.111   .     S
C1135  C1138   1.525   .     S
C1135  H1136   1.111   .     S
C1135  H1137   1.105   .     S
C1138  H1139   1.111   .     S
C1138  H1141   1.111   .     S
C1138  H1140   1.111   .     S
O1142  C1143   1.411   .     S
C1143  C1146   1.528   .     S
C1143  H1144   1.115   .     S
C1143  H1145   1.115   .     S
C1146  H1148   1.112   .     S
C1146  C1149   1.526   .     S
C1146  H1147   1.111   .     S
C1149  H1150   1.111   .     S
C1149  H1152   1.111   .     S
C1149  H1151   1.110   .     S
O1153  C1154   1.414   .     S
C1154  H1155   1.117   .     S
C1154  C1157   1.527   .     S
C1154  H1156   1.110   .     S
C1157  C1160   1.526   .     S
C1157  H1159   1.111   .     S
C1157  H1158   1.111   .     S
C1160  H1161   1.111   .     S
C1160  H1163   1.110   .     S
C1160  H1162   1.110   .     S
O1164  C1165   1.418   .     S
C1165  C1168   1.526   .     S
C1165  H1167   1.118   .     S
C1165  H1166   1.111   .     S
C1168  H1170   1.108   .     S
C1168  C1171   1.526   .     S
C1168  H1169   1.111   .     S
C1171  H1174   1.110   .     S
C1171  H1173   1.110   .     S
C1171  H1172   1.111   .     S
O1175  C1176   1.414   .     S
C1176  H1177   1.116   .     S
C1176  H1178   1.110   .     S
C1176  C1179   1.527   .     S
C1179  C1182   1.525   .     S
C1179  H1181   1.111   .     S
C1179  H1180   1.111   .     S
C1182  H1184   1.110   .     S
C1182  H1185   1.110   .     S
C1182  H1183   1.111   .     S
O1186  C1187   1.419   .     S
C1187  H1188   1.111   .     S
C1187  C1190   1.528   .     S
C1187  H1189   1.119   .     S
C1190  H1192   1.110   .     S
C1190  C1193   1.525   .     S
C1190  H1191   1.110   .     S
C1193  H1195   1.110   .     S
C1193  H1196   1.110   .     S
C1193  H1194   1.110   .     S
O1197  C1198   1.413   .     S
C1198  H1200   1.110   .     S
C1198  C1201   1.527   .     S
C1198  H1199   1.116   .     S
C1201  C1204   1.525   .     S
C1201  H1202   1.111   .     S
C1201  H1203   1.111   .     S
C1204  H1205   1.111   .     S
C1204  H1207   1.110   .     S
C1204  H1206   1.110   .     S
O1208  C1209   1.419   .     S
C1209  H1210   1.112   .     S
C1209  C1212   1.529   .     S
C1209  H1211   1.119   .     S
C1212  H1213   1.110   .     S
C1212  C1215   1.526   .     S
C1212  H1214   1.110   .     S
C1215  H1218   1.111   .     S
C1215  H1216   1.110   .     S
C1215  H1217   1.109   .     S
O1219  C1220   1.413   .     S
C1220  H1221   1.116   .     S
C1220  C1223   1.527   .     S
C1220  H1222   1.110   .     S
C1223  H1224   1.111   .     S
C1223  H1225   1.112   .     S
C1223  C1226   1.525   .     S
C1226  H1229   1.110   .     S
C1226  H1227   1.111   .     S
C1226  H1228   1.110   .     S
O1230  C1231   1.411   .     S
C1231  H1233   1.114   .     S
C1231  C1234   1.525   .     S
C1231  H1232   1.116   .     S
C1234  C1237   1.522   .     S
C1234  H1236   1.110   .     S
C1234  H1235   1.112   .     S
C1237  H1238   1.111   .     S
C1237  H1240   1.108   .     S
C1237  H1239   1.110   .     S
Zn1241 O1327   1.941   .     S
Zn1241 O1296   1.950   .     S
Zn1241 O1281   1.950   .     S
Zn1242 O1323   1.941   .     S
Zn1242 O1295   1.950   .     S
Zn1242 O1282   1.950   .     S
Zn1243 O1298   1.949   .     S
Zn1243 O1318   1.940   .     S
Zn1243 O1283   1.951   .     S
Zn1243 O1945   1.942   1_455 S
Zn1244 O1326   1.942   .     S
Zn1244 O1284   1.951   .     S
Zn1244 O1297   1.949   .     S
Zn1244 O1937   1.940   1_455 S
Zn1245 O1300   1.949   .     S
Zn1245 O1320   1.941   .     S
Zn1245 O1281   1.954   .     S
Zn1246 O1282   1.954   .     S
Zn1246 O1299   1.949   .     S
Zn1246 O1332   1.940   .     S
Zn1247 O1283   1.950   .     S
Zn1247 O1294   1.950   .     S
Zn1247 O1329   1.941   .     S
Zn1247 O1942   1.941   1_455 S
Zn1248 O1321   1.941   .     S
Zn1248 O1293   1.950   .     S
Zn1248 O1284   1.950   .     S
Zn1248 O1950   1.941   1_455 S
Zn1249 O1288   1.950   .     S
Zn1249 O1311   1.941   .     S
Zn1249 O1308   1.941   .     S
Zn1249 O1904   1.950   .     S
Zn1250 O1287   1.950   .     S
Zn1250 O1312   1.941   .     S
Zn1250 O1307   1.941   .     S
Zn1250 O1283   1.950   .     S
Zn1251 O1302   1.940   .     S
Zn1251 O1309   1.942   .     S
Zn1251 O1290   1.949   .     S
Zn1251 O42     1.951   1_565 S
Zn1252 O1289   1.949   .     S
Zn1252 O1310   1.942   .     S
Zn1252 O1301   1.940   .     S
Zn1252 O1281   1.951   .     S
Zn1253 O1284   1.954   .     S
Zn1253 O1315   1.940   .     S
Zn1253 O1292   1.949   .     S
Zn1253 O1304   1.941   .     S
Zn1254 O1316   1.940   .     S
Zn1254 O1303   1.941   .     S
Zn1254 O1291   1.949   .     S
Zn1254 O1903   1.954   .     S
Zn1255 O1306   1.941   .     S
Zn1255 O1282   1.950   .     S
Zn1255 O1286   1.950   .     S
Zn1255 O1313   1.941   .     S
Zn1256 O1285   1.950   .     S
Zn1256 O1305   1.941   .     S
Zn1256 O1314   1.941   .     S
Zn1256 O41     1.950   1_565 S
C1257  H1421   1.082   .     S
C1257  C1409   1.397   .     A
C1257  C1893   1.396   .     S
C1258  C1410   1.399   .     A
C1258  C1274   1.397   .     A
C1258  H1422   1.082   .     S
C1259  C1275   1.396   .     A
C1259  C1411   1.398   .     A
C1259  H1423   1.082   .     S
C1260  H1424   1.081   .     S
C1260  C1412   1.399   .     A
C1261  C1273   1.396   .     A
C1261  C1405   1.399   .     A
C1261  H1425   1.082   .     S
C1262  C1406   1.398   .     A
C1262  H1426   1.082   .     S
C1262  C1894   1.396   .     S
C1263  C1407   1.397   .     A
C1263  H1427   1.082   .     S
C1264  C1276   1.397   .     A
C1264  H1428   1.082   .     S
C1264  C1408   1.399   .     A
C1265  H1429   1.082   .     S
C1265  C1417   1.398   .     A
C1265  C1277   1.395   .     A
C1266  C1418   1.399   .     A
C1266  C1278   1.396   .     A
C1266  H1430   1.082   .     S
C1267  C1419   1.398   .     A
C1267  C1279   1.396   .     A
C1267  H1431   1.081   .     S
C1268  C1420   1.399   .     A
C1268  H1432   1.082   .     S
C1268  C1900   1.397   1_455 S
C1269  H1433   1.082   .     S
C1269  C1413   1.399   .     A
C1269  C37     1.397   1_565 S
C1270  C1414   1.397   .     A
C1270  H1434   1.082   .     S
C1271  H1435   1.082   .     S
C1271  C1415   1.399   .     A
C1271  C1899   1.397   1_455 S
C1272  H1436   1.082   .     S
C1272  C1416   1.397   .     A
C1272  C1280   1.395   .     A
C1273  C1351   1.460   .     S
C1273  C1877   1.396   1_455 S
C1274  C1882   1.396   1_455 S
C1274  C1972   1.461   1_455 S
C1275  C1349   1.459   .     S
C1275  C23     1.394   1_565 S
C1276  C110    1.462   1_565 S
C1276  C20     1.397   1_565 S
C1277  C1355   1.461   .     S
C1278  C1356   1.460   .     S
C1278  C30     1.395   1_565 S
C1279  C1353   1.462   .     S
C1279  C1891   1.397   .     S
C1280  C1888   1.397   .     S
C1280  C1974   1.460   .     S
O1283  Zn1874  1.954   1_455 S
O1284  Zn1869  1.950   1_455 S
O1285  C1349   1.281   .     A
O1286  C1350   1.283   .     S
O1287  C1351   1.283   .     A
O1288  C1352   1.284   .     A
O1290  C110    1.282   1_565 A
O1291  C1971   1.283   .     S
O1292  C1972   1.282   1_455 S
O1293  C1973   1.282   1_455 S
O1294  C1354   1.283   .     A
O1295  C1355   1.284   .     A
O1297  C1973   1.283   1_455 S
O1298  C1354   1.281   .     A
O1299  C1355   1.282   .     A
O1301  C1357   1.281   .     A
O1302  C1358   1.282   .     A
O1303  C1359   1.283   .     A
O1304  C1360   1.281   .     A
O1305  C1361   1.282   .     A
O1306  C1362   1.283   .     A
O1307  C1363   1.283   .     A
O1308  C1364   1.278   .     A
O1309  C1365   1.285   .     A
O1310  C1366   1.284   .     A
O1311  C1367   1.283   .     A
O1312  C1368   1.283   .     A
O1313  C1369   1.285   .     A
O1314  C1370   1.286   .     A
O1315  C1371   1.283   .     A
O1316  C1372   1.283   .     A
O1317  C1367   1.285   .     A
O1317  Zn1864  1.940   .     S
O1318  C1368   1.282   .     A
O1319  C1365   1.283   .     A
O1319  Zn6     1.941   1_565 S
O1320  C1366   1.284   .     A
O1321  C1371   1.285   .     A
O1322  C1372   1.284   .     A
O1322  Zn1867  1.941   .     S
O1323  C1369   1.282   .     A
O1324  C1370   1.279   .     A
O1324  Zn1     1.941   1_565 S
O1325  C1359   1.282   .     A
O1325  Zn1863  1.942   .     S
O1326  C1360   1.283   .     A
O1327  C1357   1.281   .     A
O1328  C1358   1.279   .     A
O1328  Zn2     1.941   1_565 S
O1329  C1363   1.280   .     A
O1330  C1364   1.282   .     A
O1330  Zn1868  1.941   .     S
O1331  C1361   1.282   .     A
O1331  Zn5     1.940   1_565 S
O1332  C1362   1.280   .     A
C1333  C1405   1.412   .     A
C1333  N1461   1.435   .     S
C1333  C1338   1.404   .     A
C1334  N1464   1.435   .     S
C1334  C1337   1.403   .     A
C1334  C1406   1.411   .     A
C1335  C1340   1.403   .     A
C1335  C1407   1.410   .     A
C1335  N1467   1.435   .     S
C1336  C1339   1.405   .     A
C1336  C1408   1.413   .     A
C1336  N1470   1.436   .     S
C1337  C1409   1.411   .     A
C1337  N1473   1.435   .     S
C1338  N1476   1.436   .     S
C1338  C1410   1.413   .     A
C1339  N1479   1.436   .     S
C1339  C1411   1.412   .     A
C1340  N1482   1.434   .     S
C1340  C1412   1.412   .     A
C1341  N1485   1.436   .     S
C1341  C1413   1.413   .     A
C1341  C1346   1.405   1_556 S
C1342  N1488   1.435   .     S
C1342  C1414   1.411   .     A
C1342  C1345   1.403   1_554 S
C1343  N1491   1.436   .     S
C1343  C1415   1.413   .     A
C1343  C1348   1.405   1_556 S
C1344  C1416   1.410   .     A
C1344  N1494   1.433   .     S
C1344  C1347   1.402   1_554 S
C1345  C1417   1.411   .     A
C1345  N1497   1.435   .     S
C1345  C1342   1.403   1_556 S
C1346  C1418   1.412   .     A
C1346  N1500   1.436   .     S
C1346  C1341   1.405   1_554 S
C1347  C1419   1.411   .     A
C1347  N1503   1.434   .     S
C1347  C1344   1.402   1_556 S
C1348  C1420   1.412   .     A
C1348  N1506   1.435   .     S
C1348  C1343   1.405   1_554 S
C1349  O49     1.283   1_565 S
C1351  O1911   1.283   1_455 S
C1352  C1894   1.461   .     S
C1352  O1912   1.282   .     S
C1353  O1917   1.283   .     S
C1353  O1913   1.282   .     S
C1354  C1900   1.460   1_455 S
C1356  O60     1.283   1_565 S
C1356  O56     1.283   1_565 S
C1357  C1439   1.456   .     S
C1358  C1440   1.453   .     S
C1359  C1441   1.458   .     S
C1360  C1442   1.456   .     S
C1361  C1443   1.457   .     S
C1362  C1444   1.455   .     S
C1363  C1437   1.458   .     S
C1364  C1438   1.453   .     S
C1365  C1447   1.464   .     S
C1366  C1448   1.462   .     S
C1367  C1449   1.464   .     S
C1368  C1450   1.461   .     S
C1369  C1451   1.465   .     S
C1370  C1452   1.462   .     S
C1371  C1445   1.463   .     S
C1372  C1446   1.461   .     S
C1373  O1509   1.387   .     S
C1373  C1388   1.390   .     A
C1373  C1452   1.416   .     A
C1374  C1451   1.412   .     A
C1374  O1520   1.383   .     S
C1374  C1387   1.395   .     A
C1375  C1386   1.394   .     A
C1375  C1450   1.411   .     A
C1375  O1531   1.385   .     S
C1376  O1542   1.380   .     S
C1376  C1449   1.408   .     A
C1376  C1385   1.397   .     A
C1377  O1553   1.386   .     S
C1377  C1384   1.395   .     A
C1377  C1448   1.411   .     A
C1378  O1564   1.385   .     S
C1378  C1383   1.396   .     A
C1378  C1447   1.414   .     A
C1379  C1382   1.396   .     A
C1379  C1446   1.410   .     A
C1379  O1575   1.385   .     S
C1380  C1445   1.411   .     A
C1380  O1586   1.384   .     S
C1380  C1381   1.397   .     A
C1381  C1444   1.405   .     A
C1381  O1597   1.384   .     S
C1382  O1608   1.385   .     S
C1382  C1443   1.409   .     A
C1383  O1619   1.382   .     S
C1383  C1442   1.403   .     A
C1384  C1441   1.410   .     A
C1384  O1630   1.384   .     S
C1385  O1641   1.386   .     S
C1385  C1440   1.405   .     A
C1386  O1652   1.384   .     S
C1386  C1439   1.409   .     A
C1387  C1438   1.408   .     A
C1387  O1663   1.387   .     S
C1388  C1437   1.410   .     A
C1388  O1674   1.384   .     S
C1389  C1404   1.397   .     A
C1389  O1685   1.386   .     S
C1389  C1438   1.405   .     A
C1390  C1403   1.396   .     A
C1390  O1696   1.384   .     S
C1390  C1437   1.410   .     A
C1391  O1707   1.387   .     S
C1391  C1440   1.408   .     A
C1391  C1402   1.394   .     A
C1392  O1718   1.384   .     S
C1392  C1401   1.395   .     A
C1392  C1439   1.409   .     A
C1393  O1729   1.384   .     S
C1393  C1400   1.397   .     A
C1393  C1442   1.405   .     A
C1394  C1441   1.409   .     A
C1394  O1740   1.384   .     S
C1394  C1399   1.395   .     A
C1395  C1398   1.396   .     A
C1395  O1751   1.382   .     S
C1395  C1444   1.403   .     A
C1396  C1443   1.409   .     A
C1396  O1762   1.384   .     S
C1396  C1397   1.395   .     A
C1397  O1773   1.386   .     S
C1397  C1446   1.412   .     A
C1398  O1784   1.385   .     S
C1398  C1445   1.414   .     A
C1399  O1795   1.385   .     S
C1399  C1448   1.411   .     A
C1400  O1806   1.384   .     S
C1400  C1447   1.411   .     A
C1401  C1450   1.411   .     A
C1401  O1817   1.385   .     S
C1402  O1828   1.383   .     S
C1402  C1449   1.411   .     A
C1403  O1839   1.385   .     S
C1403  C1452   1.411   .     A
C1404  C1451   1.408   .     A
C1404  O1850   1.380   .     S
C1405  C1453   1.417   .     A
C1406  C2074   1.417   .     S
C1408  C1456   1.417   .     A
C1409  C2073   1.417   .     S
C1410  C1454   1.417   .     A
C1411  C1455   1.417   .     A
C1413  C1457   1.417   .     A
C1415  C2079   1.417   1_455 S
C1416  C1460   1.416   .     A
C1418  C1458   1.417   .     A
C1419  C1459   1.417   .     A
C1420  C2080   1.416   1_455 S
C1453  C1454   1.403   .     A
C1453  C2029   1.417   1_455 S
C1454  C2026   1.417   1_455 S
C1455  C1456   1.403   .     A
C1455  C167    1.417   1_565 S
C1456  C172    1.417   1_565 S
C1457  C177    1.417   1_565 S
C1457  C1458   1.403   1_556 S
C1458  C174    1.417   1_565 S
C1458  C1457   1.403   1_554 S
C1459  C2035   1.417   .     S
C1459  C1460   1.403   1_556 S
C1460  C2040   1.416   .     S
C1460  C1459   1.403   1_554 S
N1461  O1462   1.301   .     A
N1461  O1463   1.301   .     A
N1464  O1465   1.301   .     A
N1464  O1466   1.301   .     A
N1467  O1469   1.301   .     A
N1467  O1468   1.301   .     A
N1470  O1471   1.301   .     A
N1470  O1472   1.301   .     A
N1473  O1474   1.301   .     A
N1473  O1475   1.301   .     A
N1476  O1478   1.301   .     A
N1476  O1477   1.301   .     A
N1479  O1481   1.301   .     A
N1479  O1480   1.301   .     A
N1482  O1484   1.301   .     A
N1482  O1483   1.301   .     A
N1485  O1486   1.301   .     A
N1485  O247    1.301   1_565 S
N1488  O1490   1.301   .     A
O1489  N248    1.301   1_565 S
N1491  O1492   1.301   .     A
N1491  O2113   1.301   1_455 S
O1493  N2111   1.301   .     S
N1494  O1496   1.301   .     A
N1494  O2115   1.300   .     S
O1495  N2114   1.300   1_455 S
N1497  O1498   1.301   .     A
N1497  O1499   1.301   .     A
N1500  O1502   1.301   .     A
N1500  O261    1.301   1_565 S
N1503  O1505   1.301   .     A
N1503  O1504   1.301   .     A
N1506  O1508   1.301   .     A
N1506  O2127   1.301   1_455 S
O1507  N2126   1.301   .     S
O1509  C1510   1.420   .     S
C1510  H1512   1.118   .     S
C1510  C1513   1.530   .     S
C1510  H1511   1.112   .     S
C1513  C1516   1.527   .     S
C1513  H1514   1.112   .     S
C1513  H1515   1.110   .     S
C1516  H1518   1.109   .     S
C1516  H277    1.111   1_565 S
C1516  H279    1.111   1_565 S
O1520  C1521   1.419   .     S
C1521  C1524   1.529   .     S
C1521  H1522   1.112   .     S
C1521  H1523   1.119   .     S
C1524  H1525   1.110   .     S
C1524  C1527   1.526   .     S
C1524  H1526   1.110   .     S
C1527  H1530   1.111   .     S
C1527  H1529   1.109   .     S
C1527  H1528   1.110   .     S
O1531  C1532   1.414   .     S
C1532  H1533   1.117   .     S
C1532  H1534   1.112   .     S
C1532  C1535   1.527   .     S
C1535  H1536   1.111   .     S
C1535  H1537   1.111   .     S
C1535  C2158   1.525   1_455 S
C1538  H1540   1.110   .     S
C1538  H1541   1.110   .     S
C1538  C2155   1.525   .     S
C1538  H2159   1.110   .     S
H1539  C2158   1.110   1_455 S
O1542  C1543   1.411   .     S
C1543  H1545   1.114   .     S
C1543  H1544   1.116   .     S
C1543  C1546   1.525   .     S
C1546  C1549   1.522   .     S
C1546  H1548   1.110   .     S
C1546  H2167   1.112   .     S
H1547  C2166   1.112   1_455 S
C1549  H1550   1.111   .     S
C1549  H1552   1.108   .     S
C1549  H2171   1.110   .     S
H1551  C2169   1.110   1_455 S
O1553  C1554   1.414   .     S
C1554  H1555   1.117   .     S
C1554  H1556   1.110   .     S
C1554  C1557   1.528   .     S
C1557  H1559   1.111   .     S
C1557  H1558   1.111   .     S
C1560  H1563   1.110   .     S
C1560  H1562   1.110   .     S
C1560  C317    1.525   1_565 S
C1560  H321    1.111   1_565 S
O1564  C1565   1.418   .     S
C1565  H1567   1.118   .     S
C1565  H1566   1.111   .     S
C1565  C1568   1.526   .     S
C1568  H1570   1.108   .     S
C1568  H1569   1.111   .     S
C1568  C1571   1.526   .     S
C1571  H1574   1.110   .     S
C1571  H1572   1.111   .     S
C1571  H1573   1.110   .     S
O1575  C1576   1.415   .     S
C1576  C1579   1.526   .     S
C1576  H1577   1.112   .     S
C1576  H1578   1.114   .     S
C1579  C1582   1.524   .     S
C1579  H1580   1.111   .     S
C1579  H1581   1.112   .     S
C1582  H1583   1.109   .     S
C1582  H1584   1.109   .     S
C1582  H2205   1.110   .     S
H1585  C2202   1.110   1_455 S
O1586  C1587   1.419   .     S
C1587  C1590   1.528   .     S
C1587  H1588   1.111   .     S
C1587  H1589   1.119   .     S
C1590  H1591   1.110   .     S
C1590  C1593   1.525   .     S
C1590  H1592   1.110   .     S
C1593  H1595   1.110   .     S
C1593  H1594   1.110   .     S
C1593  H1596   1.110   .     S
O1597  C1598   1.417   .     S
C1598  H1599   1.111   .     S
C1598  C1601   1.527   .     S
C1598  H1600   1.119   .     S
C1601  C1604   1.526   .     S
C1601  H1603   1.111   .     S
C1601  H1602   1.111   .     S
C1604  H1605   1.111   .     S
H1606  C364    1.110   1_565 S
H1607  C364    1.111   1_565 S
O1608  C1609   1.411   .     S
C1609  C1612   1.528   .     S
C1609  H1611   1.115   .     S
C1609  H1610   1.114   .     S
C1612  H1613   1.110   .     S
C1612  C1615   1.525   .     S
C1612  H1614   1.111   .     S
C1615  H1616   1.111   .     S
C1615  H1618   1.111   .     S
C1615  H1617   1.111   .     S
O1619  C1620   1.417   .     S
C1620  H1621   1.119   .     S
C1620  C1623   1.525   .     S
C1620  H1622   1.111   .     S
C1623  H2244   1.111   1_455 S
C1623  H2245   1.105   1_455 S
C1623  C2246   1.525   1_455 S
H1624  C2243   1.111   .     S
H1625  C2243   1.105   .     S
C1626  H1628   1.111   .     S
C1626  H1627   1.111   .     S
C1626  C2243   1.525   .     S
C1626  H2249   1.111   .     S
H1629  C2246   1.111   1_455 S
O1630  C1631   1.411   .     S
C1631  C1634   1.528   .     S
C1631  H1632   1.115   .     S
C1631  H1633   1.115   .     S
C1634  H1635   1.111   .     S
C1634  H1636   1.112   .     S
C1634  C1637   1.526   .     S
C1637  H1639   1.110   .     S
C1637  H1638   1.111   .     S
C1637  H1640   1.111   .     S
O1641  C1642   1.419   .     S
C1642  H1643   1.112   .     S
C1642  H1644   1.118   .     S
C1642  C1645   1.529   .     S
C1645  C1648   1.526   .     S
C1645  H1647   1.110   .     S
C1645  H406    1.106   1_565 S
C1648  H1649   1.106   .     S
C1648  H410    1.109   1_565 S
C1648  H411    1.109   1_565 S
O1652  C1653   1.411   .     S
C1653  H1655   1.115   .     S
C1653  H1654   1.115   .     S
C1653  C1656   1.528   .     S
C1656  H1657   1.111   .     S
C1656  C1659   1.526   .     S
C1656  H1658   1.112   .     S
C1659  H1662   1.111   .     S
C1659  H1660   1.111   .     S
C1659  H1661   1.110   .     S
O1663  C1664   1.423   .     S
C1664  H1665   1.109   .     S
C1664  C1667   1.542   .     S
C1664  H1666   1.110   .     S
C1667  H1668   1.108   .     S
C1667  H1669   1.112   .     S
C1667  C1670   1.526   .     S
C1670  H1672   1.110   .     S
C1670  H1673   1.111   .     S
C1670  H1671   1.111   .     S
O1674  C1675   1.411   .     S
C1675  H1677   1.115   .     S
C1675  C1678   1.528   .     S
C1675  H1676   1.115   .     S
C1678  H1679   1.111   .     S
C1678  C1681   1.526   .     S
C1678  H1680   1.112   .     S
C1681  H1684   1.111   .     S
C1681  H1683   1.110   .     S
C1681  H1682   1.111   .     S
O1685  C1686   1.419   .     S
C1686  C1689   1.529   .     S
C1686  H1688   1.118   .     S
C1686  H1687   1.112   .     S
C1689  H1691   1.110   .     S
C1689  H1690   1.106   .     S
C1689  C1692   1.526   .     S
C1692  H1695   1.109   .     S
C1692  H1693   1.106   .     S
C1692  H1694   1.109   .     S
O1696  C1697   1.412   .     S
C1697  H1698   1.115   .     S
C1697  C1700   1.528   .     S
C1697  H1699   1.115   .     S
C1700  H1702   1.111   .     S
C1700  H1701   1.110   .     S
C1700  C1703   1.526   .     S
C1703  H1706   1.111   .     S
C1703  H1704   1.111   .     S
C1703  H1705   1.110   .     S
O1707  C1708   1.423   .     S
C1708  H1710   1.110   .     S
C1708  H1709   1.109   .     S
C1708  C1711   1.542   .     S
C1711  H1713   1.112   .     S
C1711  H1712   1.108   .     S
C1711  C1714   1.526   .     S
C1714  H1715   1.111   .     S
C1714  H1716   1.110   .     S
C1714  H1717   1.111   .     S
O1718  C1719   1.411   .     S
C1719  H1720   1.115   .     S
C1719  C1722   1.528   .     S
C1719  H1721   1.115   .     S
C1722  H1724   1.112   .     S
C1722  C1725   1.526   .     S
C1722  H1723   1.110   .     S
C1725  H1726   1.111   .     S
C1725  H1728   1.111   .     S
C1725  H1727   1.110   .     S
O1729  C1730   1.417   .     S
C1730  C1733   1.527   .     S
C1730  H1731   1.111   .     S
C1730  H1732   1.119   .     S
C1733  H1734   1.111   .     S
C1733  C1736   1.526   .     S
C1733  H1735   1.111   .     S
C1736  H1739   1.111   .     S
C1736  H1738   1.110   .     S
C1736  H1737   1.111   .     S
O1740  C1741   1.411   .     S
C1741  H1742   1.114   .     S
C1741  C1744   1.528   .     S
C1741  H1743   1.115   .     S
C1744  H1745   1.110   .     S
C1744  C1747   1.526   .     S
C1744  H1746   1.112   .     S
C1747  H1749   1.111   .     S
C1747  H1750   1.111   .     S
C1747  H1748   1.111   .     S
O1751  C1752   1.417   .     S
C1752  H1753   1.119   .     S
C1752  C1755   1.525   .     S
C1752  H1754   1.111   .     S
C1755  C1758   1.525   .     S
C1755  H1756   1.111   .     S
C1755  H1757   1.105   .     S
C1758  H1759   1.111   .     S
C1758  H1761   1.111   .     S
C1758  H1760   1.111   .     S
O1762  C1763   1.411   .     S
C1763  C1766   1.528   .     S
C1763  H1764   1.115   .     S
C1763  H1765   1.115   .     S
C1766  H1768   1.112   .     S
C1766  C1769   1.526   .     S
C1766  H1767   1.111   .     S
C1769  H1770   1.111   .     S
C1769  H1772   1.111   .     S
C1769  H1771   1.110   .     S
O1773  C1774   1.414   .     S
C1774  H1775   1.117   .     S
C1774  C1777   1.527   .     S
C1774  H1776   1.110   .     S
C1777  C1780   1.526   .     S
C1777  H1779   1.111   .     S
C1777  H1778   1.111   .     S
C1780  H1781   1.111   .     S
C1780  H1783   1.110   .     S
C1780  H1782   1.110   .     S
O1784  C1785   1.418   .     S
C1785  C1788   1.526   .     S
C1785  H1787   1.118   .     S
C1785  H1786   1.111   .     S
C1788  H1790   1.108   .     S
C1788  C1791   1.526   .     S
C1788  H1789   1.111   .     S
C1791  H1794   1.110   .     S
C1791  H1793   1.110   .     S
C1791  H1792   1.111   .     S
O1795  C1796   1.414   .     S
C1796  H1797   1.116   .     S
C1796  H1798   1.110   .     S
C1796  C1799   1.527   .     S
C1799  C1802   1.525   .     S
C1799  H1801   1.111   .     S
C1799  H1800   1.111   .     S
C1802  H1804   1.110   .     S
C1802  H1805   1.110   .     S
C1802  H1803   1.111   .     S
O1806  C1807   1.419   .     S
C1807  H1808   1.111   .     S
C1807  C1810   1.528   .     S
C1807  H1809   1.119   .     S
C1810  H1812   1.110   .     S
C1810  C1813   1.525   .     S
C1810  H1811   1.110   .     S
C1813  H1815   1.110   .     S
C1813  H1816   1.110   .     S
C1813  H1814   1.110   .     S
O1817  C1818   1.413   .     S
C1818  H1820   1.110   .     S
C1818  C1821   1.527   .     S
C1818  H1819   1.116   .     S
C1821  C1824   1.525   .     S
C1821  H1822   1.111   .     S
C1821  H1823   1.111   .     S
C1824  H1825   1.111   .     S
C1824  H1827   1.110   .     S
C1824  H1826   1.110   .     S
O1828  C1829   1.419   .     S
C1829  H1830   1.112   .     S
C1829  C1832   1.529   .     S
C1829  H1831   1.119   .     S
C1832  H1833   1.110   .     S
C1832  C1835   1.526   .     S
C1832  H1834   1.110   .     S
C1835  H1838   1.111   .     S
C1835  H1836   1.110   .     S
C1835  H1837   1.109   .     S
O1839  C1840   1.413   .     S
C1840  H1841   1.116   .     S
C1840  C1843   1.527   .     S
C1840  H1842   1.110   .     S
C1843  H1844   1.111   .     S
C1843  H1845   1.112   .     S
C1843  C1846   1.525   .     S
C1846  H1849   1.110   .     S
C1846  H1847   1.111   .     S
C1846  H1848   1.110   .     S
O1850  C1851   1.411   .     S
C1851  H1853   1.114   .     S
C1851  C1854   1.525   .     S
C1851  H1852   1.116   .     S
C1854  C1857   1.522   .     S
C1854  H1856   1.110   .     S
C1854  H1855   1.112   .     S
C1857  H1858   1.111   .     S
C1857  H1860   1.108   .     S
C1857  H1859   1.110   .     S
Zn1861 O1947   1.941   .     S
Zn1861 O1916   1.950   .     S
Zn1861 O1901   1.950   .     S
Zn1862 O1943   1.941   .     S
Zn1862 O1915   1.950   .     S
Zn1862 O1902   1.950   .     S
Zn1863 O1918   1.949   .     S
Zn1863 O1938   1.940   .     S
Zn1863 O1903   1.951   .     S
Zn1864 O1946   1.942   .     S
Zn1864 O1904   1.951   .     S
Zn1864 O1917   1.949   .     S
Zn1865 O1920   1.949   .     S
Zn1865 O1940   1.941   .     S
Zn1865 O1901   1.954   .     S
Zn1866 O1902   1.954   .     S
Zn1866 O1919   1.949   .     S
Zn1866 O1952   1.940   .     S
Zn1867 O1903   1.950   .     S
Zn1867 O1914   1.950   .     S
Zn1867 O1949   1.941   .     S
Zn1868 O1941   1.941   .     S
Zn1868 O1913   1.950   .     S
Zn1868 O1904   1.950   .     S
Zn1869 O1908   1.950   .     S
Zn1869 O1931   1.941   .     S
Zn1869 O1928   1.941   .     S
Zn1869 O1284   1.950   1_655 S
Zn1870 O1907   1.950   .     S
Zn1870 O1932   1.941   .     S
Zn1870 O1927   1.941   .     S
Zn1870 O1903   1.950   .     S
Zn1871 O1922   1.940   .     S
Zn1871 O1929   1.942   .     S
Zn1871 O1910   1.949   .     S
Zn1871 O662    1.951   1_565 S
Zn1872 O1909   1.949   .     S
Zn1872 O1930   1.942   .     S
Zn1872 O1921   1.940   .     S
Zn1872 O1901   1.951   .     S
Zn1873 O1904   1.954   .     S
Zn1873 O1935   1.940   .     S
Zn1873 O1912   1.949   .     S
Zn1873 O1924   1.941   .     S
Zn1874 O1936   1.940   .     S
Zn1874 O1923   1.941   .     S
Zn1874 O1911   1.949   .     S
Zn1874 O1283   1.954   1_655 S
Zn1875 O1926   1.941   .     S
Zn1875 O1902   1.950   .     S
Zn1875 O1906   1.950   .     S
Zn1875 O1933   1.941   .     S
Zn1876 O1905   1.950   .     S
Zn1876 O1925   1.941   .     S
Zn1876 O1934   1.941   .     S
Zn1876 O661    1.950   1_565 S
C1877  H2041   1.082   .     S
C1877  C2029   1.397   .     A
C1877  C1273   1.396   1_655 S
C1878  C2030   1.399   .     A
C1878  C1894   1.397   .     A
C1878  H2042   1.082   .     S
C1879  C1895   1.396   .     A
C1879  C2031   1.398   .     A
C1879  H2043   1.082   .     S
C1880  H2044   1.081   .     S
C1880  C2032   1.399   .     A
C1881  C1893   1.396   .     A
C1881  C2025   1.399   .     A
C1881  H2045   1.082   .     S
C1882  C2026   1.398   .     A
C1882  H2046   1.082   .     S
C1882  C1274   1.396   1_655 S
C1883  C2027   1.397   .     A
C1883  H2047   1.082   .     S
C1884  C1896   1.397   .     A
C1884  H2048   1.082   .     S
C1884  C2028   1.399   .     A
C1885  H2049   1.082   .     S
C1885  C2037   1.398   .     A
C1885  C1897   1.395   .     A
C1886  C2038   1.399   .     A
C1886  C1898   1.396   .     A
C1886  H2050   1.082   .     S
C1887  C2039   1.398   .     A
C1887  C1899   1.396   .     A
C1887  H2051   1.081   .     S
C1888  C2040   1.399   .     A
C1888  H2052   1.082   .     S
C1889  H2053   1.082   .     S
C1889  C2033   1.399   .     A
C1889  C657    1.397   1_565 S
C1890  C2034   1.397   .     A
C1890  H2054   1.082   .     S
C1891  H2055   1.082   .     S
C1891  C2035   1.399   .     A
C1892  H2056   1.082   .     S
C1892  C2036   1.397   .     A
C1892  C1900   1.395   .     A
C1893  C1971   1.460   .     S
C1895  C1969   1.459   .     S
C1895  C643    1.394   1_565 S
C1896  C730    1.462   1_565 S
C1896  C640    1.397   1_565 S
C1897  C1975   1.461   .     S
C1898  C1976   1.460   .     S
C1898  C650    1.395   1_565 S
C1899  C1973   1.462   .     S
C1899  C1271   1.397   1_655 S
C1900  C1268   1.397   1_655 S
C1900  C1354   1.460   1_655 S
O1905  C1969   1.281   .     A
O1906  C1970   1.283   .     S
O1907  C1971   1.283   .     A
O1908  C1972   1.284   .     A
O1910  C730    1.282   1_565 A
O1911  C1351   1.283   1_655 S
O1914  C1974   1.283   .     A
O1915  C1975   1.284   .     A
O1918  C1974   1.281   .     A
O1919  C1975   1.282   .     A
O1921  C1977   1.281   .     A
O1922  C1978   1.282   .     A
O1923  C1979   1.283   .     A
O1924  C1980   1.281   .     A
O1925  C1981   1.282   .     A
O1926  C1982   1.283   .     A
O1927  C1983   1.283   .     A
O1928  C1984   1.278   .     A
O1929  C1985   1.285   .     A
O1930  C1986   1.284   .     A
O1931  C1987   1.283   .     A
O1932  C1988   1.283   .     A
O1933  C1989   1.285   .     A
O1934  C1990   1.286   .     A
O1935  C1991   1.283   .     A
O1936  C1992   1.283   .     A
O1937  C1987   1.285   .     A
O1937  Zn1244  1.940   1_655 S
O1938  C1988   1.282   .     A
O1939  C1985   1.283   .     A
O1939  Zn626   1.941   1_565 S
O1940  C1986   1.284   .     A
O1941  C1991   1.285   .     A
O1942  C1992   1.284   .     A
O1942  Zn1247  1.941   1_655 S
O1943  C1989   1.282   .     A
O1944  C1990   1.279   .     A
O1944  Zn621   1.941   1_565 S
O1945  C1979   1.282   .     A
O1945  Zn1243  1.942   1_655 S
O1946  C1980   1.283   .     A
O1947  C1977   1.281   .     A
O1948  C1978   1.279   .     A
O1948  Zn622   1.941   1_565 S
O1949  C1983   1.280   .     A
O1950  C1984   1.282   .     A
O1950  Zn1248  1.941   1_655 S
O1951  C1981   1.282   .     A
O1951  Zn625   1.940   1_565 S
O1952  C1982   1.280   .     A
C1953  C2025   1.412   .     A
C1953  N2081   1.435   .     S
C1953  C1958   1.404   .     A
C1954  N2084   1.435   .     S
C1954  C1957   1.403   .     A
C1954  C2026   1.411   .     A
C1955  C1960   1.403   .     A
C1955  C2027   1.410   .     A
C1955  N2087   1.435   .     S
C1956  C1959   1.405   .     A
C1956  C2028   1.413   .     A
C1956  N2090   1.436   .     S
C1957  C2029   1.411   .     A
C1957  N2093   1.435   .     S
C1958  N2096   1.436   .     S
C1958  C2030   1.413   .     A
C1959  N2099   1.436   .     S
C1959  C2031   1.412   .     A
C1960  N2102   1.434   .     S
C1960  C2032   1.412   .     A
C1961  N2105   1.436   .     S
C1961  C2033   1.413   .     A
C1961  C1966   1.405   1_556 S
C1962  N2108   1.435   .     S
C1962  C2034   1.411   .     A
C1962  C1965   1.403   1_554 S
C1963  N2111   1.436   .     S
C1963  C2035   1.413   .     A
C1963  C1968   1.405   1_556 S
C1964  C2036   1.410   .     A
C1964  N2114   1.433   .     S
C1964  C1967   1.402   1_554 S
C1965  C2037   1.411   .     A
C1965  N2117   1.435   .     S
C1965  C1962   1.403   1_556 S
C1966  C2038   1.412   .     A
C1966  N2120   1.436   .     S
C1966  C1961   1.405   1_554 S
C1967  C2039   1.411   .     A
C1967  N2123   1.434   .     S
C1967  C1964   1.402   1_556 S
C1968  C2040   1.412   .     A
C1968  N2126   1.435   .     S
C1968  C1963   1.405   1_554 S
C1969  O669    1.283   1_565 S
C1972  C1274   1.461   1_655 S
C1972  O1292   1.282   1_655 S
C1973  O1297   1.283   1_655 S
C1973  O1293   1.282   1_655 S
C1976  O680    1.283   1_565 S
C1976  O676    1.283   1_565 S
C1977  C2059   1.456   .     S
C1978  C2060   1.453   .     S
C1979  C2061   1.458   .     S
C1980  C2062   1.456   .     S
C1981  C2063   1.457   .     S
C1982  C2064   1.455   .     S
C1983  C2057   1.458   .     S
C1984  C2058   1.453   .     S
C1985  C2067   1.464   .     S
C1986  C2068   1.462   .     S
C1987  C2069   1.464   .     S
C1988  C2070   1.461   .     S
C1989  C2071   1.465   .     S
C1990  C2072   1.462   .     S
C1991  C2065   1.463   .     S
C1992  C2066   1.461   .     S
C1993  O2129   1.387   .     S
C1993  C2008   1.390   .     A
C1993  C2072   1.416   .     A
C1994  C2071   1.412   .     A
C1994  O2140   1.383   .     S
C1994  C2007   1.395   .     A
C1995  C2006   1.394   .     A
C1995  C2070   1.411   .     A
C1995  O2151   1.385   .     S
C1996  O2162   1.380   .     S
C1996  C2069   1.408   .     A
C1996  C2005   1.397   .     A
C1997  O2173   1.386   .     S
C1997  C2004   1.395   .     A
C1997  C2068   1.411   .     A
C1998  O2184   1.385   .     S
C1998  C2003   1.396   .     A
C1998  C2067   1.414   .     A
C1999  C2002   1.396   .     A
C1999  C2066   1.410   .     A
C1999  O2195   1.385   .     S
C2000  C2065   1.411   .     A
C2000  O2206   1.384   .     S
C2000  C2001   1.397   .     A
C2001  C2064   1.405   .     A
C2001  O2217   1.384   .     S
C2002  O2228   1.385   .     S
C2002  C2063   1.409   .     A
C2003  O2239   1.382   .     S
C2003  C2062   1.403   .     A
C2004  C2061   1.410   .     A
C2004  O2250   1.384   .     S
C2005  O2261   1.386   .     S
C2005  C2060   1.405   .     A
C2006  O2272   1.384   .     S
C2006  C2059   1.409   .     A
C2007  C2058   1.408   .     A
C2007  O2283   1.387   .     S
C2008  C2057   1.410   .     A
C2008  O2294   1.384   .     S
C2009  C2024   1.397   .     A
C2009  O2305   1.386   .     S
C2009  C2058   1.405   .     A
C2010  C2023   1.396   .     A
C2010  O2316   1.384   .     S
C2010  C2057   1.410   .     A
C2011  O2327   1.387   .     S
C2011  C2060   1.408   .     A
C2011  C2022   1.394   .     A
C2012  O2338   1.384   .     S
C2012  C2021   1.395   .     A
C2012  C2059   1.409   .     A
C2013  O2349   1.384   .     S
C2013  C2020   1.397   .     A
C2013  C2062   1.405   .     A
C2014  C2061   1.409   .     A
C2014  O2360   1.384   .     S
C2014  C2019   1.395   .     A
C2015  C2018   1.396   .     A
C2015  O2371   1.382   .     S
C2015  C2064   1.403   .     A
C2016  C2063   1.409   .     A
C2016  O2382   1.384   .     S
C2016  C2017   1.395   .     A
C2017  O2393   1.386   .     S
C2017  C2066   1.412   .     A
C2018  O2404   1.385   .     S
C2018  C2065   1.414   .     A
C2019  O2415   1.385   .     S
C2019  C2068   1.411   .     A
C2020  O2426   1.384   .     S
C2020  C2067   1.411   .     A
C2021  C2070   1.411   .     A
C2021  O2437   1.385   .     S
C2022  O2448   1.383   .     S
C2022  C2069   1.411   .     A
C2023  O2459   1.385   .     S
C2023  C2072   1.411   .     A
C2024  C2071   1.408   .     A
C2024  O2470   1.380   .     S
C2025  C2073   1.417   .     A
C2026  C1454   1.417   1_655 S
C2028  C2076   1.417   .     A
C2029  C1453   1.417   1_655 S
C2030  C2074   1.417   .     A
C2031  C2075   1.417   .     A
C2033  C2077   1.417   .     A
C2036  C2080   1.416   .     A
C2038  C2078   1.417   .     A
C2039  C2079   1.417   .     A
C2073  C2074   1.403   .     A
C2075  C2076   1.403   .     A
C2075  C787    1.417   1_565 S
C2076  C792    1.417   1_565 S
C2077  C797    1.417   1_565 S
C2077  C2078   1.403   1_556 S
C2078  C794    1.417   1_565 S
C2078  C2077   1.403   1_554 S
C2079  C1415   1.417   1_655 S
C2079  C2080   1.403   1_556 S
C2080  C1420   1.416   1_655 S
C2080  C2079   1.403   1_554 S
N2081  O2082   1.301   .     A
N2081  O2083   1.301   .     A
N2084  O2085   1.301   .     A
N2084  O2086   1.301   .     A
N2087  O2089   1.301   .     A
N2087  O2088   1.301   .     A
N2090  O2091   1.301   .     A
N2090  O2092   1.301   .     A
N2093  O2094   1.301   .     A
N2093  O2095   1.301   .     A
N2096  O2098   1.301   .     A
N2096  O2097   1.301   .     A
N2099  O2101   1.301   .     A
N2099  O2100   1.301   .     A
N2102  O2104   1.301   .     A
N2102  O2103   1.301   .     A
N2105  O2106   1.301   .     A
N2105  O867    1.301   1_565 S
N2108  O2110   1.301   .     A
O2109  N868    1.301   1_565 S
N2111  O2112   1.301   .     A
O2113  N1491   1.301   1_655 S
N2114  O2116   1.301   .     A
N2114  O1495   1.300   1_655 S
N2117  O2118   1.301   .     A
N2117  O2119   1.301   .     A
N2120  O2122   1.301   .     A
N2120  O881    1.301   1_565 S
N2123  O2125   1.301   .     A
N2123  O2124   1.301   .     A
N2126  O2128   1.301   .     A
O2127  N1506   1.301   1_655 S
O2129  C2130   1.420   .     S
C2130  H2132   1.118   .     S
C2130  C2133   1.530   .     S
C2130  H2131   1.112   .     S
C2133  C2136   1.527   .     S
C2133  H2134   1.112   .     S
C2133  H2135   1.110   .     S
C2136  H2138   1.109   .     S
C2136  H897    1.111   1_565 S
C2136  H899    1.111   1_565 S
O2140  C2141   1.419   .     S
C2141  C2144   1.529   .     S
C2141  H2142   1.112   .     S
C2141  H2143   1.119   .     S
C2144  H2145   1.110   .     S
C2144  C2147   1.526   .     S
C2144  H2146   1.110   .     S
C2147  H2150   1.111   .     S
C2147  H2149   1.109   .     S
C2147  H2148   1.110   .     S
O2151  C2152   1.414   .     S
C2152  H2153   1.117   .     S
C2152  H2154   1.112   .     S
C2152  C2155   1.527   .     S
C2155  H2156   1.111   .     S
C2155  H2157   1.111   .     S
C2158  H2160   1.110   .     S
C2158  H2161   1.110   .     S
C2158  C1535   1.525   1_655 S
C2158  H1539   1.110   1_655 S
O2162  C2163   1.411   .     S
C2163  H2165   1.114   .     S
C2163  H2164   1.116   .     S
C2163  C2166   1.525   .     S
C2166  C2169   1.522   .     S
C2166  H2168   1.110   .     S
C2166  H1547   1.112   1_655 S
C2169  H2170   1.111   .     S
C2169  H2172   1.108   .     S
C2169  H1551   1.110   1_655 S
O2173  C2174   1.414   .     S
C2174  H2175   1.117   .     S
C2174  H2176   1.110   .     S
C2174  C2177   1.528   .     S
C2177  H2179   1.111   .     S
C2177  H2178   1.111   .     S
C2180  H2183   1.110   .     S
C2180  H2182   1.110   .     S
C2180  C937    1.525   1_565 S
C2180  H941    1.111   1_565 S
O2184  C2185   1.418   .     S
C2185  H2187   1.118   .     S
C2185  H2186   1.111   .     S
C2185  C2188   1.526   .     S
C2188  H2190   1.108   .     S
C2188  H2189   1.111   .     S
C2188  C2191   1.526   .     S
C2191  H2194   1.110   .     S
C2191  H2192   1.111   .     S
C2191  H2193   1.110   .     S
O2195  C2196   1.415   .     S
C2196  C2199   1.526   .     S
C2196  H2197   1.112   .     S
C2196  H2198   1.114   .     S
C2199  C2202   1.524   .     S
C2199  H2200   1.111   .     S
C2199  H2201   1.112   .     S
C2202  H2203   1.109   .     S
C2202  H2204   1.109   .     S
C2202  H1585   1.110   1_655 S
O2206  C2207   1.419   .     S
C2207  C2210   1.528   .     S
C2207  H2208   1.111   .     S
C2207  H2209   1.119   .     S
C2210  H2211   1.110   .     S
C2210  C2213   1.525   .     S
C2210  H2212   1.110   .     S
C2213  H2215   1.110   .     S
C2213  H2214   1.110   .     S
C2213  H2216   1.110   .     S
O2217  C2218   1.417   .     S
C2218  H2219   1.111   .     S
C2218  C2221   1.527   .     S
C2218  H2220   1.119   .     S
C2221  C2224   1.526   .     S
C2221  H2223   1.111   .     S
C2221  H2222   1.111   .     S
C2224  H2225   1.111   .     S
H2226  C984    1.110   1_565 S
H2227  C984    1.111   1_565 S
O2228  C2229   1.411   .     S
C2229  C2232   1.528   .     S
C2229  H2231   1.115   .     S
C2229  H2230   1.114   .     S
C2232  H2233   1.110   .     S
C2232  C2235   1.525   .     S
C2232  H2234   1.111   .     S
C2235  H2236   1.111   .     S
C2235  H2238   1.111   .     S
C2235  H2237   1.111   .     S
O2239  C2240   1.417   .     S
C2240  H2241   1.119   .     S
C2240  C2243   1.525   .     S
C2240  H2242   1.111   .     S
H2244  C1623   1.111   1_655 S
H2245  C1623   1.105   1_655 S
C2246  H2248   1.111   .     S
C2246  H2247   1.111   .     S
C2246  C1623   1.525   1_655 S
C2246  H1629   1.111   1_655 S
O2250  C2251   1.411   .     S
C2251  C2254   1.528   .     S
C2251  H2252   1.115   .     S
C2251  H2253   1.115   .     S
C2254  H2255   1.111   .     S
C2254  H2256   1.112   .     S
C2254  C2257   1.526   .     S
C2257  H2259   1.110   .     S
C2257  H2258   1.111   .     S
C2257  H2260   1.111   .     S
O2261  C2262   1.419   .     S
C2262  H2263   1.112   .     S
C2262  H2264   1.118   .     S
C2262  C2265   1.529   .     S
C2265  C2268   1.526   .     S
C2265  H2267   1.110   .     S
C2265  H1026   1.106   1_565 S
C2268  H2269   1.106   .     S
C2268  H1030   1.109   1_565 S
C2268  H1031   1.109   1_565 S
O2272  C2273   1.411   .     S
C2273  H2275   1.115   .     S
C2273  H2274   1.115   .     S
C2273  C2276   1.528   .     S
C2276  H2277   1.111   .     S
C2276  C2279   1.526   .     S
C2276  H2278   1.112   .     S
C2279  H2282   1.111   .     S
C2279  H2280   1.111   .     S
C2279  H2281   1.110   .     S
O2283  C2284   1.423   .     S
C2284  H2285   1.109   .     S
C2284  C2287   1.542   .     S
C2284  H2286   1.110   .     S
C2287  H2288   1.108   .     S
C2287  H2289   1.112   .     S
C2287  C2290   1.526   .     S
C2290  H2292   1.110   .     S
C2290  H2293   1.111   .     S
C2290  H2291   1.111   .     S
O2294  C2295   1.411   .     S
C2295  H2297   1.115   .     S
C2295  C2298   1.528   .     S
C2295  H2296   1.115   .     S
C2298  H2299   1.111   .     S
C2298  C2301   1.526   .     S
C2298  H2300   1.112   .     S
C2301  H2304   1.111   .     S
C2301  H2303   1.110   .     S
C2301  H2302   1.111   .     S
O2305  C2306   1.419   .     S
C2306  C2309   1.529   .     S
C2306  H2308   1.118   .     S
C2306  H2307   1.112   .     S
C2309  H2311   1.110   .     S
C2309  H2310   1.106   .     S
C2309  C2312   1.526   .     S
C2312  H2315   1.109   .     S
C2312  H2313   1.106   .     S
C2312  H2314   1.109   .     S
O2316  C2317   1.412   .     S
C2317  H2318   1.115   .     S
C2317  C2320   1.528   .     S
C2317  H2319   1.115   .     S
C2320  H2322   1.111   .     S
C2320  H2321   1.110   .     S
C2320  C2323   1.526   .     S
C2323  H2326   1.111   .     S
C2323  H2324   1.111   .     S
C2323  H2325   1.110   .     S
O2327  C2328   1.423   .     S
C2328  H2330   1.110   .     S
C2328  H2329   1.109   .     S
C2328  C2331   1.542   .     S
C2331  H2333   1.112   .     S
C2331  H2332   1.108   .     S
C2331  C2334   1.526   .     S
C2334  H2335   1.111   .     S
C2334  H2336   1.110   .     S
C2334  H2337   1.111   .     S
O2338  C2339   1.411   .     S
C2339  H2340   1.115   .     S
C2339  C2342   1.528   .     S
C2339  H2341   1.115   .     S
C2342  H2344   1.112   .     S
C2342  C2345   1.526   .     S
C2342  H2343   1.110   .     S
C2345  H2346   1.111   .     S
C2345  H2348   1.111   .     S
C2345  H2347   1.110   .     S
O2349  C2350   1.417   .     S
C2350  C2353   1.527   .     S
C2350  H2351   1.111   .     S
C2350  H2352   1.119   .     S
C2353  H2354   1.111   .     S
C2353  C2356   1.526   .     S
C2353  H2355   1.111   .     S
C2356  H2359   1.111   .     S
C2356  H2358   1.110   .     S
C2356  H2357   1.111   .     S
O2360  C2361   1.411   .     S
C2361  H2362   1.114   .     S
C2361  C2364   1.528   .     S
C2361  H2363   1.115   .     S
C2364  H2365   1.110   .     S
C2364  C2367   1.526   .     S
C2364  H2366   1.112   .     S
C2367  H2369   1.111   .     S
C2367  H2370   1.111   .     S
C2367  H2368   1.111   .     S
O2371  C2372   1.417   .     S
C2372  H2373   1.119   .     S
C2372  C2375   1.525   .     S
C2372  H2374   1.111   .     S
C2375  C2378   1.525   .     S
C2375  H2376   1.111   .     S
C2375  H2377   1.105   .     S
C2378  H2379   1.111   .     S
C2378  H2381   1.111   .     S
C2378  H2380   1.111   .     S
O2382  C2383   1.411   .     S
C2383  C2386   1.528   .     S
C2383  H2384   1.115   .     S
C2383  H2385   1.115   .     S
C2386  H2388   1.112   .     S
C2386  C2389   1.526   .     S
C2386  H2387   1.111   .     S
C2389  H2390   1.111   .     S
C2389  H2392   1.111   .     S
C2389  H2391   1.110   .     S
O2393  C2394   1.414   .     S
C2394  H2395   1.117   .     S
C2394  C2397   1.527   .     S
C2394  H2396   1.110   .     S
C2397  C2400   1.526   .     S
C2397  H2399   1.111   .     S
C2397  H2398   1.111   .     S
C2400  H2401   1.111   .     S
C2400  H2403   1.110   .     S
C2400  H2402   1.110   .     S
O2404  C2405   1.418   .     S
C2405  C2408   1.526   .     S
C2405  H2407   1.118   .     S
C2405  H2406   1.111   .     S
C2408  H2410   1.108   .     S
C2408  C2411   1.526   .     S
C2408  H2409   1.111   .     S
C2411  H2414   1.110   .     S
C2411  H2413   1.110   .     S
C2411  H2412   1.111   .     S
O2415  C2416   1.414   .     S
C2416  H2417   1.116   .     S
C2416  H2418   1.110   .     S
C2416  C2419   1.527   .     S
C2419  C2422   1.525   .     S
C2419  H2421   1.111   .     S
C2419  H2420   1.111   .     S
C2422  H2424   1.110   .     S
C2422  H2425   1.110   .     S
C2422  H2423   1.111   .     S
O2426  C2427   1.419   .     S
C2427  H2428   1.111   .     S
C2427  C2430   1.528   .     S
C2427  H2429   1.119   .     S
C2430  H2432   1.110   .     S
C2430  C2433   1.525   .     S
C2430  H2431   1.110   .     S
C2433  H2435   1.110   .     S
C2433  H2436   1.110   .     S
C2433  H2434   1.110   .     S
O2437  C2438   1.413   .     S
C2438  H2440   1.110   .     S
C2438  C2441   1.527   .     S
C2438  H2439   1.116   .     S
C2441  C2444   1.525   .     S
C2441  H2442   1.111   .     S
C2441  H2443   1.111   .     S
C2444  H2445   1.111   .     S
C2444  H2447   1.110   .     S
C2444  H2446   1.110   .     S
O2448  C2449   1.419   .     S
C2449  H2450   1.112   .     S
C2449  C2452   1.529   .     S
C2449  H2451   1.119   .     S
C2452  H2453   1.110   .     S
C2452  C2455   1.526   .     S
C2452  H2454   1.110   .     S
C2455  H2458   1.111   .     S
C2455  H2456   1.110   .     S
C2455  H2457   1.109   .     S
O2459  C2460   1.413   .     S
C2460  H2461   1.116   .     S
C2460  C2463   1.527   .     S
C2460  H2462   1.110   .     S
C2463  H2464   1.111   .     S
C2463  H2465   1.112   .     S
C2463  C2466   1.525   .     S
C2466  H2469   1.110   .     S
C2466  H2467   1.111   .     S
C2466  H2468   1.110   .     S
O2470  C2471   1.411   .     S
C2471  H2473   1.114   .     S
C2471  C2474   1.525   .     S
C2471  H2472   1.116   .     S
C2474  C2477   1.522   .     S
C2474  H2476   1.110   .     S
C2474  H2475   1.112   .     S
C2477  H2478   1.111   .     S
C2477  H2480   1.108   .     S
C2477  H2479   1.110   .     S
