data_str_m2_o10_o18_pcu_sym.159
_audit_creation_date              2020-01-03
_audit_creation_method            'Materials Studio'
_symmetry_space_group_name_H-M    'P1'
_symmetry_Int_Tables_number       1
_symmetry_cell_setting            triclinic
loop_
_symmetry_equiv_pos_as_xyz
  x,y,z
_cell_length_a                    22.8371
_cell_length_b                    25.9979
_cell_length_c                    31.6694
_cell_angle_alpha                 97.3154
_cell_angle_beta                  76.4410
_cell_angle_gamma                 102.2203
loop_
_atom_site_label
_atom_site_type_symbol
_atom_site_fract_x
_atom_site_fract_y
_atom_site_fract_z
_atom_site_U_iso_or_equiv
_atom_site_adp_type
_atom_site_occupancy
C1     C     0.18046   0.26642   0.25275   0.00000  Uiso   1.00
C2     C     0.15287   0.06691   0.24725   0.00000  Uiso   1.00
C3     C     0.09299   0.14487   0.03919   0.00000  Uiso   1.00
C4     C     0.23478   0.20929   0.46534   0.00000  Uiso   1.00
C5     C     0.05145   0.13337   0.01213   0.00000  Uiso   1.00
C6     C     0.27596   0.22202   0.49268   0.00000  Uiso   1.00
C7     C     0.18353   0.32223   0.25936   0.00000  Uiso   1.00
C8     C     0.14980   0.01110   0.24064   0.00000  Uiso   1.00
C9     C     0.12916   0.16289   0.33262   0.00000  Uiso   1.00
C10    C     0.20419   0.17103   0.16748   0.00000  Uiso   1.00
C11    C     0.10734   0.15892   0.37969   0.00000  Uiso   1.00
C12    C     0.22584   0.17916   0.12106   0.00000  Uiso   1.00
C13    C     0.02737   0.13107   0.44170   0.00000  Uiso   1.00
C14    C     0.30165   0.21998   0.06200   0.00000  Uiso   1.00
C15    C     0.04573   0.13909   0.39757   0.00000  Uiso   1.00
C16    C     0.28515   0.20627   0.10483   0.00000  Uiso   1.00
C17    C     0.14965   0.17298   0.40664   0.00000  Uiso   1.00
C18    C     0.18411   0.16424   0.09379   0.00000  Uiso   1.00
C19    C     0.13196   0.16685   0.45156   0.00000  Uiso   1.00
C20    C     0.19872   0.17927   0.05093   0.00000  Uiso   1.00
C21    C     0.07009   0.14388   0.46858   0.00000  Uiso   1.00
C22    C     0.25896   0.20698   0.03506   0.00000  Uiso   1.00
C23    C     0.17435   0.18121   0.47962   0.00000  Uiso   1.00
C24    C     0.15523   0.16793   0.02366   0.00000  Uiso   1.00
Cu25   Cu    0.10737   0.16108   0.24516   0.00000  Uiso   1.00
Cu26   Cu    0.22596   0.17225   0.25483   0.00000  Uiso   1.00
H27    H     0.00422   0.11587   0.02545   0.00000  Uiso   1.00
H28    H     0.32170   0.24370   0.48040   0.00000  Uiso   1.00
H29    H     0.14032   0.14100   0.10716   0.00000  Uiso   1.00
H30    H     0.19669   0.18692   0.39139   0.00000  Uiso   1.00
H31    H     0.31809   0.21825   0.12555   0.00000  Uiso   1.00
H32    H     0.01221   0.12809   0.37726   0.00000  Uiso   1.00
H33    H     0.31318   0.11421   0.45474   0.00000  Uiso   1.00
H34    H     0.01429   0.24139   0.05005   0.00000  Uiso   1.00
H35    H     0.07395   0.13628   0.07253   0.00000  Uiso   1.00
H36    H     0.25156   0.22362   0.43346   0.00000  Uiso   1.00
H37    H     0.21062   0.01138   0.28180   0.00000  Uiso   1.00
H38    H     0.12270   0.32195   0.21820   0.00000  Uiso   1.00
N39    N     0.31506   0.18068   0.26212   0.00000  Uiso   1.00
N40    N     0.01827   0.15265   0.23788   0.00000  Uiso   1.00
O41    O     0.12815   0.23809   0.24686   0.00000  Uiso   1.00
O42    O     0.20518   0.09524   0.25314   0.00000  Uiso   1.00
O43    O     0.22829   0.24753   0.25502   0.00000  Uiso   1.00
O44    O     0.10504   0.08580   0.24497   0.00000  Uiso   1.00
O45    O     0.08851   0.15930   0.30854   0.00000  Uiso   1.00
O46    O     0.24482   0.17403   0.19145   0.00000  Uiso   1.00
O47    O     0.18866   0.16874   0.31671   0.00000  Uiso   1.00
O48    O     0.14468   0.16460   0.18329   0.00000  Uiso   1.00
S49    S     0.00320   0.24069   0.29075   0.00000  Uiso   1.00
O50    O     0.04988   0.24155   0.31713   0.00000  Uiso   1.00
O51    O     0.02511   0.28267   0.25931   0.00000  Uiso   1.00
O52    O     0.27428   0.25603   0.32638   0.00000  Uiso   1.00
H53    H     0.28633   0.29368   0.33635   0.00000  Uiso   1.00
S54    S     0.33011   0.09263   0.20926   0.00000  Uiso   1.00
O55    O     0.30817   0.05067   0.24071   0.00000  Uiso   1.00
O56    O     0.28346   0.09179   0.18286   0.00000  Uiso   1.00
O57    O     0.05903   0.07726   0.17365   0.00000  Uiso   1.00
H58    H     0.04705   0.03954   0.16383   0.00000  Uiso   1.00
C59    C     0.51379   0.26642   0.25275   0.00000  Uiso   1.00
C60    C     0.48621   0.06691   0.24725   0.00000  Uiso   1.00
C61    C     0.42632   0.14487   0.03919   0.00000  Uiso   1.00
C62    C     0.56811   0.20929   0.46534   0.00000  Uiso   1.00
C63    C     0.38478   0.13337   0.01213   0.00000  Uiso   1.00
C64    C     0.60930   0.22202   0.49268   0.00000  Uiso   1.00
C65    C     0.51687   0.32223   0.25936   0.00000  Uiso   1.00
C66    C     0.48313   0.01110   0.24064   0.00000  Uiso   1.00
C67    C     0.46250   0.16289   0.33262   0.00000  Uiso   1.00
C68    C     0.53752   0.17103   0.16748   0.00000  Uiso   1.00
C69    C     0.44068   0.15892   0.37969   0.00000  Uiso   1.00
C70    C     0.55917   0.17916   0.12106   0.00000  Uiso   1.00
C71    C     0.36070   0.13107   0.44170   0.00000  Uiso   1.00
C72    C     0.63498   0.21998   0.06200   0.00000  Uiso   1.00
C73    C     0.37907   0.13909   0.39757   0.00000  Uiso   1.00
C74    C     0.61848   0.20627   0.10483   0.00000  Uiso   1.00
C75    C     0.48298   0.17298   0.40664   0.00000  Uiso   1.00
C76    C     0.51744   0.16424   0.09379   0.00000  Uiso   1.00
C77    C     0.46529   0.16685   0.45156   0.00000  Uiso   1.00
C78    C     0.53205   0.17927   0.05093   0.00000  Uiso   1.00
C79    C     0.40343   0.14388   0.46858   0.00000  Uiso   1.00
C80    C     0.59230   0.20698   0.03506   0.00000  Uiso   1.00
C81    C     0.50768   0.18121   0.47962   0.00000  Uiso   1.00
C82    C     0.48856   0.16793   0.02366   0.00000  Uiso   1.00
Cu83   Cu    0.44071   0.16108   0.24516   0.00000  Uiso   1.00
Cu84   Cu    0.55929   0.17225   0.25483   0.00000  Uiso   1.00
H85    H     0.33755   0.11587   0.02545   0.00000  Uiso   1.00
H86    H     0.65504   0.24370   0.48040   0.00000  Uiso   1.00
H87    H     0.47365   0.14100   0.10716   0.00000  Uiso   1.00
H88    H     0.53002   0.18692   0.39139   0.00000  Uiso   1.00
H89    H     0.65142   0.21825   0.12555   0.00000  Uiso   1.00
H90    H     0.34554   0.12809   0.37726   0.00000  Uiso   1.00
H91    H     0.64651   0.11421   0.45474   0.00000  Uiso   1.00
H92    H     0.34763   0.24139   0.05005   0.00000  Uiso   1.00
H93    H     0.40729   0.13628   0.07253   0.00000  Uiso   1.00
H94    H     0.58489   0.22362   0.43346   0.00000  Uiso   1.00
H95    H     0.54396   0.01138   0.28180   0.00000  Uiso   1.00
H96    H     0.45603   0.32195   0.21820   0.00000  Uiso   1.00
N97    N     0.64839   0.18068   0.26212   0.00000  Uiso   1.00
N98    N     0.35161   0.15265   0.23788   0.00000  Uiso   1.00
O99    O     0.46148   0.23809   0.24686   0.00000  Uiso   1.00
O100   O     0.53852   0.09524   0.25314   0.00000  Uiso   1.00
O101   O     0.56163   0.24753   0.25502   0.00000  Uiso   1.00
O102   O     0.43837   0.08580   0.24497   0.00000  Uiso   1.00
O103   O     0.42185   0.15930   0.30854   0.00000  Uiso   1.00
O104   O     0.57815   0.17403   0.19145   0.00000  Uiso   1.00
O105   O     0.52199   0.16874   0.31671   0.00000  Uiso   1.00
O106   O     0.47801   0.16460   0.18329   0.00000  Uiso   1.00
S107   S     0.33654   0.24069   0.29075   0.00000  Uiso   1.00
O108   O     0.38321   0.24155   0.31713   0.00000  Uiso   1.00
O109   O     0.35845   0.28267   0.25931   0.00000  Uiso   1.00
O110   O     0.60761   0.25603   0.32638   0.00000  Uiso   1.00
H111   H     0.61966   0.29368   0.33635   0.00000  Uiso   1.00
S112   S     0.66345   0.09263   0.20926   0.00000  Uiso   1.00
O113   O     0.64151   0.05067   0.24071   0.00000  Uiso   1.00
O114   O     0.61679   0.09179   0.18286   0.00000  Uiso   1.00
O115   O     0.39236   0.07726   0.17365   0.00000  Uiso   1.00
H116   H     0.38038   0.03954   0.16383   0.00000  Uiso   1.00
C117   C     0.84713   0.26642   0.25275   0.00000  Uiso   1.00
C118   C     0.81954   0.06691   0.24725   0.00000  Uiso   1.00
C119   C     0.75966   0.14487   0.03919   0.00000  Uiso   1.00
C120   C     0.90145   0.20929   0.46534   0.00000  Uiso   1.00
C121   C     0.71811   0.13337   0.01213   0.00000  Uiso   1.00
C122   C     0.94263   0.22202   0.49268   0.00000  Uiso   1.00
C123   C     0.85020   0.32223   0.25936   0.00000  Uiso   1.00
C124   C     0.81646   0.01110   0.24064   0.00000  Uiso   1.00
C125   C     0.79583   0.16289   0.33262   0.00000  Uiso   1.00
C126   C     0.87086   0.17103   0.16748   0.00000  Uiso   1.00
C127   C     0.77401   0.15892   0.37969   0.00000  Uiso   1.00
C128   C     0.89250   0.17916   0.12106   0.00000  Uiso   1.00
C129   C     0.69404   0.13107   0.44170   0.00000  Uiso   1.00
C130   C     0.96832   0.21998   0.06200   0.00000  Uiso   1.00
C131   C     0.71240   0.13909   0.39757   0.00000  Uiso   1.00
C132   C     0.95182   0.20627   0.10483   0.00000  Uiso   1.00
C133   C     0.81631   0.17298   0.40664   0.00000  Uiso   1.00
C134   C     0.85078   0.16424   0.09379   0.00000  Uiso   1.00
C135   C     0.79863   0.16685   0.45156   0.00000  Uiso   1.00
C136   C     0.86539   0.17927   0.05093   0.00000  Uiso   1.00
C137   C     0.73676   0.14388   0.46858   0.00000  Uiso   1.00
C138   C     0.92563   0.20698   0.03506   0.00000  Uiso   1.00
C139   C     0.84102   0.18121   0.47962   0.00000  Uiso   1.00
C140   C     0.82190   0.16793   0.02366   0.00000  Uiso   1.00
Cu141  Cu    0.77404   0.16108   0.24516   0.00000  Uiso   1.00
Cu142  Cu    0.89263   0.17225   0.25483   0.00000  Uiso   1.00
H143   H     0.67088   0.11587   0.02545   0.00000  Uiso   1.00
H144   H     0.98837   0.24370   0.48040   0.00000  Uiso   1.00
H145   H     0.80699   0.14100   0.10716   0.00000  Uiso   1.00
H146   H     0.86336   0.18692   0.39139   0.00000  Uiso   1.00
H147   H     0.98475   0.21825   0.12555   0.00000  Uiso   1.00
H148   H     0.67887   0.12809   0.37726   0.00000  Uiso   1.00
H149   H     0.97984   0.11421   0.45474   0.00000  Uiso   1.00
H150   H     0.68096   0.24139   0.05005   0.00000  Uiso   1.00
H151   H     0.74062   0.13628   0.07253   0.00000  Uiso   1.00
H152   H     0.91823   0.22362   0.43346   0.00000  Uiso   1.00
H153   H     0.87729   0.01138   0.28180   0.00000  Uiso   1.00
H154   H     0.78937   0.32195   0.21820   0.00000  Uiso   1.00
N155   N     0.98173   0.18068   0.26212   0.00000  Uiso   1.00
N156   N     0.68494   0.15265   0.23788   0.00000  Uiso   1.00
O157   O     0.79482   0.23809   0.24686   0.00000  Uiso   1.00
O158   O     0.87185   0.09524   0.25314   0.00000  Uiso   1.00
O159   O     0.89496   0.24753   0.25502   0.00000  Uiso   1.00
O160   O     0.77171   0.08580   0.24497   0.00000  Uiso   1.00
O161   O     0.75518   0.15930   0.30854   0.00000  Uiso   1.00
O162   O     0.91149   0.17403   0.19145   0.00000  Uiso   1.00
O163   O     0.85532   0.16874   0.31671   0.00000  Uiso   1.00
O164   O     0.81134   0.16460   0.18329   0.00000  Uiso   1.00
S165   S     0.66987   0.24069   0.29075   0.00000  Uiso   1.00
O166   O     0.71654   0.24155   0.31713   0.00000  Uiso   1.00
O167   O     0.69178   0.28267   0.25931   0.00000  Uiso   1.00
O168   O     0.94095   0.25603   0.32638   0.00000  Uiso   1.00
H169   H     0.95300   0.29368   0.33635   0.00000  Uiso   1.00
S170   S     0.99678   0.09263   0.20926   0.00000  Uiso   1.00
O171   O     0.97484   0.05067   0.24071   0.00000  Uiso   1.00
O172   O     0.95012   0.09179   0.18286   0.00000  Uiso   1.00
O173   O     0.72570   0.07726   0.17365   0.00000  Uiso   1.00
H174   H     0.71371   0.03954   0.16383   0.00000  Uiso   1.00
C175   C     0.18046   0.59976   0.25275   0.00000  Uiso   1.00
C176   C     0.15287   0.40024   0.24725   0.00000  Uiso   1.00
C177   C     0.09299   0.47820   0.03919   0.00000  Uiso   1.00
C178   C     0.23478   0.54263   0.46534   0.00000  Uiso   1.00
C179   C     0.05145   0.46671   0.01213   0.00000  Uiso   1.00
C180   C     0.27596   0.55535   0.49268   0.00000  Uiso   1.00
C181   C     0.18353   0.65556   0.25936   0.00000  Uiso   1.00
C182   C     0.14980   0.34443   0.24064   0.00000  Uiso   1.00
C183   C     0.12916   0.49622   0.33262   0.00000  Uiso   1.00
C184   C     0.20419   0.50436   0.16748   0.00000  Uiso   1.00
C185   C     0.10734   0.49226   0.37969   0.00000  Uiso   1.00
C186   C     0.22584   0.51250   0.12106   0.00000  Uiso   1.00
C187   C     0.02737   0.46440   0.44170   0.00000  Uiso   1.00
C188   C     0.30165   0.55332   0.06200   0.00000  Uiso   1.00
C189   C     0.04573   0.47242   0.39757   0.00000  Uiso   1.00
C190   C     0.28515   0.53961   0.10483   0.00000  Uiso   1.00
C191   C     0.14965   0.50631   0.40664   0.00000  Uiso   1.00
C192   C     0.18411   0.49757   0.09379   0.00000  Uiso   1.00
C193   C     0.13196   0.50018   0.45156   0.00000  Uiso   1.00
C194   C     0.19872   0.51261   0.05093   0.00000  Uiso   1.00
C195   C     0.07009   0.47721   0.46858   0.00000  Uiso   1.00
C196   C     0.25896   0.54031   0.03506   0.00000  Uiso   1.00
C197   C     0.17435   0.51455   0.47962   0.00000  Uiso   1.00
C198   C     0.15523   0.50126   0.02366   0.00000  Uiso   1.00
Cu199  Cu    0.10737   0.49441   0.24516   0.00000  Uiso   1.00
Cu200  Cu    0.22596   0.50559   0.25483   0.00000  Uiso   1.00
H201   H     0.00422   0.44920   0.02545   0.00000  Uiso   1.00
H202   H     0.32170   0.57703   0.48040   0.00000  Uiso   1.00
H203   H     0.14032   0.47433   0.10716   0.00000  Uiso   1.00
H204   H     0.19669   0.52025   0.39139   0.00000  Uiso   1.00
H205   H     0.31809   0.55159   0.12555   0.00000  Uiso   1.00
H206   H     0.01221   0.46143   0.37726   0.00000  Uiso   1.00
H207   H     0.31318   0.44754   0.45474   0.00000  Uiso   1.00
H208   H     0.01429   0.57472   0.05005   0.00000  Uiso   1.00
H209   H     0.07395   0.46961   0.07253   0.00000  Uiso   1.00
H210   H     0.25156   0.55695   0.43346   0.00000  Uiso   1.00
H211   H     0.21062   0.34471   0.28180   0.00000  Uiso   1.00
H212   H     0.12270   0.65528   0.21820   0.00000  Uiso   1.00
N213   N     0.31506   0.51401   0.26212   0.00000  Uiso   1.00
N214   N     0.01827   0.48599   0.23788   0.00000  Uiso   1.00
O215   O     0.12815   0.57142   0.24686   0.00000  Uiso   1.00
O216   O     0.20518   0.42858   0.25314   0.00000  Uiso   1.00
O217   O     0.22829   0.58086   0.25502   0.00000  Uiso   1.00
O218   O     0.10504   0.41914   0.24497   0.00000  Uiso   1.00
O219   O     0.08851   0.49263   0.30854   0.00000  Uiso   1.00
O220   O     0.24482   0.50737   0.19145   0.00000  Uiso   1.00
O221   O     0.18866   0.50207   0.31671   0.00000  Uiso   1.00
O222   O     0.14468   0.49793   0.18329   0.00000  Uiso   1.00
S223   S     0.00320   0.57403   0.29075   0.00000  Uiso   1.00
O224   O     0.04988   0.57489   0.31713   0.00000  Uiso   1.00
O225   O     0.02511   0.61601   0.25931   0.00000  Uiso   1.00
O226   O     0.27428   0.58937   0.32638   0.00000  Uiso   1.00
H227   H     0.28633   0.62702   0.33635   0.00000  Uiso   1.00
S228   S     0.33011   0.42597   0.20926   0.00000  Uiso   1.00
O229   O     0.30817   0.38401   0.24071   0.00000  Uiso   1.00
O230   O     0.28346   0.42512   0.18286   0.00000  Uiso   1.00
O231   O     0.05903   0.41059   0.17365   0.00000  Uiso   1.00
H232   H     0.04705   0.37288   0.16383   0.00000  Uiso   1.00
C233   C     0.51379   0.59976   0.25275   0.00000  Uiso   1.00
C234   C     0.48621   0.40024   0.24725   0.00000  Uiso   1.00
C235   C     0.42632   0.47820   0.03919   0.00000  Uiso   1.00
C236   C     0.56811   0.54263   0.46534   0.00000  Uiso   1.00
C237   C     0.38478   0.46671   0.01213   0.00000  Uiso   1.00
C238   C     0.60930   0.55535   0.49268   0.00000  Uiso   1.00
C239   C     0.51687   0.65556   0.25936   0.00000  Uiso   1.00
C240   C     0.48313   0.34443   0.24064   0.00000  Uiso   1.00
C241   C     0.46250   0.49622   0.33262   0.00000  Uiso   1.00
C242   C     0.53752   0.50436   0.16748   0.00000  Uiso   1.00
C243   C     0.44068   0.49226   0.37969   0.00000  Uiso   1.00
C244   C     0.55917   0.51250   0.12106   0.00000  Uiso   1.00
C245   C     0.36070   0.46440   0.44170   0.00000  Uiso   1.00
C246   C     0.63498   0.55332   0.06200   0.00000  Uiso   1.00
C247   C     0.37907   0.47242   0.39757   0.00000  Uiso   1.00
C248   C     0.61848   0.53961   0.10483   0.00000  Uiso   1.00
C249   C     0.48298   0.50631   0.40664   0.00000  Uiso   1.00
C250   C     0.51744   0.49757   0.09379   0.00000  Uiso   1.00
C251   C     0.46529   0.50018   0.45156   0.00000  Uiso   1.00
C252   C     0.53205   0.51261   0.05093   0.00000  Uiso   1.00
C253   C     0.40343   0.47721   0.46858   0.00000  Uiso   1.00
C254   C     0.59230   0.54031   0.03506   0.00000  Uiso   1.00
C255   C     0.50768   0.51455   0.47962   0.00000  Uiso   1.00
C256   C     0.48856   0.50126   0.02366   0.00000  Uiso   1.00
Cu257  Cu    0.44071   0.49441   0.24516   0.00000  Uiso   1.00
Cu258  Cu    0.55929   0.50559   0.25483   0.00000  Uiso   1.00
H259   H     0.33755   0.44920   0.02545   0.00000  Uiso   1.00
H260   H     0.65504   0.57703   0.48040   0.00000  Uiso   1.00
H261   H     0.47365   0.47433   0.10716   0.00000  Uiso   1.00
H262   H     0.53002   0.52025   0.39139   0.00000  Uiso   1.00
H263   H     0.65142   0.55159   0.12555   0.00000  Uiso   1.00
H264   H     0.34554   0.46143   0.37726   0.00000  Uiso   1.00
H265   H     0.64651   0.44754   0.45474   0.00000  Uiso   1.00
H266   H     0.34763   0.57472   0.05005   0.00000  Uiso   1.00
H267   H     0.40729   0.46961   0.07253   0.00000  Uiso   1.00
H268   H     0.58489   0.55695   0.43346   0.00000  Uiso   1.00
H269   H     0.54396   0.34471   0.28180   0.00000  Uiso   1.00
H270   H     0.45603   0.65528   0.21820   0.00000  Uiso   1.00
N271   N     0.64839   0.51401   0.26212   0.00000  Uiso   1.00
N272   N     0.35161   0.48599   0.23788   0.00000  Uiso   1.00
O273   O     0.46148   0.57142   0.24686   0.00000  Uiso   1.00
O274   O     0.53852   0.42858   0.25314   0.00000  Uiso   1.00
O275   O     0.56163   0.58086   0.25502   0.00000  Uiso   1.00
O276   O     0.43837   0.41914   0.24497   0.00000  Uiso   1.00
O277   O     0.42185   0.49263   0.30854   0.00000  Uiso   1.00
O278   O     0.57815   0.50737   0.19145   0.00000  Uiso   1.00
O279   O     0.52199   0.50207   0.31671   0.00000  Uiso   1.00
O280   O     0.47801   0.49793   0.18329   0.00000  Uiso   1.00
S281   S     0.33654   0.57403   0.29075   0.00000  Uiso   1.00
O282   O     0.38321   0.57489   0.31713   0.00000  Uiso   1.00
O283   O     0.35845   0.61601   0.25931   0.00000  Uiso   1.00
O284   O     0.60761   0.58937   0.32638   0.00000  Uiso   1.00
H285   H     0.61966   0.62702   0.33635   0.00000  Uiso   1.00
S286   S     0.66345   0.42597   0.20926   0.00000  Uiso   1.00
O287   O     0.64151   0.38401   0.24071   0.00000  Uiso   1.00
O288   O     0.61679   0.42512   0.18286   0.00000  Uiso   1.00
O289   O     0.39236   0.41059   0.17365   0.00000  Uiso   1.00
H290   H     0.38038   0.37288   0.16383   0.00000  Uiso   1.00
C291   C     0.84713   0.59976   0.25275   0.00000  Uiso   1.00
C292   C     0.81954   0.40024   0.24725   0.00000  Uiso   1.00
C293   C     0.75966   0.47820   0.03919   0.00000  Uiso   1.00
C294   C     0.90145   0.54263   0.46534   0.00000  Uiso   1.00
C295   C     0.71811   0.46671   0.01213   0.00000  Uiso   1.00
C296   C     0.94263   0.55535   0.49268   0.00000  Uiso   1.00
C297   C     0.85020   0.65556   0.25936   0.00000  Uiso   1.00
C298   C     0.81646   0.34443   0.24064   0.00000  Uiso   1.00
C299   C     0.79583   0.49622   0.33262   0.00000  Uiso   1.00
C300   C     0.87086   0.50436   0.16748   0.00000  Uiso   1.00
C301   C     0.77401   0.49226   0.37969   0.00000  Uiso   1.00
C302   C     0.89250   0.51250   0.12106   0.00000  Uiso   1.00
C303   C     0.69404   0.46440   0.44170   0.00000  Uiso   1.00
C304   C     0.96832   0.55332   0.06200   0.00000  Uiso   1.00
C305   C     0.71240   0.47242   0.39757   0.00000  Uiso   1.00
C306   C     0.95182   0.53961   0.10483   0.00000  Uiso   1.00
C307   C     0.81631   0.50631   0.40664   0.00000  Uiso   1.00
C308   C     0.85078   0.49757   0.09379   0.00000  Uiso   1.00
C309   C     0.79863   0.50018   0.45156   0.00000  Uiso   1.00
C310   C     0.86539   0.51261   0.05093   0.00000  Uiso   1.00
C311   C     0.73676   0.47721   0.46858   0.00000  Uiso   1.00
C312   C     0.92563   0.54031   0.03506   0.00000  Uiso   1.00
C313   C     0.84102   0.51455   0.47962   0.00000  Uiso   1.00
C314   C     0.82190   0.50126   0.02366   0.00000  Uiso   1.00
Cu315  Cu    0.77404   0.49441   0.24516   0.00000  Uiso   1.00
Cu316  Cu    0.89263   0.50559   0.25483   0.00000  Uiso   1.00
H317   H     0.67088   0.44920   0.02545   0.00000  Uiso   1.00
H318   H     0.98837   0.57703   0.48040   0.00000  Uiso   1.00
H319   H     0.80699   0.47433   0.10716   0.00000  Uiso   1.00
H320   H     0.86336   0.52025   0.39139   0.00000  Uiso   1.00
H321   H     0.98475   0.55159   0.12555   0.00000  Uiso   1.00
H322   H     0.67887   0.46143   0.37726   0.00000  Uiso   1.00
H323   H     0.97984   0.44754   0.45474   0.00000  Uiso   1.00
H324   H     0.68096   0.57472   0.05005   0.00000  Uiso   1.00
H325   H     0.74062   0.46961   0.07253   0.00000  Uiso   1.00
H326   H     0.91823   0.55695   0.43346   0.00000  Uiso   1.00
H327   H     0.87729   0.34471   0.28180   0.00000  Uiso   1.00
H328   H     0.78937   0.65528   0.21820   0.00000  Uiso   1.00
N329   N     0.98173   0.51401   0.26212   0.00000  Uiso   1.00
N330   N     0.68494   0.48599   0.23788   0.00000  Uiso   1.00
O331   O     0.79482   0.57142   0.24686   0.00000  Uiso   1.00
O332   O     0.87185   0.42858   0.25314   0.00000  Uiso   1.00
O333   O     0.89496   0.58086   0.25502   0.00000  Uiso   1.00
O334   O     0.77171   0.41914   0.24497   0.00000  Uiso   1.00
O335   O     0.75518   0.49263   0.30854   0.00000  Uiso   1.00
O336   O     0.91149   0.50737   0.19145   0.00000  Uiso   1.00
O337   O     0.85532   0.50207   0.31671   0.00000  Uiso   1.00
O338   O     0.81134   0.49793   0.18329   0.00000  Uiso   1.00
S339   S     0.66987   0.57403   0.29075   0.00000  Uiso   1.00
O340   O     0.71654   0.57489   0.31713   0.00000  Uiso   1.00
O341   O     0.69178   0.61601   0.25931   0.00000  Uiso   1.00
O342   O     0.94095   0.58937   0.32638   0.00000  Uiso   1.00
H343   H     0.95300   0.62702   0.33635   0.00000  Uiso   1.00
S344   S     0.99678   0.42597   0.20926   0.00000  Uiso   1.00
O345   O     0.97484   0.38401   0.24071   0.00000  Uiso   1.00
O346   O     0.95012   0.42512   0.18286   0.00000  Uiso   1.00
O347   O     0.72570   0.41059   0.17365   0.00000  Uiso   1.00
H348   H     0.71371   0.37288   0.16383   0.00000  Uiso   1.00
C349   C     0.18046   0.93309   0.25275   0.00000  Uiso   1.00
C350   C     0.15287   0.73358   0.24725   0.00000  Uiso   1.00
C351   C     0.09299   0.81153   0.03919   0.00000  Uiso   1.00
C352   C     0.23478   0.87596   0.46534   0.00000  Uiso   1.00
C353   C     0.05145   0.80004   0.01213   0.00000  Uiso   1.00
C354   C     0.27596   0.88869   0.49268   0.00000  Uiso   1.00
C355   C     0.18353   0.98890   0.25936   0.00000  Uiso   1.00
C356   C     0.14980   0.67777   0.24064   0.00000  Uiso   1.00
C357   C     0.12916   0.82955   0.33262   0.00000  Uiso   1.00
C358   C     0.20419   0.83770   0.16748   0.00000  Uiso   1.00
C359   C     0.10734   0.82559   0.37969   0.00000  Uiso   1.00
C360   C     0.22584   0.84583   0.12106   0.00000  Uiso   1.00
C361   C     0.02737   0.79773   0.44170   0.00000  Uiso   1.00
C362   C     0.30165   0.88665   0.06200   0.00000  Uiso   1.00
C363   C     0.04573   0.80575   0.39757   0.00000  Uiso   1.00
C364   C     0.28515   0.87294   0.10483   0.00000  Uiso   1.00
C365   C     0.14965   0.83964   0.40664   0.00000  Uiso   1.00
C366   C     0.18411   0.83091   0.09379   0.00000  Uiso   1.00
C367   C     0.13196   0.83352   0.45156   0.00000  Uiso   1.00
C368   C     0.19872   0.84594   0.05093   0.00000  Uiso   1.00
C369   C     0.07009   0.81054   0.46858   0.00000  Uiso   1.00
C370   C     0.25896   0.87364   0.03506   0.00000  Uiso   1.00
C371   C     0.17435   0.84788   0.47962   0.00000  Uiso   1.00
C372   C     0.15523   0.83460   0.02366   0.00000  Uiso   1.00
Cu373  Cu    0.10737   0.82775   0.24516   0.00000  Uiso   1.00
Cu374  Cu    0.22596   0.83892   0.25483   0.00000  Uiso   1.00
H375   H     0.00422   0.78254   0.02545   0.00000  Uiso   1.00
H376   H     0.32170   0.91036   0.48040   0.00000  Uiso   1.00
H377   H     0.14032   0.80766   0.10716   0.00000  Uiso   1.00
H378   H     0.19669   0.85359   0.39139   0.00000  Uiso   1.00
H379   H     0.31809   0.88492   0.12555   0.00000  Uiso   1.00
H380   H     0.01221   0.79476   0.37726   0.00000  Uiso   1.00
H381   H     0.31318   0.78088   0.45474   0.00000  Uiso   1.00
H382   H     0.01429   0.90805   0.05005   0.00000  Uiso   1.00
H383   H     0.07395   0.80294   0.07253   0.00000  Uiso   1.00
H384   H     0.25156   0.89029   0.43346   0.00000  Uiso   1.00
H385   H     0.21062   0.67804   0.28180   0.00000  Uiso   1.00
H386   H     0.12270   0.98862   0.21820   0.00000  Uiso   1.00
N387   N     0.31506   0.84735   0.26212   0.00000  Uiso   1.00
N388   N     0.01827   0.81932   0.23788   0.00000  Uiso   1.00
O389   O     0.12815   0.90476   0.24686   0.00000  Uiso   1.00
O390   O     0.20518   0.76191   0.25314   0.00000  Uiso   1.00
O391   O     0.22829   0.91420   0.25502   0.00000  Uiso   1.00
O392   O     0.10504   0.75247   0.24497   0.00000  Uiso   1.00
O393   O     0.08851   0.82597   0.30854   0.00000  Uiso   1.00
O394   O     0.24482   0.84070   0.19145   0.00000  Uiso   1.00
O395   O     0.18866   0.83540   0.31671   0.00000  Uiso   1.00
O396   O     0.14468   0.83126   0.18329   0.00000  Uiso   1.00
S397   S     0.00320   0.90736   0.29075   0.00000  Uiso   1.00
O398   O     0.04988   0.90822   0.31713   0.00000  Uiso   1.00
O399   O     0.02511   0.94934   0.25931   0.00000  Uiso   1.00
O400   O     0.27428   0.92270   0.32638   0.00000  Uiso   1.00
H401   H     0.28633   0.96035   0.33635   0.00000  Uiso   1.00
S402   S     0.33011   0.75930   0.20926   0.00000  Uiso   1.00
O403   O     0.30817   0.71734   0.24071   0.00000  Uiso   1.00
O404   O     0.28346   0.75846   0.18286   0.00000  Uiso   1.00
O405   O     0.05903   0.74392   0.17365   0.00000  Uiso   1.00
H406   H     0.04705   0.70621   0.16383   0.00000  Uiso   1.00
C407   C     0.51379   0.93309   0.25275   0.00000  Uiso   1.00
C408   C     0.48621   0.73358   0.24725   0.00000  Uiso   1.00
C409   C     0.42632   0.81153   0.03919   0.00000  Uiso   1.00
C410   C     0.56811   0.87596   0.46534   0.00000  Uiso   1.00
C411   C     0.38478   0.80004   0.01213   0.00000  Uiso   1.00
C412   C     0.60930   0.88869   0.49268   0.00000  Uiso   1.00
C413   C     0.51687   0.98890   0.25936   0.00000  Uiso   1.00
C414   C     0.48313   0.67777   0.24064   0.00000  Uiso   1.00
C415   C     0.46250   0.82955   0.33262   0.00000  Uiso   1.00
C416   C     0.53752   0.83770   0.16748   0.00000  Uiso   1.00
C417   C     0.44068   0.82559   0.37969   0.00000  Uiso   1.00
C418   C     0.55917   0.84583   0.12106   0.00000  Uiso   1.00
C419   C     0.36070   0.79773   0.44170   0.00000  Uiso   1.00
C420   C     0.63498   0.88665   0.06200   0.00000  Uiso   1.00
C421   C     0.37907   0.80575   0.39757   0.00000  Uiso   1.00
C422   C     0.61848   0.87294   0.10483   0.00000  Uiso   1.00
C423   C     0.48298   0.83964   0.40664   0.00000  Uiso   1.00
C424   C     0.51744   0.83091   0.09379   0.00000  Uiso   1.00
C425   C     0.46529   0.83352   0.45156   0.00000  Uiso   1.00
C426   C     0.53205   0.84594   0.05093   0.00000  Uiso   1.00
C427   C     0.40343   0.81054   0.46858   0.00000  Uiso   1.00
C428   C     0.59230   0.87364   0.03506   0.00000  Uiso   1.00
C429   C     0.50768   0.84788   0.47962   0.00000  Uiso   1.00
C430   C     0.48856   0.83460   0.02366   0.00000  Uiso   1.00
Cu431  Cu    0.44071   0.82775   0.24516   0.00000  Uiso   1.00
Cu432  Cu    0.55929   0.83892   0.25483   0.00000  Uiso   1.00
H433   H     0.33755   0.78254   0.02545   0.00000  Uiso   1.00
H434   H     0.65504   0.91036   0.48040   0.00000  Uiso   1.00
H435   H     0.47365   0.80766   0.10716   0.00000  Uiso   1.00
H436   H     0.53002   0.85359   0.39139   0.00000  Uiso   1.00
H437   H     0.65142   0.88492   0.12555   0.00000  Uiso   1.00
H438   H     0.34554   0.79476   0.37726   0.00000  Uiso   1.00
H439   H     0.64651   0.78088   0.45474   0.00000  Uiso   1.00
H440   H     0.34763   0.90805   0.05005   0.00000  Uiso   1.00
H441   H     0.40729   0.80294   0.07253   0.00000  Uiso   1.00
H442   H     0.58489   0.89029   0.43346   0.00000  Uiso   1.00
H443   H     0.54396   0.67804   0.28180   0.00000  Uiso   1.00
H444   H     0.45603   0.98862   0.21820   0.00000  Uiso   1.00
N445   N     0.64839   0.84735   0.26212   0.00000  Uiso   1.00
N446   N     0.35161   0.81932   0.23788   0.00000  Uiso   1.00
O447   O     0.46148   0.90476   0.24686   0.00000  Uiso   1.00
O448   O     0.53852   0.76191   0.25314   0.00000  Uiso   1.00
O449   O     0.56163   0.91420   0.25502   0.00000  Uiso   1.00
O450   O     0.43837   0.75247   0.24497   0.00000  Uiso   1.00
O451   O     0.42185   0.82597   0.30854   0.00000  Uiso   1.00
O452   O     0.57815   0.84070   0.19145   0.00000  Uiso   1.00
O453   O     0.52199   0.83540   0.31671   0.00000  Uiso   1.00
O454   O     0.47801   0.83126   0.18329   0.00000  Uiso   1.00
S455   S     0.33654   0.90736   0.29075   0.00000  Uiso   1.00
O456   O     0.38321   0.90822   0.31713   0.00000  Uiso   1.00
O457   O     0.35845   0.94934   0.25931   0.00000  Uiso   1.00
O458   O     0.60761   0.92270   0.32638   0.00000  Uiso   1.00
H459   H     0.61966   0.96035   0.33635   0.00000  Uiso   1.00
S460   S     0.66345   0.75930   0.20926   0.00000  Uiso   1.00
O461   O     0.64151   0.71734   0.24071   0.00000  Uiso   1.00
O462   O     0.61679   0.75846   0.18286   0.00000  Uiso   1.00
O463   O     0.39236   0.74392   0.17365   0.00000  Uiso   1.00
H464   H     0.38038   0.70621   0.16383   0.00000  Uiso   1.00
C465   C     0.84713   0.93309   0.25275   0.00000  Uiso   1.00
C466   C     0.81954   0.73358   0.24725   0.00000  Uiso   1.00
C467   C     0.75966   0.81153   0.03919   0.00000  Uiso   1.00
C468   C     0.90145   0.87596   0.46534   0.00000  Uiso   1.00
C469   C     0.71811   0.80004   0.01213   0.00000  Uiso   1.00
C470   C     0.94263   0.88869   0.49268   0.00000  Uiso   1.00
C471   C     0.85020   0.98890   0.25936   0.00000  Uiso   1.00
C472   C     0.81646   0.67777   0.24064   0.00000  Uiso   1.00
C473   C     0.79583   0.82955   0.33262   0.00000  Uiso   1.00
C474   C     0.87086   0.83770   0.16748   0.00000  Uiso   1.00
C475   C     0.77401   0.82559   0.37969   0.00000  Uiso   1.00
C476   C     0.89250   0.84583   0.12106   0.00000  Uiso   1.00
C477   C     0.69404   0.79773   0.44170   0.00000  Uiso   1.00
C478   C     0.96832   0.88665   0.06200   0.00000  Uiso   1.00
C479   C     0.71240   0.80575   0.39757   0.00000  Uiso   1.00
C480   C     0.95182   0.87294   0.10483   0.00000  Uiso   1.00
C481   C     0.81631   0.83964   0.40664   0.00000  Uiso   1.00
C482   C     0.85078   0.83091   0.09379   0.00000  Uiso   1.00
C483   C     0.79863   0.83352   0.45156   0.00000  Uiso   1.00
C484   C     0.86539   0.84594   0.05093   0.00000  Uiso   1.00
C485   C     0.73676   0.81054   0.46858   0.00000  Uiso   1.00
C486   C     0.92563   0.87364   0.03506   0.00000  Uiso   1.00
C487   C     0.84102   0.84788   0.47962   0.00000  Uiso   1.00
C488   C     0.82190   0.83460   0.02366   0.00000  Uiso   1.00
Cu489  Cu    0.77404   0.82775   0.24516   0.00000  Uiso   1.00
Cu490  Cu    0.89263   0.83892   0.25483   0.00000  Uiso   1.00
H491   H     0.67088   0.78254   0.02545   0.00000  Uiso   1.00
H492   H     0.98837   0.91036   0.48040   0.00000  Uiso   1.00
H493   H     0.80699   0.80766   0.10716   0.00000  Uiso   1.00
H494   H     0.86336   0.85359   0.39139   0.00000  Uiso   1.00
H495   H     0.98475   0.88492   0.12555   0.00000  Uiso   1.00
H496   H     0.67887   0.79476   0.37726   0.00000  Uiso   1.00
H497   H     0.97984   0.78088   0.45474   0.00000  Uiso   1.00
H498   H     0.68096   0.90805   0.05005   0.00000  Uiso   1.00
H499   H     0.74062   0.80294   0.07253   0.00000  Uiso   1.00
H500   H     0.91823   0.89029   0.43346   0.00000  Uiso   1.00
H501   H     0.87729   0.67804   0.28180   0.00000  Uiso   1.00
H502   H     0.78937   0.98862   0.21820   0.00000  Uiso   1.00
N503   N     0.98173   0.84735   0.26212   0.00000  Uiso   1.00
N504   N     0.68494   0.81932   0.23788   0.00000  Uiso   1.00
O505   O     0.79482   0.90476   0.24686   0.00000  Uiso   1.00
O506   O     0.87185   0.76191   0.25314   0.00000  Uiso   1.00
O507   O     0.89496   0.91420   0.25502   0.00000  Uiso   1.00
O508   O     0.77171   0.75247   0.24497   0.00000  Uiso   1.00
O509   O     0.75518   0.82597   0.30854   0.00000  Uiso   1.00
O510   O     0.91149   0.84070   0.19145   0.00000  Uiso   1.00
O511   O     0.85532   0.83540   0.31671   0.00000  Uiso   1.00
O512   O     0.81134   0.83126   0.18329   0.00000  Uiso   1.00
S513   S     0.66987   0.90736   0.29075   0.00000  Uiso   1.00
O514   O     0.71654   0.90822   0.31713   0.00000  Uiso   1.00
O515   O     0.69178   0.94934   0.25931   0.00000  Uiso   1.00
O516   O     0.94095   0.92270   0.32638   0.00000  Uiso   1.00
H517   H     0.95300   0.96035   0.33635   0.00000  Uiso   1.00
S518   S     0.99678   0.75930   0.20926   0.00000  Uiso   1.00
O519   O     0.97484   0.71734   0.24071   0.00000  Uiso   1.00
O520   O     0.95012   0.75846   0.18286   0.00000  Uiso   1.00
O521   O     0.72570   0.74392   0.17365   0.00000  Uiso   1.00
H522   H     0.71371   0.70621   0.16383   0.00000  Uiso   1.00
C523   C     0.18046   0.26642   0.75275   0.00000  Uiso   1.00
C524   C     0.15287   0.06691   0.74725   0.00000  Uiso   1.00
C525   C     0.09299   0.14487   0.53919   0.00000  Uiso   1.00
C526   C     0.23478   0.20929   0.96534   0.00000  Uiso   1.00
C527   C     0.05145   0.13337   0.51213   0.00000  Uiso   1.00
C528   C     0.27596   0.22202   0.99268   0.00000  Uiso   1.00
C529   C     0.18353   0.32223   0.75936   0.00000  Uiso   1.00
C530   C     0.14980   0.01110   0.74064   0.00000  Uiso   1.00
C531   C     0.12916   0.16289   0.83262   0.00000  Uiso   1.00
C532   C     0.20419   0.17103   0.66748   0.00000  Uiso   1.00
C533   C     0.10734   0.15892   0.87969   0.00000  Uiso   1.00
C534   C     0.22584   0.17916   0.62106   0.00000  Uiso   1.00
C535   C     0.02737   0.13107   0.94170   0.00000  Uiso   1.00
C536   C     0.30165   0.21998   0.56200   0.00000  Uiso   1.00
C537   C     0.04573   0.13909   0.89757   0.00000  Uiso   1.00
C538   C     0.28515   0.20627   0.60483   0.00000  Uiso   1.00
C539   C     0.14965   0.17298   0.90664   0.00000  Uiso   1.00
C540   C     0.18411   0.16424   0.59379   0.00000  Uiso   1.00
C541   C     0.13196   0.16685   0.95156   0.00000  Uiso   1.00
C542   C     0.19872   0.17927   0.55093   0.00000  Uiso   1.00
C543   C     0.07009   0.14388   0.96858   0.00000  Uiso   1.00
C544   C     0.25896   0.20698   0.53506   0.00000  Uiso   1.00
C545   C     0.17435   0.18121   0.97962   0.00000  Uiso   1.00
C546   C     0.15523   0.16793   0.52366   0.00000  Uiso   1.00
Cu547  Cu    0.10737   0.16108   0.74516   0.00000  Uiso   1.00
Cu548  Cu    0.22596   0.17225   0.75483   0.00000  Uiso   1.00
H549   H     0.00422   0.11587   0.52545   0.00000  Uiso   1.00
H550   H     0.32170   0.24370   0.98040   0.00000  Uiso   1.00
H551   H     0.14032   0.14100   0.60716   0.00000  Uiso   1.00
H552   H     0.19669   0.18692   0.89139   0.00000  Uiso   1.00
H553   H     0.31809   0.21825   0.62555   0.00000  Uiso   1.00
H554   H     0.01221   0.12809   0.87726   0.00000  Uiso   1.00
H555   H     0.31318   0.11421   0.95474   0.00000  Uiso   1.00
H556   H     0.01429   0.24139   0.55005   0.00000  Uiso   1.00
H557   H     0.07395   0.13628   0.57253   0.00000  Uiso   1.00
H558   H     0.25156   0.22362   0.93346   0.00000  Uiso   1.00
H559   H     0.21062   0.01138   0.78180   0.00000  Uiso   1.00
H560   H     0.12270   0.32195   0.71820   0.00000  Uiso   1.00
N561   N     0.31506   0.18068   0.76212   0.00000  Uiso   1.00
N562   N     0.01827   0.15265   0.73788   0.00000  Uiso   1.00
O563   O     0.12815   0.23809   0.74686   0.00000  Uiso   1.00
O564   O     0.20518   0.09524   0.75314   0.00000  Uiso   1.00
O565   O     0.22829   0.24753   0.75502   0.00000  Uiso   1.00
O566   O     0.10504   0.08580   0.74497   0.00000  Uiso   1.00
O567   O     0.08851   0.15930   0.80854   0.00000  Uiso   1.00
O568   O     0.24482   0.17403   0.69145   0.00000  Uiso   1.00
O569   O     0.18866   0.16874   0.81671   0.00000  Uiso   1.00
O570   O     0.14468   0.16460   0.68329   0.00000  Uiso   1.00
S571   S     0.00320   0.24069   0.79075   0.00000  Uiso   1.00
O572   O     0.04988   0.24155   0.81713   0.00000  Uiso   1.00
O573   O     0.02511   0.28267   0.75931   0.00000  Uiso   1.00
O574   O     0.27428   0.25603   0.82638   0.00000  Uiso   1.00
H575   H     0.28633   0.29368   0.83635   0.00000  Uiso   1.00
S576   S     0.33011   0.09263   0.70926   0.00000  Uiso   1.00
O577   O     0.30817   0.05067   0.74071   0.00000  Uiso   1.00
O578   O     0.28346   0.09179   0.68286   0.00000  Uiso   1.00
O579   O     0.05903   0.07726   0.67365   0.00000  Uiso   1.00
H580   H     0.04705   0.03954   0.66383   0.00000  Uiso   1.00
C581   C     0.51379   0.26642   0.75275   0.00000  Uiso   1.00
C582   C     0.48621   0.06691   0.74725   0.00000  Uiso   1.00
C583   C     0.42632   0.14487   0.53919   0.00000  Uiso   1.00
C584   C     0.56811   0.20929   0.96534   0.00000  Uiso   1.00
C585   C     0.38478   0.13337   0.51213   0.00000  Uiso   1.00
C586   C     0.60930   0.22202   0.99268   0.00000  Uiso   1.00
C587   C     0.51687   0.32223   0.75936   0.00000  Uiso   1.00
C588   C     0.48313   0.01110   0.74064   0.00000  Uiso   1.00
C589   C     0.46250   0.16289   0.83262   0.00000  Uiso   1.00
C590   C     0.53752   0.17103   0.66748   0.00000  Uiso   1.00
C591   C     0.44068   0.15892   0.87969   0.00000  Uiso   1.00
C592   C     0.55917   0.17916   0.62106   0.00000  Uiso   1.00
C593   C     0.36070   0.13107   0.94170   0.00000  Uiso   1.00
C594   C     0.63498   0.21998   0.56200   0.00000  Uiso   1.00
C595   C     0.37907   0.13909   0.89757   0.00000  Uiso   1.00
C596   C     0.61848   0.20627   0.60483   0.00000  Uiso   1.00
C597   C     0.48298   0.17298   0.90664   0.00000  Uiso   1.00
C598   C     0.51744   0.16424   0.59379   0.00000  Uiso   1.00
C599   C     0.46529   0.16685   0.95156   0.00000  Uiso   1.00
C600   C     0.53205   0.17927   0.55093   0.00000  Uiso   1.00
C601   C     0.40343   0.14388   0.96858   0.00000  Uiso   1.00
C602   C     0.59230   0.20698   0.53506   0.00000  Uiso   1.00
C603   C     0.50768   0.18121   0.97962   0.00000  Uiso   1.00
C604   C     0.48856   0.16793   0.52366   0.00000  Uiso   1.00
Cu605  Cu    0.44071   0.16108   0.74516   0.00000  Uiso   1.00
Cu606  Cu    0.55929   0.17225   0.75483   0.00000  Uiso   1.00
H607   H     0.33755   0.11587   0.52545   0.00000  Uiso   1.00
H608   H     0.65504   0.24370   0.98040   0.00000  Uiso   1.00
H609   H     0.47365   0.14100   0.60716   0.00000  Uiso   1.00
H610   H     0.53002   0.18692   0.89139   0.00000  Uiso   1.00
H611   H     0.65142   0.21825   0.62555   0.00000  Uiso   1.00
H612   H     0.34554   0.12809   0.87726   0.00000  Uiso   1.00
H613   H     0.64651   0.11421   0.95474   0.00000  Uiso   1.00
H614   H     0.34763   0.24139   0.55005   0.00000  Uiso   1.00
H615   H     0.40729   0.13628   0.57253   0.00000  Uiso   1.00
H616   H     0.58489   0.22362   0.93346   0.00000  Uiso   1.00
H617   H     0.54396   0.01138   0.78180   0.00000  Uiso   1.00
H618   H     0.45603   0.32195   0.71820   0.00000  Uiso   1.00
N619   N     0.64839   0.18068   0.76212   0.00000  Uiso   1.00
N620   N     0.35161   0.15265   0.73788   0.00000  Uiso   1.00
O621   O     0.46148   0.23809   0.74686   0.00000  Uiso   1.00
O622   O     0.53852   0.09524   0.75314   0.00000  Uiso   1.00
O623   O     0.56163   0.24753   0.75502   0.00000  Uiso   1.00
O624   O     0.43837   0.08580   0.74497   0.00000  Uiso   1.00
O625   O     0.42185   0.15930   0.80854   0.00000  Uiso   1.00
O626   O     0.57815   0.17403   0.69145   0.00000  Uiso   1.00
O627   O     0.52199   0.16874   0.81671   0.00000  Uiso   1.00
O628   O     0.47801   0.16460   0.68329   0.00000  Uiso   1.00
S629   S     0.33654   0.24069   0.79075   0.00000  Uiso   1.00
O630   O     0.38321   0.24155   0.81713   0.00000  Uiso   1.00
O631   O     0.35845   0.28267   0.75931   0.00000  Uiso   1.00
O632   O     0.60761   0.25603   0.82638   0.00000  Uiso   1.00
H633   H     0.61966   0.29368   0.83635   0.00000  Uiso   1.00
S634   S     0.66345   0.09263   0.70926   0.00000  Uiso   1.00
O635   O     0.64151   0.05067   0.74071   0.00000  Uiso   1.00
O636   O     0.61679   0.09179   0.68286   0.00000  Uiso   1.00
O637   O     0.39236   0.07726   0.67365   0.00000  Uiso   1.00
H638   H     0.38038   0.03954   0.66383   0.00000  Uiso   1.00
C639   C     0.84713   0.26642   0.75275   0.00000  Uiso   1.00
C640   C     0.81954   0.06691   0.74725   0.00000  Uiso   1.00
C641   C     0.75966   0.14487   0.53919   0.00000  Uiso   1.00
C642   C     0.90145   0.20929   0.96534   0.00000  Uiso   1.00
C643   C     0.71811   0.13337   0.51213   0.00000  Uiso   1.00
C644   C     0.94263   0.22202   0.99268   0.00000  Uiso   1.00
C645   C     0.85020   0.32223   0.75936   0.00000  Uiso   1.00
C646   C     0.81646   0.01110   0.74064   0.00000  Uiso   1.00
C647   C     0.79583   0.16289   0.83262   0.00000  Uiso   1.00
C648   C     0.87086   0.17103   0.66748   0.00000  Uiso   1.00
C649   C     0.77401   0.15892   0.87969   0.00000  Uiso   1.00
C650   C     0.89250   0.17916   0.62106   0.00000  Uiso   1.00
C651   C     0.69404   0.13107   0.94170   0.00000  Uiso   1.00
C652   C     0.96832   0.21998   0.56200   0.00000  Uiso   1.00
C653   C     0.71240   0.13909   0.89757   0.00000  Uiso   1.00
C654   C     0.95182   0.20627   0.60483   0.00000  Uiso   1.00
C655   C     0.81631   0.17298   0.90664   0.00000  Uiso   1.00
C656   C     0.85078   0.16424   0.59379   0.00000  Uiso   1.00
C657   C     0.79863   0.16685   0.95156   0.00000  Uiso   1.00
C658   C     0.86539   0.17927   0.55093   0.00000  Uiso   1.00
C659   C     0.73676   0.14388   0.96858   0.00000  Uiso   1.00
C660   C     0.92563   0.20698   0.53506   0.00000  Uiso   1.00
C661   C     0.84102   0.18121   0.97962   0.00000  Uiso   1.00
C662   C     0.82190   0.16793   0.52366   0.00000  Uiso   1.00
Cu663  Cu    0.77404   0.16108   0.74516   0.00000  Uiso   1.00
Cu664  Cu    0.89263   0.17225   0.75483   0.00000  Uiso   1.00
H665   H     0.67088   0.11587   0.52545   0.00000  Uiso   1.00
H666   H     0.98837   0.24370   0.98040   0.00000  Uiso   1.00
H667   H     0.80699   0.14100   0.60716   0.00000  Uiso   1.00
H668   H     0.86336   0.18692   0.89139   0.00000  Uiso   1.00
H669   H     0.98475   0.21825   0.62555   0.00000  Uiso   1.00
H670   H     0.67887   0.12809   0.87726   0.00000  Uiso   1.00
H671   H     0.97984   0.11421   0.95474   0.00000  Uiso   1.00
H672   H     0.68096   0.24139   0.55005   0.00000  Uiso   1.00
H673   H     0.74062   0.13628   0.57253   0.00000  Uiso   1.00
H674   H     0.91823   0.22362   0.93346   0.00000  Uiso   1.00
H675   H     0.87729   0.01138   0.78180   0.00000  Uiso   1.00
H676   H     0.78937   0.32195   0.71820   0.00000  Uiso   1.00
N677   N     0.98173   0.18068   0.76212   0.00000  Uiso   1.00
N678   N     0.68494   0.15265   0.73788   0.00000  Uiso   1.00
O679   O     0.79482   0.23809   0.74686   0.00000  Uiso   1.00
O680   O     0.87185   0.09524   0.75314   0.00000  Uiso   1.00
O681   O     0.89496   0.24753   0.75502   0.00000  Uiso   1.00
O682   O     0.77171   0.08580   0.74497   0.00000  Uiso   1.00
O683   O     0.75518   0.15930   0.80854   0.00000  Uiso   1.00
O684   O     0.91149   0.17403   0.69145   0.00000  Uiso   1.00
O685   O     0.85532   0.16874   0.81671   0.00000  Uiso   1.00
O686   O     0.81134   0.16460   0.68329   0.00000  Uiso   1.00
S687   S     0.66987   0.24069   0.79075   0.00000  Uiso   1.00
O688   O     0.71654   0.24155   0.81713   0.00000  Uiso   1.00
O689   O     0.69178   0.28267   0.75931   0.00000  Uiso   1.00
O690   O     0.94095   0.25603   0.82638   0.00000  Uiso   1.00
H691   H     0.95300   0.29368   0.83635   0.00000  Uiso   1.00
S692   S     0.99678   0.09263   0.70926   0.00000  Uiso   1.00
O693   O     0.97484   0.05067   0.74071   0.00000  Uiso   1.00
O694   O     0.95012   0.09179   0.68286   0.00000  Uiso   1.00
O695   O     0.72570   0.07726   0.67365   0.00000  Uiso   1.00
H696   H     0.71371   0.03954   0.66383   0.00000  Uiso   1.00
C697   C     0.18046   0.59976   0.75275   0.00000  Uiso   1.00
C698   C     0.15287   0.40024   0.74725   0.00000  Uiso   1.00
C699   C     0.09299   0.47820   0.53919   0.00000  Uiso   1.00
C700   C     0.23478   0.54263   0.96534   0.00000  Uiso   1.00
C701   C     0.05145   0.46671   0.51213   0.00000  Uiso   1.00
C702   C     0.27596   0.55535   0.99268   0.00000  Uiso   1.00
C703   C     0.18353   0.65556   0.75936   0.00000  Uiso   1.00
C704   C     0.14980   0.34443   0.74064   0.00000  Uiso   1.00
C705   C     0.12916   0.49622   0.83262   0.00000  Uiso   1.00
C706   C     0.20419   0.50436   0.66748   0.00000  Uiso   1.00
C707   C     0.10734   0.49226   0.87969   0.00000  Uiso   1.00
C708   C     0.22584   0.51250   0.62106   0.00000  Uiso   1.00
C709   C     0.02737   0.46440   0.94170   0.00000  Uiso   1.00
C710   C     0.30165   0.55332   0.56200   0.00000  Uiso   1.00
C711   C     0.04573   0.47242   0.89757   0.00000  Uiso   1.00
C712   C     0.28515   0.53961   0.60483   0.00000  Uiso   1.00
C713   C     0.14965   0.50631   0.90664   0.00000  Uiso   1.00
C714   C     0.18411   0.49757   0.59379   0.00000  Uiso   1.00
C715   C     0.13196   0.50018   0.95156   0.00000  Uiso   1.00
C716   C     0.19872   0.51261   0.55093   0.00000  Uiso   1.00
C717   C     0.07009   0.47721   0.96858   0.00000  Uiso   1.00
C718   C     0.25896   0.54031   0.53506   0.00000  Uiso   1.00
C719   C     0.17435   0.51455   0.97962   0.00000  Uiso   1.00
C720   C     0.15523   0.50126   0.52366   0.00000  Uiso   1.00
Cu721  Cu    0.10737   0.49441   0.74516   0.00000  Uiso   1.00
Cu722  Cu    0.22596   0.50559   0.75483   0.00000  Uiso   1.00
H723   H     0.00422   0.44920   0.52545   0.00000  Uiso   1.00
H724   H     0.32170   0.57703   0.98040   0.00000  Uiso   1.00
H725   H     0.14032   0.47433   0.60716   0.00000  Uiso   1.00
H726   H     0.19669   0.52025   0.89139   0.00000  Uiso   1.00
H727   H     0.31809   0.55159   0.62555   0.00000  Uiso   1.00
H728   H     0.01221   0.46143   0.87726   0.00000  Uiso   1.00
H729   H     0.31318   0.44754   0.95474   0.00000  Uiso   1.00
H730   H     0.01429   0.57472   0.55005   0.00000  Uiso   1.00
H731   H     0.07395   0.46961   0.57253   0.00000  Uiso   1.00
H732   H     0.25156   0.55695   0.93346   0.00000  Uiso   1.00
H733   H     0.21062   0.34471   0.78180   0.00000  Uiso   1.00
H734   H     0.12270   0.65528   0.71820   0.00000  Uiso   1.00
N735   N     0.31506   0.51401   0.76212   0.00000  Uiso   1.00
N736   N     0.01827   0.48599   0.73788   0.00000  Uiso   1.00
O737   O     0.12815   0.57142   0.74686   0.00000  Uiso   1.00
O738   O     0.20518   0.42858   0.75314   0.00000  Uiso   1.00
O739   O     0.22829   0.58086   0.75502   0.00000  Uiso   1.00
O740   O     0.10504   0.41914   0.74497   0.00000  Uiso   1.00
O741   O     0.08851   0.49263   0.80854   0.00000  Uiso   1.00
O742   O     0.24482   0.50737   0.69145   0.00000  Uiso   1.00
O743   O     0.18866   0.50207   0.81671   0.00000  Uiso   1.00
O744   O     0.14468   0.49793   0.68329   0.00000  Uiso   1.00
S745   S     0.00320   0.57403   0.79075   0.00000  Uiso   1.00
O746   O     0.04988   0.57489   0.81713   0.00000  Uiso   1.00
O747   O     0.02511   0.61601   0.75931   0.00000  Uiso   1.00
O748   O     0.27428   0.58937   0.82638   0.00000  Uiso   1.00
H749   H     0.28633   0.62702   0.83635   0.00000  Uiso   1.00
S750   S     0.33011   0.42597   0.70926   0.00000  Uiso   1.00
O751   O     0.30817   0.38401   0.74071   0.00000  Uiso   1.00
O752   O     0.28346   0.42512   0.68286   0.00000  Uiso   1.00
O753   O     0.05903   0.41059   0.67365   0.00000  Uiso   1.00
H754   H     0.04705   0.37288   0.66383   0.00000  Uiso   1.00
C755   C     0.51379   0.59976   0.75275   0.00000  Uiso   1.00
C756   C     0.48621   0.40024   0.74725   0.00000  Uiso   1.00
C757   C     0.42632   0.47820   0.53919   0.00000  Uiso   1.00
C758   C     0.56811   0.54263   0.96534   0.00000  Uiso   1.00
C759   C     0.38478   0.46671   0.51213   0.00000  Uiso   1.00
C760   C     0.60930   0.55535   0.99268   0.00000  Uiso   1.00
C761   C     0.51687   0.65556   0.75936   0.00000  Uiso   1.00
C762   C     0.48313   0.34443   0.74064   0.00000  Uiso   1.00
C763   C     0.46250   0.49622   0.83262   0.00000  Uiso   1.00
C764   C     0.53752   0.50436   0.66748   0.00000  Uiso   1.00
C765   C     0.44068   0.49226   0.87969   0.00000  Uiso   1.00
C766   C     0.55917   0.51250   0.62106   0.00000  Uiso   1.00
C767   C     0.36070   0.46440   0.94170   0.00000  Uiso   1.00
C768   C     0.63498   0.55332   0.56200   0.00000  Uiso   1.00
C769   C     0.37907   0.47242   0.89757   0.00000  Uiso   1.00
C770   C     0.61848   0.53961   0.60483   0.00000  Uiso   1.00
C771   C     0.48298   0.50631   0.90664   0.00000  Uiso   1.00
C772   C     0.51744   0.49757   0.59379   0.00000  Uiso   1.00
C773   C     0.46529   0.50018   0.95156   0.00000  Uiso   1.00
C774   C     0.53205   0.51261   0.55093   0.00000  Uiso   1.00
C775   C     0.40343   0.47721   0.96858   0.00000  Uiso   1.00
C776   C     0.59230   0.54031   0.53506   0.00000  Uiso   1.00
C777   C     0.50768   0.51455   0.97962   0.00000  Uiso   1.00
C778   C     0.48856   0.50126   0.52366   0.00000  Uiso   1.00
Cu779  Cu    0.44071   0.49441   0.74516   0.00000  Uiso   1.00
Cu780  Cu    0.55929   0.50559   0.75483   0.00000  Uiso   1.00
H781   H     0.33755   0.44920   0.52545   0.00000  Uiso   1.00
H782   H     0.65504   0.57703   0.98040   0.00000  Uiso   1.00
H783   H     0.47365   0.47433   0.60716   0.00000  Uiso   1.00
H784   H     0.53002   0.52025   0.89139   0.00000  Uiso   1.00
H785   H     0.65142   0.55159   0.62555   0.00000  Uiso   1.00
H786   H     0.34554   0.46143   0.87726   0.00000  Uiso   1.00
H787   H     0.64651   0.44754   0.95474   0.00000  Uiso   1.00
H788   H     0.34763   0.57472   0.55005   0.00000  Uiso   1.00
H789   H     0.40729   0.46961   0.57253   0.00000  Uiso   1.00
H790   H     0.58489   0.55695   0.93346   0.00000  Uiso   1.00
H791   H     0.54396   0.34471   0.78180   0.00000  Uiso   1.00
H792   H     0.45603   0.65528   0.71820   0.00000  Uiso   1.00
N793   N     0.64839   0.51401   0.76212   0.00000  Uiso   1.00
N794   N     0.35161   0.48599   0.73788   0.00000  Uiso   1.00
O795   O     0.46148   0.57142   0.74686   0.00000  Uiso   1.00
O796   O     0.53852   0.42858   0.75314   0.00000  Uiso   1.00
O797   O     0.56163   0.58086   0.75502   0.00000  Uiso   1.00
O798   O     0.43837   0.41914   0.74497   0.00000  Uiso   1.00
O799   O     0.42185   0.49263   0.80854   0.00000  Uiso   1.00
O800   O     0.57815   0.50737   0.69145   0.00000  Uiso   1.00
O801   O     0.52199   0.50207   0.81671   0.00000  Uiso   1.00
O802   O     0.47801   0.49793   0.68329   0.00000  Uiso   1.00
S803   S     0.33654   0.57403   0.79075   0.00000  Uiso   1.00
O804   O     0.38321   0.57489   0.81713   0.00000  Uiso   1.00
O805   O     0.35845   0.61601   0.75931   0.00000  Uiso   1.00
O806   O     0.60761   0.58937   0.82638   0.00000  Uiso   1.00
H807   H     0.61966   0.62702   0.83635   0.00000  Uiso   1.00
S808   S     0.66345   0.42597   0.70926   0.00000  Uiso   1.00
O809   O     0.64151   0.38401   0.74071   0.00000  Uiso   1.00
O810   O     0.61679   0.42512   0.68286   0.00000  Uiso   1.00
O811   O     0.39236   0.41059   0.67365   0.00000  Uiso   1.00
H812   H     0.38038   0.37288   0.66383   0.00000  Uiso   1.00
C813   C     0.84713   0.59976   0.75275   0.00000  Uiso   1.00
C814   C     0.81954   0.40024   0.74725   0.00000  Uiso   1.00
C815   C     0.75966   0.47820   0.53919   0.00000  Uiso   1.00
C816   C     0.90145   0.54263   0.96534   0.00000  Uiso   1.00
C817   C     0.71811   0.46671   0.51213   0.00000  Uiso   1.00
C818   C     0.94263   0.55535   0.99268   0.00000  Uiso   1.00
C819   C     0.85020   0.65556   0.75936   0.00000  Uiso   1.00
C820   C     0.81646   0.34443   0.74064   0.00000  Uiso   1.00
C821   C     0.79583   0.49622   0.83262   0.00000  Uiso   1.00
C822   C     0.87086   0.50436   0.66748   0.00000  Uiso   1.00
C823   C     0.77401   0.49226   0.87969   0.00000  Uiso   1.00
C824   C     0.89250   0.51250   0.62106   0.00000  Uiso   1.00
C825   C     0.69404   0.46440   0.94170   0.00000  Uiso   1.00
C826   C     0.96832   0.55332   0.56200   0.00000  Uiso   1.00
C827   C     0.71240   0.47242   0.89757   0.00000  Uiso   1.00
C828   C     0.95182   0.53961   0.60483   0.00000  Uiso   1.00
C829   C     0.81631   0.50631   0.90664   0.00000  Uiso   1.00
C830   C     0.85078   0.49757   0.59379   0.00000  Uiso   1.00
C831   C     0.79863   0.50018   0.95156   0.00000  Uiso   1.00
C832   C     0.86539   0.51261   0.55093   0.00000  Uiso   1.00
C833   C     0.73676   0.47721   0.96858   0.00000  Uiso   1.00
C834   C     0.92563   0.54031   0.53506   0.00000  Uiso   1.00
C835   C     0.84102   0.51455   0.97962   0.00000  Uiso   1.00
C836   C     0.82190   0.50126   0.52366   0.00000  Uiso   1.00
Cu837  Cu    0.77404   0.49441   0.74516   0.00000  Uiso   1.00
Cu838  Cu    0.89263   0.50559   0.75483   0.00000  Uiso   1.00
H839   H     0.67088   0.44920   0.52545   0.00000  Uiso   1.00
H840   H     0.98837   0.57703   0.98040   0.00000  Uiso   1.00
H841   H     0.80699   0.47433   0.60716   0.00000  Uiso   1.00
H842   H     0.86336   0.52025   0.89139   0.00000  Uiso   1.00
H843   H     0.98475   0.55159   0.62555   0.00000  Uiso   1.00
H844   H     0.67887   0.46143   0.87726   0.00000  Uiso   1.00
H845   H     0.97984   0.44754   0.95474   0.00000  Uiso   1.00
H846   H     0.68096   0.57472   0.55005   0.00000  Uiso   1.00
H847   H     0.74062   0.46961   0.57253   0.00000  Uiso   1.00
H848   H     0.91823   0.55695   0.93346   0.00000  Uiso   1.00
H849   H     0.87729   0.34471   0.78180   0.00000  Uiso   1.00
H850   H     0.78937   0.65528   0.71820   0.00000  Uiso   1.00
N851   N     0.98173   0.51401   0.76212   0.00000  Uiso   1.00
N852   N     0.68494   0.48599   0.73788   0.00000  Uiso   1.00
O853   O     0.79482   0.57142   0.74686   0.00000  Uiso   1.00
O854   O     0.87185   0.42858   0.75314   0.00000  Uiso   1.00
O855   O     0.89496   0.58086   0.75502   0.00000  Uiso   1.00
O856   O     0.77171   0.41914   0.74497   0.00000  Uiso   1.00
O857   O     0.75518   0.49263   0.80854   0.00000  Uiso   1.00
O858   O     0.91149   0.50737   0.69145   0.00000  Uiso   1.00
O859   O     0.85532   0.50207   0.81671   0.00000  Uiso   1.00
O860   O     0.81134   0.49793   0.68329   0.00000  Uiso   1.00
S861   S     0.66987   0.57403   0.79075   0.00000  Uiso   1.00
O862   O     0.71654   0.57489   0.81713   0.00000  Uiso   1.00
O863   O     0.69178   0.61601   0.75931   0.00000  Uiso   1.00
O864   O     0.94095   0.58937   0.82638   0.00000  Uiso   1.00
H865   H     0.95300   0.62702   0.83635   0.00000  Uiso   1.00
S866   S     0.99678   0.42597   0.70926   0.00000  Uiso   1.00
O867   O     0.97484   0.38401   0.74071   0.00000  Uiso   1.00
O868   O     0.95012   0.42512   0.68286   0.00000  Uiso   1.00
O869   O     0.72570   0.41059   0.67365   0.00000  Uiso   1.00
H870   H     0.71371   0.37288   0.66383   0.00000  Uiso   1.00
C871   C     0.18046   0.93309   0.75275   0.00000  Uiso   1.00
C872   C     0.15287   0.73358   0.74725   0.00000  Uiso   1.00
C873   C     0.09299   0.81153   0.53919   0.00000  Uiso   1.00
C874   C     0.23478   0.87596   0.96534   0.00000  Uiso   1.00
C875   C     0.05145   0.80004   0.51213   0.00000  Uiso   1.00
C876   C     0.27596   0.88869   0.99268   0.00000  Uiso   1.00
C877   C     0.18353   0.98890   0.75936   0.00000  Uiso   1.00
C878   C     0.14980   0.67777   0.74064   0.00000  Uiso   1.00
C879   C     0.12916   0.82955   0.83262   0.00000  Uiso   1.00
C880   C     0.20419   0.83770   0.66748   0.00000  Uiso   1.00
C881   C     0.10734   0.82559   0.87969   0.00000  Uiso   1.00
C882   C     0.22584   0.84583   0.62106   0.00000  Uiso   1.00
C883   C     0.02737   0.79773   0.94170   0.00000  Uiso   1.00
C884   C     0.30165   0.88665   0.56200   0.00000  Uiso   1.00
C885   C     0.04573   0.80575   0.89757   0.00000  Uiso   1.00
C886   C     0.28515   0.87294   0.60483   0.00000  Uiso   1.00
C887   C     0.14965   0.83964   0.90664   0.00000  Uiso   1.00
C888   C     0.18411   0.83091   0.59379   0.00000  Uiso   1.00
C889   C     0.13196   0.83352   0.95156   0.00000  Uiso   1.00
C890   C     0.19872   0.84594   0.55093   0.00000  Uiso   1.00
C891   C     0.07009   0.81054   0.96858   0.00000  Uiso   1.00
C892   C     0.25896   0.87364   0.53506   0.00000  Uiso   1.00
C893   C     0.17435   0.84788   0.97962   0.00000  Uiso   1.00
C894   C     0.15523   0.83460   0.52366   0.00000  Uiso   1.00
Cu895  Cu    0.10737   0.82775   0.74516   0.00000  Uiso   1.00
Cu896  Cu    0.22596   0.83892   0.75483   0.00000  Uiso   1.00
H897   H     0.00422   0.78254   0.52545   0.00000  Uiso   1.00
H898   H     0.32170   0.91036   0.98040   0.00000  Uiso   1.00
H899   H     0.14032   0.80766   0.60716   0.00000  Uiso   1.00
H900   H     0.19669   0.85359   0.89139   0.00000  Uiso   1.00
H901   H     0.31809   0.88492   0.62555   0.00000  Uiso   1.00
H902   H     0.01221   0.79476   0.87726   0.00000  Uiso   1.00
H903   H     0.31318   0.78088   0.95474   0.00000  Uiso   1.00
H904   H     0.01429   0.90805   0.55005   0.00000  Uiso   1.00
H905   H     0.07395   0.80294   0.57253   0.00000  Uiso   1.00
H906   H     0.25156   0.89029   0.93346   0.00000  Uiso   1.00
H907   H     0.21062   0.67804   0.78180   0.00000  Uiso   1.00
H908   H     0.12270   0.98862   0.71820   0.00000  Uiso   1.00
N909   N     0.31506   0.84735   0.76212   0.00000  Uiso   1.00
N910   N     0.01827   0.81932   0.73788   0.00000  Uiso   1.00
O911   O     0.12815   0.90476   0.74686   0.00000  Uiso   1.00
O912   O     0.20518   0.76191   0.75314   0.00000  Uiso   1.00
O913   O     0.22829   0.91420   0.75502   0.00000  Uiso   1.00
O914   O     0.10504   0.75247   0.74497   0.00000  Uiso   1.00
O915   O     0.08851   0.82597   0.80854   0.00000  Uiso   1.00
O916   O     0.24482   0.84070   0.69145   0.00000  Uiso   1.00
O917   O     0.18866   0.83540   0.81671   0.00000  Uiso   1.00
O918   O     0.14468   0.83126   0.68329   0.00000  Uiso   1.00
S919   S     0.00320   0.90736   0.79075   0.00000  Uiso   1.00
O920   O     0.04988   0.90822   0.81713   0.00000  Uiso   1.00
O921   O     0.02511   0.94934   0.75931   0.00000  Uiso   1.00
O922   O     0.27428   0.92270   0.82638   0.00000  Uiso   1.00
H923   H     0.28633   0.96035   0.83635   0.00000  Uiso   1.00
S924   S     0.33011   0.75930   0.70926   0.00000  Uiso   1.00
O925   O     0.30817   0.71734   0.74071   0.00000  Uiso   1.00
O926   O     0.28346   0.75846   0.68286   0.00000  Uiso   1.00
O927   O     0.05903   0.74392   0.67365   0.00000  Uiso   1.00
H928   H     0.04705   0.70621   0.66383   0.00000  Uiso   1.00
C929   C     0.51379   0.93309   0.75275   0.00000  Uiso   1.00
C930   C     0.48621   0.73358   0.74725   0.00000  Uiso   1.00
C931   C     0.42632   0.81153   0.53919   0.00000  Uiso   1.00
C932   C     0.56811   0.87596   0.96534   0.00000  Uiso   1.00
C933   C     0.38478   0.80004   0.51213   0.00000  Uiso   1.00
C934   C     0.60930   0.88869   0.99268   0.00000  Uiso   1.00
C935   C     0.51687   0.98890   0.75936   0.00000  Uiso   1.00
C936   C     0.48313   0.67777   0.74064   0.00000  Uiso   1.00
C937   C     0.46250   0.82955   0.83262   0.00000  Uiso   1.00
C938   C     0.53752   0.83770   0.66748   0.00000  Uiso   1.00
C939   C     0.44068   0.82559   0.87969   0.00000  Uiso   1.00
C940   C     0.55917   0.84583   0.62106   0.00000  Uiso   1.00
C941   C     0.36070   0.79773   0.94170   0.00000  Uiso   1.00
C942   C     0.63498   0.88665   0.56200   0.00000  Uiso   1.00
C943   C     0.37907   0.80575   0.89757   0.00000  Uiso   1.00
C944   C     0.61848   0.87294   0.60483   0.00000  Uiso   1.00
C945   C     0.48298   0.83964   0.90664   0.00000  Uiso   1.00
C946   C     0.51744   0.83091   0.59379   0.00000  Uiso   1.00
C947   C     0.46529   0.83352   0.95156   0.00000  Uiso   1.00
C948   C     0.53205   0.84594   0.55093   0.00000  Uiso   1.00
C949   C     0.40343   0.81054   0.96858   0.00000  Uiso   1.00
C950   C     0.59230   0.87364   0.53506   0.00000  Uiso   1.00
C951   C     0.50768   0.84788   0.97962   0.00000  Uiso   1.00
C952   C     0.48856   0.83460   0.52366   0.00000  Uiso   1.00
Cu953  Cu    0.44071   0.82775   0.74516   0.00000  Uiso   1.00
Cu954  Cu    0.55929   0.83892   0.75483   0.00000  Uiso   1.00
H955   H     0.33755   0.78254   0.52545   0.00000  Uiso   1.00
H956   H     0.65504   0.91036   0.98040   0.00000  Uiso   1.00
H957   H     0.47365   0.80766   0.60716   0.00000  Uiso   1.00
H958   H     0.53002   0.85359   0.89139   0.00000  Uiso   1.00
H959   H     0.65142   0.88492   0.62555   0.00000  Uiso   1.00
H960   H     0.34554   0.79476   0.87726   0.00000  Uiso   1.00
H961   H     0.64651   0.78088   0.95474   0.00000  Uiso   1.00
H962   H     0.34763   0.90805   0.55005   0.00000  Uiso   1.00
H963   H     0.40729   0.80294   0.57253   0.00000  Uiso   1.00
H964   H     0.58489   0.89029   0.93346   0.00000  Uiso   1.00
H965   H     0.54396   0.67804   0.78180   0.00000  Uiso   1.00
H966   H     0.45603   0.98862   0.71820   0.00000  Uiso   1.00
N967   N     0.64839   0.84735   0.76212   0.00000  Uiso   1.00
N968   N     0.35161   0.81932   0.73788   0.00000  Uiso   1.00
O969   O     0.46148   0.90476   0.74686   0.00000  Uiso   1.00
O970   O     0.53852   0.76191   0.75314   0.00000  Uiso   1.00
O971   O     0.56163   0.91420   0.75502   0.00000  Uiso   1.00
O972   O     0.43837   0.75247   0.74497   0.00000  Uiso   1.00
O973   O     0.42185   0.82597   0.80854   0.00000  Uiso   1.00
O974   O     0.57815   0.84070   0.69145   0.00000  Uiso   1.00
O975   O     0.52199   0.83540   0.81671   0.00000  Uiso   1.00
O976   O     0.47801   0.83126   0.68329   0.00000  Uiso   1.00
S977   S     0.33654   0.90736   0.79075   0.00000  Uiso   1.00
O978   O     0.38321   0.90822   0.81713   0.00000  Uiso   1.00
O979   O     0.35845   0.94934   0.75931   0.00000  Uiso   1.00
O980   O     0.60761   0.92270   0.82638   0.00000  Uiso   1.00
H981   H     0.61966   0.96035   0.83635   0.00000  Uiso   1.00
S982   S     0.66345   0.75930   0.70926   0.00000  Uiso   1.00
O983   O     0.64151   0.71734   0.74071   0.00000  Uiso   1.00
O984   O     0.61679   0.75846   0.68286   0.00000  Uiso   1.00
O985   O     0.39236   0.74392   0.67365   0.00000  Uiso   1.00
H986   H     0.38038   0.70621   0.66383   0.00000  Uiso   1.00
C987   C     0.84713   0.93309   0.75275   0.00000  Uiso   1.00
C988   C     0.81954   0.73358   0.74725   0.00000  Uiso   1.00
C989   C     0.75966   0.81153   0.53919   0.00000  Uiso   1.00
C990   C     0.90145   0.87596   0.96534   0.00000  Uiso   1.00
C991   C     0.71811   0.80004   0.51213   0.00000  Uiso   1.00
C992   C     0.94263   0.88869   0.99268   0.00000  Uiso   1.00
C993   C     0.85020   0.98890   0.75936   0.00000  Uiso   1.00
C994   C     0.81646   0.67777   0.74064   0.00000  Uiso   1.00
C995   C     0.79583   0.82955   0.83262   0.00000  Uiso   1.00
C996   C     0.87086   0.83770   0.66748   0.00000  Uiso   1.00
C997   C     0.77401   0.82559   0.87969   0.00000  Uiso   1.00
C998   C     0.89250   0.84583   0.62106   0.00000  Uiso   1.00
C999   C     0.69404   0.79773   0.94170   0.00000  Uiso   1.00
C1000  C     0.96832   0.88665   0.56200   0.00000  Uiso   1.00
C1001  C     0.71240   0.80575   0.89757   0.00000  Uiso   1.00
C1002  C     0.95182   0.87294   0.60483   0.00000  Uiso   1.00
C1003  C     0.81631   0.83964   0.90664   0.00000  Uiso   1.00
C1004  C     0.85078   0.83091   0.59379   0.00000  Uiso   1.00
C1005  C     0.79863   0.83352   0.95156   0.00000  Uiso   1.00
C1006  C     0.86539   0.84594   0.55093   0.00000  Uiso   1.00
C1007  C     0.73676   0.81054   0.96858   0.00000  Uiso   1.00
C1008  C     0.92563   0.87364   0.53506   0.00000  Uiso   1.00
C1009  C     0.84102   0.84788   0.97962   0.00000  Uiso   1.00
C1010  C     0.82190   0.83460   0.52366   0.00000  Uiso   1.00
Cu1011 Cu    0.77404   0.82775   0.74516   0.00000  Uiso   1.00
Cu1012 Cu    0.89263   0.83892   0.75483   0.00000  Uiso   1.00
H1013  H     0.67088   0.78254   0.52545   0.00000  Uiso   1.00
H1014  H     0.98837   0.91036   0.98040   0.00000  Uiso   1.00
H1015  H     0.80699   0.80766   0.60716   0.00000  Uiso   1.00
H1016  H     0.86336   0.85359   0.89139   0.00000  Uiso   1.00
H1017  H     0.98475   0.88492   0.62555   0.00000  Uiso   1.00
H1018  H     0.67887   0.79476   0.87726   0.00000  Uiso   1.00
H1019  H     0.97984   0.78088   0.95474   0.00000  Uiso   1.00
H1020  H     0.68096   0.90805   0.55005   0.00000  Uiso   1.00
H1021  H     0.74062   0.80294   0.57253   0.00000  Uiso   1.00
H1022  H     0.91823   0.89029   0.93346   0.00000  Uiso   1.00
H1023  H     0.87729   0.67804   0.78180   0.00000  Uiso   1.00
H1024  H     0.78937   0.98862   0.71820   0.00000  Uiso   1.00
N1025  N     0.98173   0.84735   0.76212   0.00000  Uiso   1.00
N1026  N     0.68494   0.81932   0.73788   0.00000  Uiso   1.00
O1027  O     0.79482   0.90476   0.74686   0.00000  Uiso   1.00
O1028  O     0.87185   0.76191   0.75314   0.00000  Uiso   1.00
O1029  O     0.89496   0.91420   0.75502   0.00000  Uiso   1.00
O1030  O     0.77171   0.75247   0.74497   0.00000  Uiso   1.00
O1031  O     0.75518   0.82597   0.80854   0.00000  Uiso   1.00
O1032  O     0.91149   0.84070   0.69145   0.00000  Uiso   1.00
O1033  O     0.85532   0.83540   0.81671   0.00000  Uiso   1.00
O1034  O     0.81134   0.83126   0.68329   0.00000  Uiso   1.00
S1035  S     0.66987   0.90736   0.79075   0.00000  Uiso   1.00
O1036  O     0.71654   0.90822   0.81713   0.00000  Uiso   1.00
O1037  O     0.69178   0.94934   0.75931   0.00000  Uiso   1.00
O1038  O     0.94095   0.92270   0.82638   0.00000  Uiso   1.00
H1039  H     0.95300   0.96035   0.83635   0.00000  Uiso   1.00
S1040  S     0.99678   0.75930   0.70926   0.00000  Uiso   1.00
O1041  O     0.97484   0.71734   0.74071   0.00000  Uiso   1.00
O1042  O     0.95012   0.75846   0.68286   0.00000  Uiso   1.00
O1043  O     0.72570   0.74392   0.67365   0.00000  Uiso   1.00
H1044  H     0.71371   0.70621   0.66383   0.00000  Uiso   1.00
loop_
_geom_bond_atom_site_label_1
_geom_bond_atom_site_label_2
_geom_bond_distance
_geom_bond_site_symmetry_2
_ccdc_geom_bond_type
C1     C7      1.428   .     S
C1     O41     1.304   .     A
C1     O43     1.309   .     A
C2     O42     1.304   .     A
C2     C8      1.428   .     S
C2     O44     1.309   .     A
C3     H35     1.076   .     S
C3     C24     1.417   .     A
C3     C5      1.386   .     A
C4     H36     1.076   .     S
C4     C6      1.386   .     A
C4     C23     1.417   .     A
C5     H27     1.085   .     S
C5     C543    1.389   1_554 S
C6     H28     1.084   .     S
C6     C544    1.390   .     S
C7     C182    1.329   .     S
C7     H211    1.085   .     S
C8     C355    1.329   1_545 S
C8     H386    1.085   1_545 S
C9     O45     1.315   .     A
C9     C11     1.466   .     S
C9     O47     1.317   .     A
C10    O46     1.315   .     A
C10    C12     1.464   .     S
C10    O48     1.316   .     A
C11    C17     1.398   .     A
C11    C15     1.400   .     A
C12    C16     1.399   .     A
C12    C18     1.396   .     A
C13    C21     1.403   .     A
C13    C15     1.391   .     A
C13    H149    1.084   1_455 S
C14    C22     1.403   .     A
C14    C16     1.391   .     A
C14    H92     1.084   .     S
C15    H32     1.083   .     S
C16    H31     1.083   .     S
C17    H30     1.075   .     S
C17    C19     1.405   .     A
C18    H29     1.075   .     S
C18    C20     1.405   .     A
C19    C23     1.425   .     A
C19    C21     1.418   .     A
C20    C22     1.419   .     A
C20    C24     1.426   .     A
C21    C527    1.389   .     S
C22    C528    1.390   1_554 S
C23    C546    1.424   .     S
C24    C545    1.424   1_554 S
Cu25   O48     1.950   .     S
Cu25   O44     1.946   .     S
Cu25   N40     2.064   .     S
Cu25   O41     1.954   .     S
Cu25   O45     1.956   .     S
Cu25   Cu26    2.747   .     S
Cu26   O47     1.950   .     S
Cu26   O43     1.946   .     S
Cu26   N39     2.064   .     S
Cu26   O46     1.956   .     S
Cu26   O42     1.954   .     S
H33    C71     1.084   .     S
H34    C130    1.084   1_455 S
H37    C355    1.085   1_545 S
H38    C182    1.085   .     S
N39    N98     1.277   .     S
N39    S107    1.738   .     S
N40    N155    1.277   1_455 S
N40    S170    1.738   1_455 S
S49    O51     1.498   .     D
S49    O50     1.496   .     D
S49    N155    1.738   1_455 S
S49    O168    1.681   1_455 S
O52    H53     0.991   .     S
O52    S107    1.681   .     S
S54    O56     1.496   .     D
S54    O55     1.498   .     D
S54    N98     1.738   .     S
S54    O115    1.681   .     S
O57    H58     0.991   .     S
O57    S170    1.681   1_455 S
C59    C65     1.428   .     S
C59    O99     1.304   .     A
C59    O101    1.309   .     A
C60    O100    1.304   .     A
C60    C66     1.428   .     S
C60    O102    1.309   .     A
C61    H93     1.076   .     S
C61    C82     1.417   .     A
C61    C63     1.386   .     A
C62    H94     1.076   .     S
C62    C64     1.386   .     A
C62    C81     1.417   .     A
C63    H85     1.085   .     S
C63    C601    1.389   1_554 S
C64    H86     1.084   .     S
C64    C602    1.390   .     S
C65    C240    1.329   .     S
C65    H269    1.085   .     S
C66    C413    1.329   1_545 S
C66    H444    1.085   1_545 S
C67    O103    1.315   .     A
C67    C69     1.466   .     S
C67    O105    1.317   .     A
C68    O104    1.315   .     A
C68    C70     1.464   .     S
C68    O106    1.316   .     A
C69    C75     1.398   .     A
C69    C73     1.400   .     A
C70    C74     1.399   .     A
C70    C76     1.396   .     A
C71    C79     1.403   .     A
C71    C73     1.391   .     A
C72    C80     1.403   .     A
C72    C74     1.391   .     A
C72    H150    1.084   .     S
C73    H90     1.083   .     S
C74    H89     1.083   .     S
C75    H88     1.075   .     S
C75    C77     1.405   .     A
C76    H87     1.075   .     S
C76    C78     1.405   .     A
C77    C81     1.425   .     A
C77    C79     1.418   .     A
C78    C80     1.419   .     A
C78    C82     1.426   .     A
C79    C585    1.389   .     S
C80    C586    1.390   1_554 S
C81    C604    1.424   .     S
C82    C603    1.424   1_554 S
Cu83   O106    1.950   .     S
Cu83   O102    1.946   .     S
Cu83   N98     2.064   .     S
Cu83   O99     1.954   .     S
Cu83   O103    1.956   .     S
Cu83   Cu84    2.747   .     S
Cu84   O105    1.950   .     S
Cu84   O101    1.946   .     S
Cu84   N97     2.064   .     S
Cu84   O104    1.956   .     S
Cu84   O100    1.954   .     S
H91    C129    1.084   .     S
H95    C413    1.085   1_545 S
H96    C240    1.085   .     S
N97    N156    1.277   .     S
N97    S165    1.738   .     S
S107   O109    1.498   .     D
S107   O108    1.496   .     D
O110   H111    0.991   .     S
O110   S165    1.681   .     S
S112   O114    1.496   .     D
S112   O113    1.498   .     D
S112   N156    1.738   .     S
S112   O173    1.681   .     S
O115   H116    0.991   .     S
C117   C123    1.428   .     S
C117   O157    1.304   .     A
C117   O159    1.309   .     A
C118   O158    1.304   .     A
C118   C124    1.428   .     S
C118   O160    1.309   .     A
C119   H151    1.076   .     S
C119   C140    1.417   .     A
C119   C121    1.386   .     A
C120   H152    1.076   .     S
C120   C122    1.386   .     A
C120   C139    1.417   .     A
C121   H143    1.085   .     S
C121   C659    1.389   1_554 S
C122   H144    1.084   .     S
C122   C660    1.390   .     S
C123   C298    1.329   .     S
C123   H327    1.085   .     S
C124   C471    1.329   1_545 S
C124   H502    1.085   1_545 S
C125   O161    1.315   .     A
C125   C127    1.466   .     S
C125   O163    1.317   .     A
C126   O162    1.315   .     A
C126   C128    1.464   .     S
C126   O164    1.316   .     A
C127   C133    1.398   .     A
C127   C131    1.400   .     A
C128   C132    1.399   .     A
C128   C134    1.396   .     A
C129   C137    1.403   .     A
C129   C131    1.391   .     A
C130   C138    1.403   .     A
C130   C132    1.391   .     A
C130   H34     1.084   1_655 S
C131   H148    1.083   .     S
C132   H147    1.083   .     S
C133   H146    1.075   .     S
C133   C135    1.405   .     A
C134   H145    1.075   .     S
C134   C136    1.405   .     A
C135   C139    1.425   .     A
C135   C137    1.418   .     A
C136   C138    1.419   .     A
C136   C140    1.426   .     A
C137   C643    1.389   .     S
C138   C644    1.390   1_554 S
C139   C662    1.424   .     S
C140   C661    1.424   1_554 S
Cu141  O164    1.950   .     S
Cu141  O160    1.946   .     S
Cu141  N156    2.064   .     S
Cu141  O157    1.954   .     S
Cu141  O161    1.956   .     S
Cu141  Cu142   2.747   .     S
Cu142  O163    1.950   .     S
Cu142  O159    1.946   .     S
Cu142  N155    2.064   .     S
Cu142  O162    1.956   .     S
Cu142  O158    1.954   .     S
H149   C13     1.084   1_655 S
H153   C471    1.085   1_545 S
H154   C298    1.085   .     S
N155   N40     1.277   1_655 S
N155   S49     1.738   1_655 S
S165   O167    1.498   .     D
S165   O166    1.496   .     D
O168   H169    0.991   .     S
O168   S49     1.681   1_655 S
S170   O172    1.496   .     D
S170   O171    1.498   .     D
S170   N40     1.738   1_655 S
S170   O57     1.681   1_655 S
O173   H174    0.991   .     S
C175   C181    1.428   .     S
C175   O215    1.304   .     A
C175   O217    1.309   .     A
C176   O216    1.304   .     A
C176   C182    1.428   .     S
C176   O218    1.309   .     A
C177   H209    1.076   .     S
C177   C198    1.417   .     A
C177   C179    1.386   .     A
C178   H210    1.076   .     S
C178   C180    1.386   .     A
C178   C197    1.417   .     A
C179   H201    1.085   .     S
C179   C717    1.389   1_554 S
C180   H202    1.084   .     S
C180   C718    1.390   .     S
C181   C356    1.329   .     S
C181   H385    1.085   .     S
C183   O219    1.315   .     A
C183   C185    1.466   .     S
C183   O221    1.317   .     A
C184   O220    1.315   .     A
C184   C186    1.464   .     S
C184   O222    1.316   .     A
C185   C191    1.398   .     A
C185   C189    1.400   .     A
C186   C190    1.399   .     A
C186   C192    1.396   .     A
C187   C195    1.403   .     A
C187   C189    1.391   .     A
C187   H323    1.084   1_455 S
C188   C196    1.403   .     A
C188   C190    1.391   .     A
C188   H266    1.084   .     S
C189   H206    1.083   .     S
C190   H205    1.083   .     S
C191   H204    1.075   .     S
C191   C193    1.405   .     A
C192   H203    1.075   .     S
C192   C194    1.405   .     A
C193   C197    1.425   .     A
C193   C195    1.418   .     A
C194   C196    1.419   .     A
C194   C198    1.426   .     A
C195   C701    1.389   .     S
C196   C702    1.390   1_554 S
C197   C720    1.424   .     S
C198   C719    1.424   1_554 S
Cu199  O222    1.950   .     S
Cu199  O218    1.946   .     S
Cu199  N214    2.064   .     S
Cu199  O215    1.954   .     S
Cu199  O219    1.956   .     S
Cu199  Cu200   2.747   .     S
Cu200  O221    1.950   .     S
Cu200  O217    1.946   .     S
Cu200  N213    2.064   .     S
Cu200  O220    1.956   .     S
Cu200  O216    1.954   .     S
H207   C245    1.084   .     S
H208   C304    1.084   1_455 S
H212   C356    1.085   .     S
N213   N272    1.277   .     S
N213   S281    1.738   .     S
N214   N329    1.277   1_455 S
N214   S344    1.738   1_455 S
S223   O225    1.498   .     D
S223   O224    1.496   .     D
S223   N329    1.738   1_455 S
S223   O342    1.681   1_455 S
O226   H227    0.991   .     S
O226   S281    1.681   .     S
S228   O230    1.496   .     D
S228   O229    1.498   .     D
S228   N272    1.738   .     S
S228   O289    1.681   .     S
O231   H232    0.991   .     S
O231   S344    1.681   1_455 S
C233   C239    1.428   .     S
C233   O273    1.304   .     A
C233   O275    1.309   .     A
C234   O274    1.304   .     A
C234   C240    1.428   .     S
C234   O276    1.309   .     A
C235   H267    1.076   .     S
C235   C256    1.417   .     A
C235   C237    1.386   .     A
C236   H268    1.076   .     S
C236   C238    1.386   .     A
C236   C255    1.417   .     A
C237   H259    1.085   .     S
C237   C775    1.389   1_554 S
C238   H260    1.084   .     S
C238   C776    1.390   .     S
C239   C414    1.329   .     S
C239   H443    1.085   .     S
C241   O277    1.315   .     A
C241   C243    1.466   .     S
C241   O279    1.317   .     A
C242   O278    1.315   .     A
C242   C244    1.464   .     S
C242   O280    1.316   .     A
C243   C249    1.398   .     A
C243   C247    1.400   .     A
C244   C248    1.399   .     A
C244   C250    1.396   .     A
C245   C253    1.403   .     A
C245   C247    1.391   .     A
C246   C254    1.403   .     A
C246   C248    1.391   .     A
C246   H324    1.084   .     S
C247   H264    1.083   .     S
C248   H263    1.083   .     S
C249   H262    1.075   .     S
C249   C251    1.405   .     A
C250   H261    1.075   .     S
C250   C252    1.405   .     A
C251   C255    1.425   .     A
C251   C253    1.418   .     A
C252   C254    1.419   .     A
C252   C256    1.426   .     A
C253   C759    1.389   .     S
C254   C760    1.390   1_554 S
C255   C778    1.424   .     S
C256   C777    1.424   1_554 S
Cu257  O280    1.950   .     S
Cu257  O276    1.946   .     S
Cu257  N272    2.064   .     S
Cu257  O273    1.954   .     S
Cu257  O277    1.956   .     S
Cu257  Cu258   2.747   .     S
Cu258  O279    1.950   .     S
Cu258  O275    1.946   .     S
Cu258  N271    2.064   .     S
Cu258  O278    1.956   .     S
Cu258  O274    1.954   .     S
H265   C303    1.084   .     S
H270   C414    1.085   .     S
N271   N330    1.277   .     S
N271   S339    1.738   .     S
S281   O283    1.498   .     D
S281   O282    1.496   .     D
O284   H285    0.991   .     S
O284   S339    1.681   .     S
S286   O288    1.496   .     D
S286   O287    1.498   .     D
S286   N330    1.738   .     S
S286   O347    1.681   .     S
O289   H290    0.991   .     S
C291   C297    1.428   .     S
C291   O331    1.304   .     A
C291   O333    1.309   .     A
C292   O332    1.304   .     A
C292   C298    1.428   .     S
C292   O334    1.309   .     A
C293   H325    1.076   .     S
C293   C314    1.417   .     A
C293   C295    1.386   .     A
C294   H326    1.076   .     S
C294   C296    1.386   .     A
C294   C313    1.417   .     A
C295   H317    1.085   .     S
C295   C833    1.389   1_554 S
C296   H318    1.084   .     S
C296   C834    1.390   .     S
C297   C472    1.329   .     S
C297   H501    1.085   .     S
C299   O335    1.315   .     A
C299   C301    1.466   .     S
C299   O337    1.317   .     A
C300   O336    1.315   .     A
C300   C302    1.464   .     S
C300   O338    1.316   .     A
C301   C307    1.398   .     A
C301   C305    1.400   .     A
C302   C306    1.399   .     A
C302   C308    1.396   .     A
C303   C311    1.403   .     A
C303   C305    1.391   .     A
C304   C312    1.403   .     A
C304   C306    1.391   .     A
C304   H208    1.084   1_655 S
C305   H322    1.083   .     S
C306   H321    1.083   .     S
C307   H320    1.075   .     S
C307   C309    1.405   .     A
C308   H319    1.075   .     S
C308   C310    1.405   .     A
C309   C313    1.425   .     A
C309   C311    1.418   .     A
C310   C312    1.419   .     A
C310   C314    1.426   .     A
C311   C817    1.389   .     S
C312   C818    1.390   1_554 S
C313   C836    1.424   .     S
C314   C835    1.424   1_554 S
Cu315  O338    1.950   .     S
Cu315  O334    1.946   .     S
Cu315  N330    2.064   .     S
Cu315  O331    1.954   .     S
Cu315  O335    1.956   .     S
Cu315  Cu316   2.747   .     S
Cu316  O337    1.950   .     S
Cu316  O333    1.946   .     S
Cu316  N329    2.064   .     S
Cu316  O336    1.956   .     S
Cu316  O332    1.954   .     S
H323   C187    1.084   1_655 S
H328   C472    1.085   .     S
N329   N214    1.277   1_655 S
N329   S223    1.738   1_655 S
S339   O341    1.498   .     D
S339   O340    1.496   .     D
O342   H343    0.991   .     S
O342   S223    1.681   1_655 S
S344   O346    1.496   .     D
S344   O345    1.498   .     D
S344   N214    1.738   1_655 S
S344   O231    1.681   1_655 S
O347   H348    0.991   .     S
C349   C355    1.428   .     S
C349   O389    1.304   .     A
C349   O391    1.309   .     A
C350   O390    1.304   .     A
C350   C356    1.428   .     S
C350   O392    1.309   .     A
C351   H383    1.076   .     S
C351   C372    1.417   .     A
C351   C353    1.386   .     A
C352   H384    1.076   .     S
C352   C354    1.386   .     A
C352   C371    1.417   .     A
C353   H375    1.085   .     S
C353   C891    1.389   1_554 S
C354   H376    1.084   .     S
C354   C892    1.390   .     S
C355   C8      1.329   1_565 S
C355   H37     1.085   1_565 S
C357   O393    1.315   .     A
C357   C359    1.466   .     S
C357   O395    1.317   .     A
C358   O394    1.315   .     A
C358   C360    1.464   .     S
C358   O396    1.316   .     A
C359   C365    1.398   .     A
C359   C363    1.400   .     A
C360   C364    1.399   .     A
C360   C366    1.396   .     A
C361   C369    1.403   .     A
C361   C363    1.391   .     A
C361   H497    1.084   1_455 S
C362   C370    1.403   .     A
C362   C364    1.391   .     A
C362   H440    1.084   .     S
C363   H380    1.083   .     S
C364   H379    1.083   .     S
C365   H378    1.075   .     S
C365   C367    1.405   .     A
C366   H377    1.075   .     S
C366   C368    1.405   .     A
C367   C371    1.425   .     A
C367   C369    1.418   .     A
C368   C370    1.419   .     A
C368   C372    1.426   .     A
C369   C875    1.389   .     S
C370   C876    1.390   1_554 S
C371   C894    1.424   .     S
C372   C893    1.424   1_554 S
Cu373  O396    1.950   .     S
Cu373  O392    1.946   .     S
Cu373  N388    2.064   .     S
Cu373  O389    1.954   .     S
Cu373  O393    1.956   .     S
Cu373  Cu374   2.747   .     S
Cu374  O395    1.950   .     S
Cu374  O391    1.946   .     S
Cu374  N387    2.064   .     S
Cu374  O394    1.956   .     S
Cu374  O390    1.954   .     S
H381   C419    1.084   .     S
H382   C478    1.084   1_455 S
H386   C8      1.085   1_565 S
N387   N446    1.277   .     S
N387   S455    1.738   .     S
N388   N503    1.277   1_455 S
N388   S518    1.738   1_455 S
S397   O399    1.498   .     D
S397   O398    1.496   .     D
S397   N503    1.738   1_455 S
S397   O516    1.681   1_455 S
O400   H401    0.991   .     S
O400   S455    1.681   .     S
S402   O404    1.496   .     D
S402   O403    1.498   .     D
S402   N446    1.738   .     S
S402   O463    1.681   .     S
O405   H406    0.991   .     S
O405   S518    1.681   1_455 S
C407   C413    1.428   .     S
C407   O447    1.304   .     A
C407   O449    1.309   .     A
C408   O448    1.304   .     A
C408   C414    1.428   .     S
C408   O450    1.309   .     A
C409   H441    1.076   .     S
C409   C430    1.417   .     A
C409   C411    1.386   .     A
C410   H442    1.076   .     S
C410   C412    1.386   .     A
C410   C429    1.417   .     A
C411   H433    1.085   .     S
C411   C949    1.389   1_554 S
C412   H434    1.084   .     S
C412   C950    1.390   .     S
C413   C66     1.329   1_565 S
C413   H95     1.085   1_565 S
C415   O451    1.315   .     A
C415   C417    1.466   .     S
C415   O453    1.317   .     A
C416   O452    1.315   .     A
C416   C418    1.464   .     S
C416   O454    1.316   .     A
C417   C423    1.398   .     A
C417   C421    1.400   .     A
C418   C422    1.399   .     A
C418   C424    1.396   .     A
C419   C427    1.403   .     A
C419   C421    1.391   .     A
C420   C428    1.403   .     A
C420   C422    1.391   .     A
C420   H498    1.084   .     S
C421   H438    1.083   .     S
C422   H437    1.083   .     S
C423   H436    1.075   .     S
C423   C425    1.405   .     A
C424   H435    1.075   .     S
C424   C426    1.405   .     A
C425   C429    1.425   .     A
C425   C427    1.418   .     A
C426   C428    1.419   .     A
C426   C430    1.426   .     A
C427   C933    1.389   .     S
C428   C934    1.390   1_554 S
C429   C952    1.424   .     S
C430   C951    1.424   1_554 S
Cu431  O454    1.950   .     S
Cu431  O450    1.946   .     S
Cu431  N446    2.064   .     S
Cu431  O447    1.954   .     S
Cu431  O451    1.956   .     S
Cu431  Cu432   2.747   .     S
Cu432  O453    1.950   .     S
Cu432  O449    1.946   .     S
Cu432  N445    2.064   .     S
Cu432  O452    1.956   .     S
Cu432  O448    1.954   .     S
H439   C477    1.084   .     S
H444   C66     1.085   1_565 S
N445   N504    1.277   .     S
N445   S513    1.738   .     S
S455   O457    1.498   .     D
S455   O456    1.496   .     D
O458   H459    0.991   .     S
O458   S513    1.681   .     S
S460   O462    1.496   .     D
S460   O461    1.498   .     D
S460   N504    1.738   .     S
S460   O521    1.681   .     S
O463   H464    0.991   .     S
C465   C471    1.428   .     S
C465   O505    1.304   .     A
C465   O507    1.309   .     A
C466   O506    1.304   .     A
C466   C472    1.428   .     S
C466   O508    1.309   .     A
C467   H499    1.076   .     S
C467   C488    1.417   .     A
C467   C469    1.386   .     A
C468   H500    1.076   .     S
C468   C470    1.386   .     A
C468   C487    1.417   .     A
C469   H491    1.085   .     S
C469   C1007   1.389   1_554 S
C470   H492    1.084   .     S
C470   C1008   1.390   .     S
C471   C124    1.329   1_565 S
C471   H153    1.085   1_565 S
C473   O509    1.315   .     A
C473   C475    1.466   .     S
C473   O511    1.317   .     A
C474   O510    1.315   .     A
C474   C476    1.464   .     S
C474   O512    1.316   .     A
C475   C481    1.398   .     A
C475   C479    1.400   .     A
C476   C480    1.399   .     A
C476   C482    1.396   .     A
C477   C485    1.403   .     A
C477   C479    1.391   .     A
C478   C486    1.403   .     A
C478   C480    1.391   .     A
C478   H382    1.084   1_655 S
C479   H496    1.083   .     S
C480   H495    1.083   .     S
C481   H494    1.075   .     S
C481   C483    1.405   .     A
C482   H493    1.075   .     S
C482   C484    1.405   .     A
C483   C487    1.425   .     A
C483   C485    1.418   .     A
C484   C486    1.419   .     A
C484   C488    1.426   .     A
C485   C991    1.389   .     S
C486   C992    1.390   1_554 S
C487   C1010   1.424   .     S
C488   C1009   1.424   1_554 S
Cu489  O512    1.950   .     S
Cu489  O508    1.946   .     S
Cu489  N504    2.064   .     S
Cu489  O505    1.954   .     S
Cu489  O509    1.956   .     S
Cu489  Cu490   2.747   .     S
Cu490  O511    1.950   .     S
Cu490  O507    1.946   .     S
Cu490  N503    2.064   .     S
Cu490  O510    1.956   .     S
Cu490  O506    1.954   .     S
H497   C361    1.084   1_655 S
H502   C124    1.085   1_565 S
N503   N388    1.277   1_655 S
N503   S397    1.738   1_655 S
S513   O515    1.498   .     D
S513   O514    1.496   .     D
O516   H517    0.991   .     S
O516   S397    1.681   1_655 S
S518   O520    1.496   .     D
S518   O519    1.498   .     D
S518   N388    1.738   1_655 S
S518   O405    1.681   1_655 S
O521   H522    0.991   .     S
C523   C529    1.428   .     S
C523   O563    1.304   .     A
C523   O565    1.309   .     A
C524   O564    1.304   .     A
C524   C530    1.428   .     S
C524   O566    1.309   .     A
C525   H557    1.076   .     S
C525   C546    1.417   .     A
C525   C527    1.386   .     A
C526   H558    1.076   .     S
C526   C528    1.386   .     A
C526   C545    1.417   .     A
C527   H549    1.085   .     S
C528   H550    1.084   .     S
C528   C22     1.390   1_556 S
C529   C704    1.329   .     S
C529   H733    1.085   .     S
C530   C877    1.329   1_545 S
C530   H908    1.085   1_545 S
C531   O567    1.315   .     A
C531   C533    1.466   .     S
C531   O569    1.317   .     A
C532   O568    1.315   .     A
C532   C534    1.464   .     S
C532   O570    1.316   .     A
C533   C539    1.398   .     A
C533   C537    1.400   .     A
C534   C538    1.399   .     A
C534   C540    1.396   .     A
C535   C543    1.403   .     A
C535   C537    1.391   .     A
C535   H671    1.084   1_455 S
C536   C544    1.403   .     A
C536   C538    1.391   .     A
C536   H614    1.084   .     S
C537   H554    1.083   .     S
C538   H553    1.083   .     S
C539   H552    1.075   .     S
C539   C541    1.405   .     A
C540   H551    1.075   .     S
C540   C542    1.405   .     A
C541   C545    1.425   .     A
C541   C543    1.418   .     A
C542   C544    1.419   .     A
C542   C546    1.426   .     A
C543   C5      1.389   1_556 S
C545   C24     1.424   1_556 S
Cu547  O570    1.950   .     S
Cu547  O566    1.946   .     S
Cu547  N562    2.064   .     S
Cu547  O563    1.954   .     S
Cu547  O567    1.956   .     S
Cu547  Cu548   2.747   .     S
Cu548  O569    1.950   .     S
Cu548  O565    1.946   .     S
Cu548  N561    2.064   .     S
Cu548  O568    1.956   .     S
Cu548  O564    1.954   .     S
H555   C593    1.084   .     S
H556   C652    1.084   1_455 S
H559   C877    1.085   1_545 S
H560   C704    1.085   .     S
N561   N620    1.277   .     S
N561   S629    1.738   .     S
N562   N677    1.277   1_455 S
N562   S692    1.738   1_455 S
S571   O573    1.498   .     D
S571   O572    1.496   .     D
S571   N677    1.738   1_455 S
S571   O690    1.681   1_455 S
O574   H575    0.991   .     S
O574   S629    1.681   .     S
S576   O578    1.496   .     D
S576   O577    1.498   .     D
S576   N620    1.738   .     S
S576   O637    1.681   .     S
O579   H580    0.991   .     S
O579   S692    1.681   1_455 S
C581   C587    1.428   .     S
C581   O621    1.304   .     A
C581   O623    1.309   .     A
C582   O622    1.304   .     A
C582   C588    1.428   .     S
C582   O624    1.309   .     A
C583   H615    1.076   .     S
C583   C604    1.417   .     A
C583   C585    1.386   .     A
C584   H616    1.076   .     S
C584   C586    1.386   .     A
C584   C603    1.417   .     A
C585   H607    1.085   .     S
C586   H608    1.084   .     S
C586   C80     1.390   1_556 S
C587   C762    1.329   .     S
C587   H791    1.085   .     S
C588   C935    1.329   1_545 S
C588   H966    1.085   1_545 S
C589   O625    1.315   .     A
C589   C591    1.466   .     S
C589   O627    1.317   .     A
C590   O626    1.315   .     A
C590   C592    1.464   .     S
C590   O628    1.316   .     A
C591   C597    1.398   .     A
C591   C595    1.400   .     A
C592   C596    1.399   .     A
C592   C598    1.396   .     A
C593   C601    1.403   .     A
C593   C595    1.391   .     A
C594   C602    1.403   .     A
C594   C596    1.391   .     A
C594   H672    1.084   .     S
C595   H612    1.083   .     S
C596   H611    1.083   .     S
C597   H610    1.075   .     S
C597   C599    1.405   .     A
C598   H609    1.075   .     S
C598   C600    1.405   .     A
C599   C603    1.425   .     A
C599   C601    1.418   .     A
C600   C602    1.419   .     A
C600   C604    1.426   .     A
C601   C63     1.389   1_556 S
C603   C82     1.424   1_556 S
Cu605  O628    1.950   .     S
Cu605  O624    1.946   .     S
Cu605  N620    2.064   .     S
Cu605  O621    1.954   .     S
Cu605  O625    1.956   .     S
Cu605  Cu606   2.747   .     S
Cu606  O627    1.950   .     S
Cu606  O623    1.946   .     S
Cu606  N619    2.064   .     S
Cu606  O626    1.956   .     S
Cu606  O622    1.954   .     S
H613   C651    1.084   .     S
H617   C935    1.085   1_545 S
H618   C762    1.085   .     S
N619   N678    1.277   .     S
N619   S687    1.738   .     S
S629   O631    1.498   .     D
S629   O630    1.496   .     D
O632   H633    0.991   .     S
O632   S687    1.681   .     S
S634   O636    1.496   .     D
S634   O635    1.498   .     D
S634   N678    1.738   .     S
S634   O695    1.681   .     S
O637   H638    0.991   .     S
C639   C645    1.428   .     S
C639   O679    1.304   .     A
C639   O681    1.309   .     A
C640   O680    1.304   .     A
C640   C646    1.428   .     S
C640   O682    1.309   .     A
C641   H673    1.076   .     S
C641   C662    1.417   .     A
C641   C643    1.386   .     A
C642   H674    1.076   .     S
C642   C644    1.386   .     A
C642   C661    1.417   .     A
C643   H665    1.085   .     S
C644   H666    1.084   .     S
C644   C138    1.390   1_556 S
C645   C820    1.329   .     S
C645   H849    1.085   .     S
C646   C993    1.329   1_545 S
C646   H1024   1.085   1_545 S
C647   O683    1.315   .     A
C647   C649    1.466   .     S
C647   O685    1.317   .     A
C648   O684    1.315   .     A
C648   C650    1.464   .     S
C648   O686    1.316   .     A
C649   C655    1.398   .     A
C649   C653    1.400   .     A
C650   C654    1.399   .     A
C650   C656    1.396   .     A
C651   C659    1.403   .     A
C651   C653    1.391   .     A
C652   C660    1.403   .     A
C652   C654    1.391   .     A
C652   H556    1.084   1_655 S
C653   H670    1.083   .     S
C654   H669    1.083   .     S
C655   H668    1.075   .     S
C655   C657    1.405   .     A
C656   H667    1.075   .     S
C656   C658    1.405   .     A
C657   C661    1.425   .     A
C657   C659    1.418   .     A
C658   C660    1.419   .     A
C658   C662    1.426   .     A
C659   C121    1.389   1_556 S
C661   C140    1.424   1_556 S
Cu663  O686    1.950   .     S
Cu663  O682    1.946   .     S
Cu663  N678    2.064   .     S
Cu663  O679    1.954   .     S
Cu663  O683    1.956   .     S
Cu663  Cu664   2.747   .     S
Cu664  O685    1.950   .     S
Cu664  O681    1.946   .     S
Cu664  N677    2.064   .     S
Cu664  O684    1.956   .     S
Cu664  O680    1.954   .     S
H671   C535    1.084   1_655 S
H675   C993    1.085   1_545 S
H676   C820    1.085   .     S
N677   N562    1.277   1_655 S
N677   S571    1.738   1_655 S
S687   O689    1.498   .     D
S687   O688    1.496   .     D
O690   H691    0.991   .     S
O690   S571    1.681   1_655 S
S692   O694    1.496   .     D
S692   O693    1.498   .     D
S692   N562    1.738   1_655 S
S692   O579    1.681   1_655 S
O695   H696    0.991   .     S
C697   C703    1.428   .     S
C697   O737    1.304   .     A
C697   O739    1.309   .     A
C698   O738    1.304   .     A
C698   C704    1.428   .     S
C698   O740    1.309   .     A
C699   H731    1.076   .     S
C699   C720    1.417   .     A
C699   C701    1.386   .     A
C700   H732    1.076   .     S
C700   C702    1.386   .     A
C700   C719    1.417   .     A
C701   H723    1.085   .     S
C702   H724    1.084   .     S
C702   C196    1.390   1_556 S
C703   C878    1.329   .     S
C703   H907    1.085   .     S
C705   O741    1.315   .     A
C705   C707    1.466   .     S
C705   O743    1.317   .     A
C706   O742    1.315   .     A
C706   C708    1.464   .     S
C706   O744    1.316   .     A
C707   C713    1.398   .     A
C707   C711    1.400   .     A
C708   C712    1.399   .     A
C708   C714    1.396   .     A
C709   C717    1.403   .     A
C709   C711    1.391   .     A
C709   H845    1.084   1_455 S
C710   C718    1.403   .     A
C710   C712    1.391   .     A
C710   H788    1.084   .     S
C711   H728    1.083   .     S
C712   H727    1.083   .     S
C713   H726    1.075   .     S
C713   C715    1.405   .     A
C714   H725    1.075   .     S
C714   C716    1.405   .     A
C715   C719    1.425   .     A
C715   C717    1.418   .     A
C716   C718    1.419   .     A
C716   C720    1.426   .     A
C717   C179    1.389   1_556 S
C719   C198    1.424   1_556 S
Cu721  O744    1.950   .     S
Cu721  O740    1.946   .     S
Cu721  N736    2.064   .     S
Cu721  O737    1.954   .     S
Cu721  O741    1.956   .     S
Cu721  Cu722   2.747   .     S
Cu722  O743    1.950   .     S
Cu722  O739    1.946   .     S
Cu722  N735    2.064   .     S
Cu722  O742    1.956   .     S
Cu722  O738    1.954   .     S
H729   C767    1.084   .     S
H730   C826    1.084   1_455 S
H734   C878    1.085   .     S
N735   N794    1.277   .     S
N735   S803    1.738   .     S
N736   N851    1.277   1_455 S
N736   S866    1.738   1_455 S
S745   O747    1.498   .     D
S745   O746    1.496   .     D
S745   N851    1.738   1_455 S
S745   O864    1.681   1_455 S
O748   H749    0.991   .     S
O748   S803    1.681   .     S
S750   O752    1.496   .     D
S750   O751    1.498   .     D
S750   N794    1.738   .     S
S750   O811    1.681   .     S
O753   H754    0.991   .     S
O753   S866    1.681   1_455 S
C755   C761    1.428   .     S
C755   O795    1.304   .     A
C755   O797    1.309   .     A
C756   O796    1.304   .     A
C756   C762    1.428   .     S
C756   O798    1.309   .     A
C757   H789    1.076   .     S
C757   C778    1.417   .     A
C757   C759    1.386   .     A
C758   H790    1.076   .     S
C758   C760    1.386   .     A
C758   C777    1.417   .     A
C759   H781    1.085   .     S
C760   H782    1.084   .     S
C760   C254    1.390   1_556 S
C761   C936    1.329   .     S
C761   H965    1.085   .     S
C763   O799    1.315   .     A
C763   C765    1.466   .     S
C763   O801    1.317   .     A
C764   O800    1.315   .     A
C764   C766    1.464   .     S
C764   O802    1.316   .     A
C765   C771    1.398   .     A
C765   C769    1.400   .     A
C766   C770    1.399   .     A
C766   C772    1.396   .     A
C767   C775    1.403   .     A
C767   C769    1.391   .     A
C768   C776    1.403   .     A
C768   C770    1.391   .     A
C768   H846    1.084   .     S
C769   H786    1.083   .     S
C770   H785    1.083   .     S
C771   H784    1.075   .     S
C771   C773    1.405   .     A
C772   H783    1.075   .     S
C772   C774    1.405   .     A
C773   C777    1.425   .     A
C773   C775    1.418   .     A
C774   C776    1.419   .     A
C774   C778    1.426   .     A
C775   C237    1.389   1_556 S
C777   C256    1.424   1_556 S
Cu779  O802    1.950   .     S
Cu779  O798    1.946   .     S
Cu779  N794    2.064   .     S
Cu779  O795    1.954   .     S
Cu779  O799    1.956   .     S
Cu779  Cu780   2.747   .     S
Cu780  O801    1.950   .     S
Cu780  O797    1.946   .     S
Cu780  N793    2.064   .     S
Cu780  O800    1.956   .     S
Cu780  O796    1.954   .     S
H787   C825    1.084   .     S
H792   C936    1.085   .     S
N793   N852    1.277   .     S
N793   S861    1.738   .     S
S803   O805    1.498   .     D
S803   O804    1.496   .     D
O806   H807    0.991   .     S
O806   S861    1.681   .     S
S808   O810    1.496   .     D
S808   O809    1.498   .     D
S808   N852    1.738   .     S
S808   O869    1.681   .     S
O811   H812    0.991   .     S
C813   C819    1.428   .     S
C813   O853    1.304   .     A
C813   O855    1.309   .     A
C814   O854    1.304   .     A
C814   C820    1.428   .     S
C814   O856    1.309   .     A
C815   H847    1.076   .     S
C815   C836    1.417   .     A
C815   C817    1.386   .     A
C816   H848    1.076   .     S
C816   C818    1.386   .     A
C816   C835    1.417   .     A
C817   H839    1.085   .     S
C818   H840    1.084   .     S
C818   C312    1.390   1_556 S
C819   C994    1.329   .     S
C819   H1023   1.085   .     S
C821   O857    1.315   .     A
C821   C823    1.466   .     S
C821   O859    1.317   .     A
C822   O858    1.315   .     A
C822   C824    1.464   .     S
C822   O860    1.316   .     A
C823   C829    1.398   .     A
C823   C827    1.400   .     A
C824   C828    1.399   .     A
C824   C830    1.396   .     A
C825   C833    1.403   .     A
C825   C827    1.391   .     A
C826   C834    1.403   .     A
C826   C828    1.391   .     A
C826   H730    1.084   1_655 S
C827   H844    1.083   .     S
C828   H843    1.083   .     S
C829   H842    1.075   .     S
C829   C831    1.405   .     A
C830   H841    1.075   .     S
C830   C832    1.405   .     A
C831   C835    1.425   .     A
C831   C833    1.418   .     A
C832   C834    1.419   .     A
C832   C836    1.426   .     A
C833   C295    1.389   1_556 S
C835   C314    1.424   1_556 S
Cu837  O860    1.950   .     S
Cu837  O856    1.946   .     S
Cu837  N852    2.064   .     S
Cu837  O853    1.954   .     S
Cu837  O857    1.956   .     S
Cu837  Cu838   2.747   .     S
Cu838  O859    1.950   .     S
Cu838  O855    1.946   .     S
Cu838  N851    2.064   .     S
Cu838  O858    1.956   .     S
Cu838  O854    1.954   .     S
H845   C709    1.084   1_655 S
H850   C994    1.085   .     S
N851   N736    1.277   1_655 S
N851   S745    1.738   1_655 S
S861   O863    1.498   .     D
S861   O862    1.496   .     D
O864   H865    0.991   .     S
O864   S745    1.681   1_655 S
S866   O868    1.496   .     D
S866   O867    1.498   .     D
S866   N736    1.738   1_655 S
S866   O753    1.681   1_655 S
O869   H870    0.991   .     S
C871   C877    1.428   .     S
C871   O911    1.304   .     A
C871   O913    1.309   .     A
C872   O912    1.304   .     A
C872   C878    1.428   .     S
C872   O914    1.309   .     A
C873   H905    1.076   .     S
C873   C894    1.417   .     A
C873   C875    1.386   .     A
C874   H906    1.076   .     S
C874   C876    1.386   .     A
C874   C893    1.417   .     A
C875   H897    1.085   .     S
C876   H898    1.084   .     S
C876   C370    1.390   1_556 S
C877   C530    1.329   1_565 S
C877   H559    1.085   1_565 S
C879   O915    1.315   .     A
C879   C881    1.466   .     S
C879   O917    1.317   .     A
C880   O916    1.315   .     A
C880   C882    1.464   .     S
C880   O918    1.316   .     A
C881   C887    1.398   .     A
C881   C885    1.400   .     A
C882   C886    1.399   .     A
C882   C888    1.396   .     A
C883   C891    1.403   .     A
C883   C885    1.391   .     A
C883   H1019   1.084   1_455 S
C884   C892    1.403   .     A
C884   C886    1.391   .     A
C884   H962    1.084   .     S
C885   H902    1.083   .     S
C886   H901    1.083   .     S
C887   H900    1.075   .     S
C887   C889    1.405   .     A
C888   H899    1.075   .     S
C888   C890    1.405   .     A
C889   C893    1.425   .     A
C889   C891    1.418   .     A
C890   C892    1.419   .     A
C890   C894    1.426   .     A
C891   C353    1.389   1_556 S
C893   C372    1.424   1_556 S
Cu895  O918    1.950   .     S
Cu895  O914    1.946   .     S
Cu895  N910    2.064   .     S
Cu895  O911    1.954   .     S
Cu895  O915    1.956   .     S
Cu895  Cu896   2.747   .     S
Cu896  O917    1.950   .     S
Cu896  O913    1.946   .     S
Cu896  N909    2.064   .     S
Cu896  O916    1.956   .     S
Cu896  O912    1.954   .     S
H903   C941    1.084   .     S
H904   C1000   1.084   1_455 S
H908   C530    1.085   1_565 S
N909   N968    1.277   .     S
N909   S977    1.738   .     S
N910   N1025   1.277   1_455 S
N910   S1040   1.738   1_455 S
S919   O921    1.498   .     D
S919   O920    1.496   .     D
S919   N1025   1.738   1_455 S
S919   O1038   1.681   1_455 S
O922   H923    0.991   .     S
O922   S977    1.681   .     S
S924   O926    1.496   .     D
S924   O925    1.498   .     D
S924   N968    1.738   .     S
S924   O985    1.681   .     S
O927   H928    0.991   .     S
O927   S1040   1.681   1_455 S
C929   C935    1.428   .     S
C929   O969    1.304   .     A
C929   O971    1.309   .     A
C930   O970    1.304   .     A
C930   C936    1.428   .     S
C930   O972    1.309   .     A
C931   H963    1.076   .     S
C931   C952    1.417   .     A
C931   C933    1.386   .     A
C932   H964    1.076   .     S
C932   C934    1.386   .     A
C932   C951    1.417   .     A
C933   H955    1.085   .     S
C934   H956    1.084   .     S
C934   C428    1.390   1_556 S
C935   C588    1.329   1_565 S
C935   H617    1.085   1_565 S
C937   O973    1.315   .     A
C937   C939    1.466   .     S
C937   O975    1.317   .     A
C938   O974    1.315   .     A
C938   C940    1.464   .     S
C938   O976    1.316   .     A
C939   C945    1.398   .     A
C939   C943    1.400   .     A
C940   C944    1.399   .     A
C940   C946    1.396   .     A
C941   C949    1.403   .     A
C941   C943    1.391   .     A
C942   C950    1.403   .     A
C942   C944    1.391   .     A
C942   H1020   1.084   .     S
C943   H960    1.083   .     S
C944   H959    1.083   .     S
C945   H958    1.075   .     S
C945   C947    1.405   .     A
C946   H957    1.075   .     S
C946   C948    1.405   .     A
C947   C951    1.425   .     A
C947   C949    1.418   .     A
C948   C950    1.419   .     A
C948   C952    1.426   .     A
C949   C411    1.389   1_556 S
C951   C430    1.424   1_556 S
Cu953  O976    1.950   .     S
Cu953  O972    1.946   .     S
Cu953  N968    2.064   .     S
Cu953  O969    1.954   .     S
Cu953  O973    1.956   .     S
Cu953  Cu954   2.747   .     S
Cu954  O975    1.950   .     S
Cu954  O971    1.946   .     S
Cu954  N967    2.064   .     S
Cu954  O974    1.956   .     S
Cu954  O970    1.954   .     S
H961   C999    1.084   .     S
H966   C588    1.085   1_565 S
N967   N1026   1.277   .     S
N967   S1035   1.738   .     S
S977   O979    1.498   .     D
S977   O978    1.496   .     D
O980   H981    0.991   .     S
O980   S1035   1.681   .     S
S982   O984    1.496   .     D
S982   O983    1.498   .     D
S982   N1026   1.738   .     S
S982   O1043   1.681   .     S
O985   H986    0.991   .     S
C987   C993    1.428   .     S
C987   O1027   1.304   .     A
C987   O1029   1.309   .     A
C988   O1028   1.304   .     A
C988   C994    1.428   .     S
C988   O1030   1.309   .     A
C989   H1021   1.076   .     S
C989   C1010   1.417   .     A
C989   C991    1.386   .     A
C990   H1022   1.076   .     S
C990   C992    1.386   .     A
C990   C1009   1.417   .     A
C991   H1013   1.085   .     S
C992   H1014   1.084   .     S
C992   C486    1.390   1_556 S
C993   C646    1.329   1_565 S
C993   H675    1.085   1_565 S
C995   O1031   1.315   .     A
C995   C997    1.466   .     S
C995   O1033   1.317   .     A
C996   O1032   1.315   .     A
C996   C998    1.464   .     S
C996   O1034   1.316   .     A
C997   C1003   1.398   .     A
C997   C1001   1.400   .     A
C998   C1002   1.399   .     A
C998   C1004   1.396   .     A
C999   C1007   1.403   .     A
C999   C1001   1.391   .     A
C1000  C1008   1.403   .     A
C1000  C1002   1.391   .     A
C1000  H904    1.084   1_655 S
C1001  H1018   1.083   .     S
C1002  H1017   1.083   .     S
C1003  H1016   1.075   .     S
C1003  C1005   1.405   .     A
C1004  H1015   1.075   .     S
C1004  C1006   1.405   .     A
C1005  C1009   1.425   .     A
C1005  C1007   1.418   .     A
C1006  C1008   1.419   .     A
C1006  C1010   1.426   .     A
C1007  C469    1.389   1_556 S
C1009  C488    1.424   1_556 S
Cu1011 O1034   1.950   .     S
Cu1011 O1030   1.946   .     S
Cu1011 N1026   2.064   .     S
Cu1011 O1027   1.954   .     S
Cu1011 O1031   1.956   .     S
Cu1011 Cu1012  2.747   .     S
Cu1012 O1033   1.950   .     S
Cu1012 O1029   1.946   .     S
Cu1012 N1025   2.064   .     S
Cu1012 O1032   1.956   .     S
Cu1012 O1028   1.954   .     S
H1019  C883    1.084   1_655 S
H1024  C646    1.085   1_565 S
N1025  N910    1.277   1_655 S
N1025  S919    1.738   1_655 S
S1035  O1037   1.498   .     D
S1035  O1036   1.496   .     D
O1038  H1039   0.991   .     S
O1038  S919    1.681   1_655 S
S1040  O1042   1.496   .     D
S1040  O1041   1.498   .     D
S1040  N910    1.738   1_655 S
S1040  O927    1.681   1_655 S
O1043  H1044   0.991   .     S
