data_str_m2_o10_o17_pcu_sym.66
_audit_creation_date              2020-01-03
_audit_creation_method            'Materials Studio'
_symmetry_space_group_name_H-M    'P1'
_symmetry_Int_Tables_number       1
_symmetry_cell_setting            triclinic
loop_
_symmetry_equiv_pos_as_xyz
  x,y,z
_cell_length_a                    30.0796
_cell_length_b                    25.9696
_cell_length_c                    22.3185
_cell_angle_alpha                 103.6749
_cell_angle_beta                  92.6958
_cell_angle_gamma                 88.2932
loop_
_atom_site_label
_atom_site_type_symbol
_atom_site_fract_x
_atom_site_fract_y
_atom_site_fract_z
_atom_site_U_iso_or_equiv
_atom_site_adp_type
_atom_site_occupancy
C1     C     0.24762   0.06666   0.15119   0.00000  Uiso   1.00
C2     C     0.09497   0.12044   0.14848   0.00000  Uiso   1.00
C3     C     0.38369   0.16909   0.15937   0.00000  Uiso   1.00
C4     C     0.11688   0.16824   0.17215   0.00000  Uiso   1.00
C5     C     0.40772   0.12177   0.13891   0.00000  Uiso   1.00
C6     C     0.09336   0.21572   0.19374   0.00000  Uiso   1.00
C7     C     0.45423   0.12145   0.13551   0.00000  Uiso   1.00
C8     C     0.04657   0.21747   0.19051   0.00000  Uiso   1.00
C9     C     0.47681   0.16973   0.15942   0.00000  Uiso   1.00
C10    C     0.02382   0.16984   0.16369   0.00000  Uiso   1.00
C11    C     0.45237   0.21778   0.17955   0.00000  Uiso   1.00
C12    C     0.25008   0.26684   0.18248   0.00000  Uiso   1.00
C13    C     0.04807   0.12190   0.14186   0.00000  Uiso   1.00
C14    C     0.47883   0.07410   0.11082   0.00000  Uiso   1.00
C15    C     0.02207   0.26533   0.21300   0.00000  Uiso   1.00
C16    C     0.37792   0.26904   0.17090   0.00000  Uiso   1.00
C17    C     0.35415   0.26603   0.10722   0.00000  Uiso   1.00
C18    C     0.34325   0.31973   0.09289   0.00000  Uiso   1.00
C19    C     0.12153   0.06790   0.13685   0.00000  Uiso   1.00
C20    C     0.13169   0.04584   0.06852   0.00000  Uiso   1.00
C21    C     0.13596   0.31873   0.05262   0.00000  Uiso   1.00
C22    C     0.45599   0.02174   0.08239   0.00000  Uiso   1.00
C23    C     0.02518   0.07593   0.11386   0.00000  Uiso   1.00
C24    C     0.48662   0.30643   0.05809   0.00000  Uiso   1.00
C25    C     0.46068   0.25674   0.02829   0.00000  Uiso   1.00
C26    C     0.04558   0.31756   0.24177   0.00000  Uiso   1.00
C27    C     0.01544   0.03463   0.25493   0.00000  Uiso   1.00
C28    C     0.04143   0.08551   0.27905   0.00000  Uiso   1.00
C29    C     0.47540   0.26387   0.20814   0.00000  Uiso   1.00
C30    C     0.24436   0.01083   0.14297   0.00000  Uiso   1.00
C31    C     0.24988   0.32299   0.19147   0.00000  Uiso   1.00
C32    C     0.16472   0.16952   0.16887   0.00000  Uiso   1.00
C33    C     0.33556   0.16656   0.16459   0.00000  Uiso   1.00
C34    C     0.40522   0.21820   0.17195   0.00000  Uiso   1.00
Cu35   Cu    0.25500   0.17246   0.22813   0.00000  Uiso   1.00
Cu36   Cu    0.24499   0.16087   0.10521   0.00000  Uiso   1.00
H37    H     0.38947   0.08544   0.12551   0.00000  Uiso   1.00
H38    H     0.36997   0.33130   0.06716   0.00000  Uiso   1.00
H39    H     0.31316   0.31665   0.06161   0.00000  Uiso   1.00
H40    H     0.37300   0.24113   0.06908   0.00000  Uiso   1.00
H41    H     0.32225   0.24722   0.10653   0.00000  Uiso   1.00
H42    H     0.35294   0.27559   0.20722   0.00000  Uiso   1.00
H43    H     0.39826   0.30483   0.18109   0.00000  Uiso   1.00
H44    H     0.16047   0.30520   0.08459   0.00000  Uiso   1.00
H45    H     0.10327   0.30106   0.05608   0.00000  Uiso   1.00
H46    H     0.14702   0.30443   0.00464   0.00000  Uiso   1.00
H47    H     0.10518   0.05723   0.03798   0.00000  Uiso   1.00
H48    H     0.11234   0.25108   0.21240   0.00000  Uiso   1.00
H49    H     0.16311   0.06264   0.05815   0.00000  Uiso   1.00
H50    H     0.15328   0.07175   0.16475   0.00000  Uiso   1.00
H51    H     0.10333   0.03873   0.15478   0.00000  Uiso   1.00
H52    H     0.44679   0.24014   0.06445   0.00000  Uiso   1.00
H53    H     0.43354   0.26549   0.32979   0.00000  Uiso   1.00
H54    H     0.48350   0.22628   0.00164   0.00000  Uiso   1.00
H55    H     0.00816   0.31446   0.02277   0.00000  Uiso   1.00
H56    H     0.00816   0.29787   0.09654   0.00000  Uiso   1.00
H57    H     0.43610   0.01207   0.11856   0.00000  Uiso   1.00
H58    H     0.43401   0.02810   0.04328   0.00000  Uiso   1.00
H59    H     0.04398   0.04078   0.09455   0.00000  Uiso   1.00
H60    H     0.07359   0.08398   0.25633   0.00000  Uiso   1.00
H61    H     0.02131   0.11978   0.27046   0.00000  Uiso   1.00
H62    H     0.04760   0.09249   0.32954   0.00000  Uiso   1.00
H63    H     0.49693   0.03734   0.21176   0.00000  Uiso   1.00
H64    H     0.49074   0.03291   0.28968   0.00000  Uiso   1.00
H65    H     0.06381   0.31398   0.28505   0.00000  Uiso   1.00
H66    H     0.07034   0.32334   0.20897   0.00000  Uiso   1.00
H67    H     0.45676   0.29832   0.23028   0.00000  Uiso   1.00
H68    H     0.23882   0.32019   0.09636   0.00000  Uiso   1.00
H69    H     0.25538   0.01360   0.23816   0.00000  Uiso   1.00
H70    H     0.21589   0.12748   0.31623   0.00000  Uiso   1.00
H71    H     0.28404   0.20591   0.01694   0.00000  Uiso   1.00
H72    H     0.33749   0.01743   0.13560   0.00000  Uiso   1.00
N73    N     0.23744   0.15214   0.01284   0.00000  Uiso   1.00
N74    N     0.26255   0.18119   0.32049   0.00000  Uiso   1.00
O75    O     0.25325   0.09538   0.20659   0.00000  Uiso   1.00
O76    O     0.24674   0.23796   0.12674   0.00000  Uiso   1.00
O77    O     0.24480   0.08559   0.10279   0.00000  Uiso   1.00
O78    O     0.25520   0.24774   0.23055   0.00000  Uiso   1.00
O79    O     0.18935   0.17155   0.21857   0.00000  Uiso   1.00
O80    O     0.31064   0.16179   0.11476   0.00000  Uiso   1.00
O81    O     0.18090   0.16176   0.11477   0.00000  Uiso   1.00
O82    O     0.31910   0.17157   0.21857   0.00000  Uiso   1.00
C83    C     0.74762   0.06666   0.15119   0.00000  Uiso   1.00
C84    C     0.59497   0.12044   0.14848   0.00000  Uiso   1.00
C85    C     0.88369   0.16909   0.15937   0.00000  Uiso   1.00
C86    C     0.61688   0.16824   0.17215   0.00000  Uiso   1.00
C87    C     0.90772   0.12177   0.13891   0.00000  Uiso   1.00
C88    C     0.59336   0.21572   0.19374   0.00000  Uiso   1.00
C89    C     0.95423   0.12145   0.13551   0.00000  Uiso   1.00
C90    C     0.54657   0.21747   0.19051   0.00000  Uiso   1.00
C91    C     0.97681   0.16973   0.15942   0.00000  Uiso   1.00
C92    C     0.52382   0.16984   0.16369   0.00000  Uiso   1.00
C93    C     0.95237   0.21778   0.17955   0.00000  Uiso   1.00
C94    C     0.75008   0.26684   0.18248   0.00000  Uiso   1.00
C95    C     0.54807   0.12190   0.14186   0.00000  Uiso   1.00
C96    C     0.97883   0.07410   0.11082   0.00000  Uiso   1.00
C97    C     0.52207   0.26533   0.21300   0.00000  Uiso   1.00
C98    C     0.87792   0.26904   0.17090   0.00000  Uiso   1.00
C99    C     0.85415   0.26603   0.10722   0.00000  Uiso   1.00
C100   C     0.84325   0.31973   0.09289   0.00000  Uiso   1.00
C101   C     0.62153   0.06790   0.13685   0.00000  Uiso   1.00
C102   C     0.63169   0.04584   0.06852   0.00000  Uiso   1.00
C103   C     0.63596   0.31873   0.05262   0.00000  Uiso   1.00
C104   C     0.95599   0.02174   0.08239   0.00000  Uiso   1.00
C105   C     0.52518   0.07593   0.11386   0.00000  Uiso   1.00
C106   C     0.98662   0.30643   0.05809   0.00000  Uiso   1.00
C107   C     0.96068   0.25674   0.02829   0.00000  Uiso   1.00
C108   C     0.54558   0.31756   0.24177   0.00000  Uiso   1.00
C109   C     0.51544   0.03463   0.25493   0.00000  Uiso   1.00
C110   C     0.54143   0.08551   0.27905   0.00000  Uiso   1.00
C111   C     0.97540   0.26387   0.20814   0.00000  Uiso   1.00
C112   C     0.74436   0.01083   0.14297   0.00000  Uiso   1.00
C113   C     0.74988   0.32299   0.19147   0.00000  Uiso   1.00
C114   C     0.66472   0.16952   0.16887   0.00000  Uiso   1.00
C115   C     0.83556   0.16656   0.16459   0.00000  Uiso   1.00
C116   C     0.90522   0.21820   0.17195   0.00000  Uiso   1.00
Cu117  Cu    0.75500   0.17246   0.22813   0.00000  Uiso   1.00
Cu118  Cu    0.74499   0.16087   0.10521   0.00000  Uiso   1.00
H119   H     0.88947   0.08544   0.12551   0.00000  Uiso   1.00
H120   H     0.86997   0.33130   0.06716   0.00000  Uiso   1.00
H121   H     0.81316   0.31665   0.06161   0.00000  Uiso   1.00
H122   H     0.87300   0.24113   0.06908   0.00000  Uiso   1.00
H123   H     0.82225   0.24722   0.10653   0.00000  Uiso   1.00
H124   H     0.85294   0.27559   0.20722   0.00000  Uiso   1.00
H125   H     0.89826   0.30483   0.18109   0.00000  Uiso   1.00
H126   H     0.66047   0.30520   0.08459   0.00000  Uiso   1.00
H127   H     0.60327   0.30106   0.05608   0.00000  Uiso   1.00
H128   H     0.64702   0.30443   0.00464   0.00000  Uiso   1.00
H129   H     0.60518   0.05723   0.03798   0.00000  Uiso   1.00
H130   H     0.61234   0.25108   0.21240   0.00000  Uiso   1.00
H131   H     0.66311   0.06264   0.05815   0.00000  Uiso   1.00
H132   H     0.65328   0.07175   0.16475   0.00000  Uiso   1.00
H133   H     0.60333   0.03873   0.15478   0.00000  Uiso   1.00
H134   H     0.94679   0.24014   0.06445   0.00000  Uiso   1.00
H135   H     0.93354   0.26549   0.32979   0.00000  Uiso   1.00
H136   H     0.98350   0.22628   0.00164   0.00000  Uiso   1.00
H137   H     0.50816   0.31446   0.02277   0.00000  Uiso   1.00
H138   H     0.50816   0.29787   0.09654   0.00000  Uiso   1.00
H139   H     0.93610   0.01207   0.11856   0.00000  Uiso   1.00
H140   H     0.93401   0.02810   0.04328   0.00000  Uiso   1.00
H141   H     0.54398   0.04078   0.09455   0.00000  Uiso   1.00
H142   H     0.57359   0.08398   0.25633   0.00000  Uiso   1.00
H143   H     0.52131   0.11978   0.27046   0.00000  Uiso   1.00
H144   H     0.54760   0.09249   0.32954   0.00000  Uiso   1.00
H145   H     0.99693   0.03734   0.21176   0.00000  Uiso   1.00
H146   H     0.99074   0.03291   0.28968   0.00000  Uiso   1.00
H147   H     0.56381   0.31398   0.28505   0.00000  Uiso   1.00
H148   H     0.57034   0.32334   0.20897   0.00000  Uiso   1.00
H149   H     0.95676   0.29832   0.23028   0.00000  Uiso   1.00
H150   H     0.73882   0.32019   0.09636   0.00000  Uiso   1.00
H151   H     0.75538   0.01360   0.23816   0.00000  Uiso   1.00
H152   H     0.71589   0.12748   0.31623   0.00000  Uiso   1.00
H153   H     0.78404   0.20591   0.01694   0.00000  Uiso   1.00
H154   H     0.83749   0.01743   0.13560   0.00000  Uiso   1.00
N155   N     0.73744   0.15214   0.01284   0.00000  Uiso   1.00
N156   N     0.76255   0.18119   0.32049   0.00000  Uiso   1.00
O157   O     0.75325   0.09538   0.20659   0.00000  Uiso   1.00
O158   O     0.74674   0.23796   0.12674   0.00000  Uiso   1.00
O159   O     0.74480   0.08559   0.10279   0.00000  Uiso   1.00
O160   O     0.75520   0.24774   0.23055   0.00000  Uiso   1.00
O161   O     0.68935   0.17155   0.21857   0.00000  Uiso   1.00
O162   O     0.81064   0.16179   0.11476   0.00000  Uiso   1.00
O163   O     0.68090   0.16176   0.11477   0.00000  Uiso   1.00
O164   O     0.81910   0.17157   0.21857   0.00000  Uiso   1.00
C165   C     0.24762   0.39999   0.15119   0.00000  Uiso   1.00
C166   C     0.09497   0.45378   0.14848   0.00000  Uiso   1.00
C167   C     0.38369   0.50242   0.15937   0.00000  Uiso   1.00
C168   C     0.11688   0.50157   0.17215   0.00000  Uiso   1.00
C169   C     0.40772   0.45511   0.13891   0.00000  Uiso   1.00
C170   C     0.09336   0.54905   0.19374   0.00000  Uiso   1.00
C171   C     0.45423   0.45479   0.13551   0.00000  Uiso   1.00
C172   C     0.04657   0.55080   0.19051   0.00000  Uiso   1.00
C173   C     0.47681   0.50306   0.15942   0.00000  Uiso   1.00
C174   C     0.02382   0.50317   0.16369   0.00000  Uiso   1.00
C175   C     0.45237   0.55112   0.17955   0.00000  Uiso   1.00
C176   C     0.25008   0.60017   0.18248   0.00000  Uiso   1.00
C177   C     0.04807   0.45523   0.14186   0.00000  Uiso   1.00
C178   C     0.47883   0.40744   0.11082   0.00000  Uiso   1.00
C179   C     0.02207   0.59867   0.21300   0.00000  Uiso   1.00
C180   C     0.37792   0.60237   0.17090   0.00000  Uiso   1.00
C181   C     0.35415   0.59937   0.10722   0.00000  Uiso   1.00
C182   C     0.34325   0.65306   0.09289   0.00000  Uiso   1.00
C183   C     0.12153   0.40123   0.13685   0.00000  Uiso   1.00
C184   C     0.13169   0.37918   0.06852   0.00000  Uiso   1.00
C185   C     0.13596   0.65207   0.05262   0.00000  Uiso   1.00
C186   C     0.45599   0.35508   0.08239   0.00000  Uiso   1.00
C187   C     0.02518   0.40927   0.11386   0.00000  Uiso   1.00
C188   C     0.48662   0.63976   0.05809   0.00000  Uiso   1.00
C189   C     0.46068   0.59008   0.02829   0.00000  Uiso   1.00
C190   C     0.04558   0.65089   0.24177   0.00000  Uiso   1.00
C191   C     0.01544   0.36796   0.25493   0.00000  Uiso   1.00
C192   C     0.04143   0.41884   0.27905   0.00000  Uiso   1.00
C193   C     0.47540   0.59720   0.20814   0.00000  Uiso   1.00
C194   C     0.24436   0.34416   0.14297   0.00000  Uiso   1.00
C195   C     0.24988   0.65633   0.19147   0.00000  Uiso   1.00
C196   C     0.16472   0.50286   0.16887   0.00000  Uiso   1.00
C197   C     0.33556   0.49990   0.16459   0.00000  Uiso   1.00
C198   C     0.40522   0.55154   0.17195   0.00000  Uiso   1.00
Cu199  Cu    0.25500   0.50579   0.22813   0.00000  Uiso   1.00
Cu200  Cu    0.24499   0.49421   0.10521   0.00000  Uiso   1.00
H201   H     0.38947   0.41878   0.12551   0.00000  Uiso   1.00
H202   H     0.36997   0.66463   0.06716   0.00000  Uiso   1.00
H203   H     0.31316   0.64998   0.06161   0.00000  Uiso   1.00
H204   H     0.37300   0.57446   0.06908   0.00000  Uiso   1.00
H205   H     0.32225   0.58056   0.10653   0.00000  Uiso   1.00
H206   H     0.35294   0.60893   0.20722   0.00000  Uiso   1.00
H207   H     0.39826   0.63816   0.18109   0.00000  Uiso   1.00
H208   H     0.16047   0.63853   0.08459   0.00000  Uiso   1.00
H209   H     0.10327   0.63439   0.05608   0.00000  Uiso   1.00
H210   H     0.14702   0.63776   0.00464   0.00000  Uiso   1.00
H211   H     0.10518   0.39056   0.03798   0.00000  Uiso   1.00
H212   H     0.11234   0.58441   0.21240   0.00000  Uiso   1.00
H213   H     0.16311   0.39597   0.05815   0.00000  Uiso   1.00
H214   H     0.15328   0.40509   0.16475   0.00000  Uiso   1.00
H215   H     0.10333   0.37207   0.15478   0.00000  Uiso   1.00
H216   H     0.44679   0.57347   0.06445   0.00000  Uiso   1.00
H217   H     0.43354   0.59882   0.32979   0.00000  Uiso   1.00
H218   H     0.48350   0.55961   0.00164   0.00000  Uiso   1.00
H219   H     0.00816   0.64780   0.02277   0.00000  Uiso   1.00
H220   H     0.00816   0.63120   0.09654   0.00000  Uiso   1.00
H221   H     0.43610   0.34541   0.11856   0.00000  Uiso   1.00
H222   H     0.43401   0.36143   0.04328   0.00000  Uiso   1.00
H223   H     0.04398   0.37411   0.09455   0.00000  Uiso   1.00
H224   H     0.07359   0.41731   0.25633   0.00000  Uiso   1.00
H225   H     0.02131   0.45312   0.27046   0.00000  Uiso   1.00
H226   H     0.04760   0.42582   0.32954   0.00000  Uiso   1.00
H227   H     0.49693   0.37068   0.21176   0.00000  Uiso   1.00
H228   H     0.49074   0.36624   0.28968   0.00000  Uiso   1.00
H229   H     0.06381   0.64731   0.28505   0.00000  Uiso   1.00
H230   H     0.07034   0.65668   0.20897   0.00000  Uiso   1.00
H231   H     0.45676   0.63166   0.23028   0.00000  Uiso   1.00
H232   H     0.23882   0.65352   0.09636   0.00000  Uiso   1.00
H233   H     0.25538   0.34693   0.23816   0.00000  Uiso   1.00
H234   H     0.21589   0.46081   0.31623   0.00000  Uiso   1.00
H235   H     0.28404   0.53924   0.01694   0.00000  Uiso   1.00
H236   H     0.33749   0.35076   0.13560   0.00000  Uiso   1.00
N237   N     0.23744   0.48547   0.01284   0.00000  Uiso   1.00
N238   N     0.26255   0.51453   0.32049   0.00000  Uiso   1.00
O239   O     0.25325   0.42871   0.20659   0.00000  Uiso   1.00
O240   O     0.24674   0.57129   0.12674   0.00000  Uiso   1.00
O241   O     0.24480   0.41892   0.10279   0.00000  Uiso   1.00
O242   O     0.25520   0.58108   0.23055   0.00000  Uiso   1.00
O243   O     0.18935   0.50488   0.21857   0.00000  Uiso   1.00
O244   O     0.31064   0.49512   0.11476   0.00000  Uiso   1.00
O245   O     0.18090   0.49510   0.11477   0.00000  Uiso   1.00
O246   O     0.31910   0.50490   0.21857   0.00000  Uiso   1.00
C247   C     0.74762   0.39999   0.15119   0.00000  Uiso   1.00
C248   C     0.59497   0.45378   0.14848   0.00000  Uiso   1.00
C249   C     0.88369   0.50242   0.15937   0.00000  Uiso   1.00
C250   C     0.61688   0.50157   0.17215   0.00000  Uiso   1.00
C251   C     0.90772   0.45511   0.13891   0.00000  Uiso   1.00
C252   C     0.59336   0.54905   0.19374   0.00000  Uiso   1.00
C253   C     0.95423   0.45479   0.13551   0.00000  Uiso   1.00
C254   C     0.54657   0.55080   0.19051   0.00000  Uiso   1.00
C255   C     0.97681   0.50306   0.15942   0.00000  Uiso   1.00
C256   C     0.52382   0.50317   0.16369   0.00000  Uiso   1.00
C257   C     0.95237   0.55112   0.17955   0.00000  Uiso   1.00
C258   C     0.75008   0.60017   0.18248   0.00000  Uiso   1.00
C259   C     0.54807   0.45523   0.14186   0.00000  Uiso   1.00
C260   C     0.97883   0.40744   0.11082   0.00000  Uiso   1.00
C261   C     0.52207   0.59867   0.21300   0.00000  Uiso   1.00
C262   C     0.87792   0.60237   0.17090   0.00000  Uiso   1.00
C263   C     0.85415   0.59937   0.10722   0.00000  Uiso   1.00
C264   C     0.84325   0.65306   0.09289   0.00000  Uiso   1.00
C265   C     0.62153   0.40123   0.13685   0.00000  Uiso   1.00
C266   C     0.63169   0.37918   0.06852   0.00000  Uiso   1.00
C267   C     0.63596   0.65207   0.05262   0.00000  Uiso   1.00
C268   C     0.95599   0.35508   0.08239   0.00000  Uiso   1.00
C269   C     0.52518   0.40927   0.11386   0.00000  Uiso   1.00
C270   C     0.98662   0.63976   0.05809   0.00000  Uiso   1.00
C271   C     0.96068   0.59008   0.02829   0.00000  Uiso   1.00
C272   C     0.54558   0.65089   0.24177   0.00000  Uiso   1.00
C273   C     0.51544   0.36796   0.25493   0.00000  Uiso   1.00
C274   C     0.54143   0.41884   0.27905   0.00000  Uiso   1.00
C275   C     0.97540   0.59720   0.20814   0.00000  Uiso   1.00
C276   C     0.74436   0.34416   0.14297   0.00000  Uiso   1.00
C277   C     0.74988   0.65633   0.19147   0.00000  Uiso   1.00
C278   C     0.66472   0.50286   0.16887   0.00000  Uiso   1.00
C279   C     0.83556   0.49990   0.16459   0.00000  Uiso   1.00
C280   C     0.90522   0.55154   0.17195   0.00000  Uiso   1.00
Cu281  Cu    0.75500   0.50579   0.22813   0.00000  Uiso   1.00
Cu282  Cu    0.74499   0.49421   0.10521   0.00000  Uiso   1.00
H283   H     0.88947   0.41878   0.12551   0.00000  Uiso   1.00
H284   H     0.86997   0.66463   0.06716   0.00000  Uiso   1.00
H285   H     0.81316   0.64998   0.06161   0.00000  Uiso   1.00
H286   H     0.87300   0.57446   0.06908   0.00000  Uiso   1.00
H287   H     0.82225   0.58056   0.10653   0.00000  Uiso   1.00
H288   H     0.85294   0.60893   0.20722   0.00000  Uiso   1.00
H289   H     0.89826   0.63816   0.18109   0.00000  Uiso   1.00
H290   H     0.66047   0.63853   0.08459   0.00000  Uiso   1.00
H291   H     0.60327   0.63439   0.05608   0.00000  Uiso   1.00
H292   H     0.64702   0.63776   0.00464   0.00000  Uiso   1.00
H293   H     0.60518   0.39056   0.03798   0.00000  Uiso   1.00
H294   H     0.61234   0.58441   0.21240   0.00000  Uiso   1.00
H295   H     0.66311   0.39597   0.05815   0.00000  Uiso   1.00
H296   H     0.65328   0.40509   0.16475   0.00000  Uiso   1.00
H297   H     0.60333   0.37207   0.15478   0.00000  Uiso   1.00
H298   H     0.94679   0.57347   0.06445   0.00000  Uiso   1.00
H299   H     0.93354   0.59882   0.32979   0.00000  Uiso   1.00
H300   H     0.98350   0.55961   0.00164   0.00000  Uiso   1.00
H301   H     0.50816   0.64780   0.02277   0.00000  Uiso   1.00
H302   H     0.50816   0.63120   0.09654   0.00000  Uiso   1.00
H303   H     0.93610   0.34541   0.11856   0.00000  Uiso   1.00
H304   H     0.93401   0.36143   0.04328   0.00000  Uiso   1.00
H305   H     0.54398   0.37411   0.09455   0.00000  Uiso   1.00
H306   H     0.57359   0.41731   0.25633   0.00000  Uiso   1.00
H307   H     0.52131   0.45312   0.27046   0.00000  Uiso   1.00
H308   H     0.54760   0.42582   0.32954   0.00000  Uiso   1.00
H309   H     0.99693   0.37068   0.21176   0.00000  Uiso   1.00
H310   H     0.99074   0.36624   0.28968   0.00000  Uiso   1.00
H311   H     0.56381   0.64731   0.28505   0.00000  Uiso   1.00
H312   H     0.57034   0.65668   0.20897   0.00000  Uiso   1.00
H313   H     0.95676   0.63166   0.23028   0.00000  Uiso   1.00
H314   H     0.73882   0.65352   0.09636   0.00000  Uiso   1.00
H315   H     0.75538   0.34693   0.23816   0.00000  Uiso   1.00
H316   H     0.71589   0.46081   0.31623   0.00000  Uiso   1.00
H317   H     0.78404   0.53924   0.01694   0.00000  Uiso   1.00
H318   H     0.83749   0.35076   0.13560   0.00000  Uiso   1.00
N319   N     0.73744   0.48547   0.01284   0.00000  Uiso   1.00
N320   N     0.76255   0.51453   0.32049   0.00000  Uiso   1.00
O321   O     0.75325   0.42871   0.20659   0.00000  Uiso   1.00
O322   O     0.74674   0.57129   0.12674   0.00000  Uiso   1.00
O323   O     0.74480   0.41892   0.10279   0.00000  Uiso   1.00
O324   O     0.75520   0.58108   0.23055   0.00000  Uiso   1.00
O325   O     0.68935   0.50488   0.21857   0.00000  Uiso   1.00
O326   O     0.81064   0.49512   0.11476   0.00000  Uiso   1.00
O327   O     0.68090   0.49510   0.11477   0.00000  Uiso   1.00
O328   O     0.81910   0.50490   0.21857   0.00000  Uiso   1.00
C329   C     0.24762   0.73333   0.15119   0.00000  Uiso   1.00
C330   C     0.09497   0.78711   0.14848   0.00000  Uiso   1.00
C331   C     0.38369   0.83575   0.15937   0.00000  Uiso   1.00
C332   C     0.11688   0.83491   0.17215   0.00000  Uiso   1.00
C333   C     0.40772   0.78844   0.13891   0.00000  Uiso   1.00
C334   C     0.09336   0.88239   0.19374   0.00000  Uiso   1.00
C335   C     0.45423   0.78812   0.13551   0.00000  Uiso   1.00
C336   C     0.04657   0.88413   0.19051   0.00000  Uiso   1.00
C337   C     0.47681   0.83639   0.15942   0.00000  Uiso   1.00
C338   C     0.02382   0.83651   0.16369   0.00000  Uiso   1.00
C339   C     0.45237   0.88445   0.17955   0.00000  Uiso   1.00
C340   C     0.25008   0.93350   0.18248   0.00000  Uiso   1.00
C341   C     0.04807   0.78856   0.14186   0.00000  Uiso   1.00
C342   C     0.47883   0.74077   0.11082   0.00000  Uiso   1.00
C343   C     0.02207   0.93200   0.21300   0.00000  Uiso   1.00
C344   C     0.37792   0.93570   0.17090   0.00000  Uiso   1.00
C345   C     0.35415   0.93270   0.10722   0.00000  Uiso   1.00
C346   C     0.34325   0.98639   0.09289   0.00000  Uiso   1.00
C347   C     0.12153   0.73457   0.13685   0.00000  Uiso   1.00
C348   C     0.13169   0.71251   0.06852   0.00000  Uiso   1.00
C349   C     0.13596   0.98540   0.05262   0.00000  Uiso   1.00
C350   C     0.45599   0.68841   0.08239   0.00000  Uiso   1.00
C351   C     0.02518   0.74260   0.11386   0.00000  Uiso   1.00
C352   C     0.48662   0.97309   0.05809   0.00000  Uiso   1.00
C353   C     0.46068   0.92341   0.02829   0.00000  Uiso   1.00
C354   C     0.04558   0.98422   0.24177   0.00000  Uiso   1.00
C355   C     0.01544   0.70129   0.25493   0.00000  Uiso   1.00
C356   C     0.04143   0.75217   0.27905   0.00000  Uiso   1.00
C357   C     0.47540   0.93054   0.20814   0.00000  Uiso   1.00
C358   C     0.24436   0.67749   0.14297   0.00000  Uiso   1.00
C359   C     0.24988   0.98966   0.19147   0.00000  Uiso   1.00
C360   C     0.16472   0.83619   0.16887   0.00000  Uiso   1.00
C361   C     0.33556   0.83323   0.16459   0.00000  Uiso   1.00
C362   C     0.40522   0.88487   0.17195   0.00000  Uiso   1.00
Cu363  Cu    0.25500   0.83913   0.22813   0.00000  Uiso   1.00
Cu364  Cu    0.24499   0.82754   0.10521   0.00000  Uiso   1.00
H365   H     0.38947   0.75211   0.12551   0.00000  Uiso   1.00
H366   H     0.36997   0.99797   0.06716   0.00000  Uiso   1.00
H367   H     0.31316   0.98332   0.06161   0.00000  Uiso   1.00
H368   H     0.37300   0.90779   0.06908   0.00000  Uiso   1.00
H369   H     0.32225   0.91389   0.10653   0.00000  Uiso   1.00
H370   H     0.35294   0.94226   0.20722   0.00000  Uiso   1.00
H371   H     0.39826   0.97150   0.18109   0.00000  Uiso   1.00
H372   H     0.16047   0.97187   0.08459   0.00000  Uiso   1.00
H373   H     0.10327   0.96772   0.05608   0.00000  Uiso   1.00
H374   H     0.14702   0.97109   0.00464   0.00000  Uiso   1.00
H375   H     0.10518   0.72389   0.03798   0.00000  Uiso   1.00
H376   H     0.11234   0.91775   0.21240   0.00000  Uiso   1.00
H377   H     0.16311   0.72930   0.05815   0.00000  Uiso   1.00
H378   H     0.15328   0.73842   0.16475   0.00000  Uiso   1.00
H379   H     0.10333   0.70540   0.15478   0.00000  Uiso   1.00
H380   H     0.44679   0.90681   0.06445   0.00000  Uiso   1.00
H381   H     0.43354   0.93215   0.32979   0.00000  Uiso   1.00
H382   H     0.48350   0.89295   0.00164   0.00000  Uiso   1.00
H383   H     0.00816   0.98113   0.02277   0.00000  Uiso   1.00
H384   H     0.00816   0.96453   0.09654   0.00000  Uiso   1.00
H385   H     0.43610   0.67874   0.11856   0.00000  Uiso   1.00
H386   H     0.43401   0.69476   0.04328   0.00000  Uiso   1.00
H387   H     0.04398   0.70745   0.09455   0.00000  Uiso   1.00
H388   H     0.07359   0.75064   0.25633   0.00000  Uiso   1.00
H389   H     0.02131   0.78645   0.27046   0.00000  Uiso   1.00
H390   H     0.04760   0.75915   0.32954   0.00000  Uiso   1.00
H391   H     0.49693   0.70401   0.21176   0.00000  Uiso   1.00
H392   H     0.49074   0.69957   0.28968   0.00000  Uiso   1.00
H393   H     0.06381   0.98065   0.28505   0.00000  Uiso   1.00
H394   H     0.07034   0.99001   0.20897   0.00000  Uiso   1.00
H395   H     0.45676   0.96499   0.23028   0.00000  Uiso   1.00
H396   H     0.23882   0.98685   0.09636   0.00000  Uiso   1.00
H397   H     0.25538   0.68026   0.23816   0.00000  Uiso   1.00
H398   H     0.21589   0.79415   0.31623   0.00000  Uiso   1.00
H399   H     0.28404   0.87257   0.01694   0.00000  Uiso   1.00
H400   H     0.33749   0.68409   0.13560   0.00000  Uiso   1.00
N401   N     0.23744   0.81881   0.01284   0.00000  Uiso   1.00
N402   N     0.26255   0.84786   0.32049   0.00000  Uiso   1.00
O403   O     0.25325   0.76204   0.20659   0.00000  Uiso   1.00
O404   O     0.24674   0.90462   0.12674   0.00000  Uiso   1.00
O405   O     0.24480   0.75226   0.10279   0.00000  Uiso   1.00
O406   O     0.25520   0.91441   0.23055   0.00000  Uiso   1.00
O407   O     0.18935   0.83821   0.21857   0.00000  Uiso   1.00
O408   O     0.31064   0.82845   0.11476   0.00000  Uiso   1.00
O409   O     0.18090   0.82843   0.11477   0.00000  Uiso   1.00
O410   O     0.31910   0.83824   0.21857   0.00000  Uiso   1.00
C411   C     0.74762   0.73333   0.15119   0.00000  Uiso   1.00
C412   C     0.59497   0.78711   0.14848   0.00000  Uiso   1.00
C413   C     0.88369   0.83575   0.15937   0.00000  Uiso   1.00
C414   C     0.61688   0.83491   0.17215   0.00000  Uiso   1.00
C415   C     0.90772   0.78844   0.13891   0.00000  Uiso   1.00
C416   C     0.59336   0.88239   0.19374   0.00000  Uiso   1.00
C417   C     0.95423   0.78812   0.13551   0.00000  Uiso   1.00
C418   C     0.54657   0.88413   0.19051   0.00000  Uiso   1.00
C419   C     0.97681   0.83639   0.15942   0.00000  Uiso   1.00
C420   C     0.52382   0.83651   0.16369   0.00000  Uiso   1.00
C421   C     0.95237   0.88445   0.17955   0.00000  Uiso   1.00
C422   C     0.75008   0.93350   0.18248   0.00000  Uiso   1.00
C423   C     0.54807   0.78856   0.14186   0.00000  Uiso   1.00
C424   C     0.97883   0.74077   0.11082   0.00000  Uiso   1.00
C425   C     0.52207   0.93200   0.21300   0.00000  Uiso   1.00
C426   C     0.87792   0.93570   0.17090   0.00000  Uiso   1.00
C427   C     0.85415   0.93270   0.10722   0.00000  Uiso   1.00
C428   C     0.84325   0.98639   0.09289   0.00000  Uiso   1.00
C429   C     0.62153   0.73457   0.13685   0.00000  Uiso   1.00
C430   C     0.63169   0.71251   0.06852   0.00000  Uiso   1.00
C431   C     0.63596   0.98540   0.05262   0.00000  Uiso   1.00
C432   C     0.95599   0.68841   0.08239   0.00000  Uiso   1.00
C433   C     0.52518   0.74260   0.11386   0.00000  Uiso   1.00
C434   C     0.98662   0.97309   0.05809   0.00000  Uiso   1.00
C435   C     0.96068   0.92341   0.02829   0.00000  Uiso   1.00
C436   C     0.54558   0.98422   0.24177   0.00000  Uiso   1.00
C437   C     0.51544   0.70129   0.25493   0.00000  Uiso   1.00
C438   C     0.54143   0.75217   0.27905   0.00000  Uiso   1.00
C439   C     0.97540   0.93054   0.20814   0.00000  Uiso   1.00
C440   C     0.74436   0.67749   0.14297   0.00000  Uiso   1.00
C441   C     0.74988   0.98966   0.19147   0.00000  Uiso   1.00
C442   C     0.66472   0.83619   0.16887   0.00000  Uiso   1.00
C443   C     0.83556   0.83323   0.16459   0.00000  Uiso   1.00
C444   C     0.90522   0.88487   0.17195   0.00000  Uiso   1.00
Cu445  Cu    0.75500   0.83913   0.22813   0.00000  Uiso   1.00
Cu446  Cu    0.74499   0.82754   0.10521   0.00000  Uiso   1.00
H447   H     0.88947   0.75211   0.12551   0.00000  Uiso   1.00
H448   H     0.86997   0.99797   0.06716   0.00000  Uiso   1.00
H449   H     0.81316   0.98332   0.06161   0.00000  Uiso   1.00
H450   H     0.87300   0.90779   0.06908   0.00000  Uiso   1.00
H451   H     0.82225   0.91389   0.10653   0.00000  Uiso   1.00
H452   H     0.85294   0.94226   0.20722   0.00000  Uiso   1.00
H453   H     0.89826   0.97150   0.18109   0.00000  Uiso   1.00
H454   H     0.66047   0.97187   0.08459   0.00000  Uiso   1.00
H455   H     0.60327   0.96772   0.05608   0.00000  Uiso   1.00
H456   H     0.64702   0.97109   0.00464   0.00000  Uiso   1.00
H457   H     0.60518   0.72389   0.03798   0.00000  Uiso   1.00
H458   H     0.61234   0.91775   0.21240   0.00000  Uiso   1.00
H459   H     0.66311   0.72930   0.05815   0.00000  Uiso   1.00
H460   H     0.65328   0.73842   0.16475   0.00000  Uiso   1.00
H461   H     0.60333   0.70540   0.15478   0.00000  Uiso   1.00
H462   H     0.94679   0.90681   0.06445   0.00000  Uiso   1.00
H463   H     0.93354   0.93215   0.32979   0.00000  Uiso   1.00
H464   H     0.98350   0.89295   0.00164   0.00000  Uiso   1.00
H465   H     0.50816   0.98113   0.02277   0.00000  Uiso   1.00
H466   H     0.50816   0.96453   0.09654   0.00000  Uiso   1.00
H467   H     0.93610   0.67874   0.11856   0.00000  Uiso   1.00
H468   H     0.93401   0.69476   0.04328   0.00000  Uiso   1.00
H469   H     0.54398   0.70745   0.09455   0.00000  Uiso   1.00
H470   H     0.57359   0.75064   0.25633   0.00000  Uiso   1.00
H471   H     0.52131   0.78645   0.27046   0.00000  Uiso   1.00
H472   H     0.54760   0.75915   0.32954   0.00000  Uiso   1.00
H473   H     0.99693   0.70401   0.21176   0.00000  Uiso   1.00
H474   H     0.99074   0.69957   0.28968   0.00000  Uiso   1.00
H475   H     0.56381   0.98065   0.28505   0.00000  Uiso   1.00
H476   H     0.57034   0.99001   0.20897   0.00000  Uiso   1.00
H477   H     0.95676   0.96499   0.23028   0.00000  Uiso   1.00
H478   H     0.73882   0.98685   0.09636   0.00000  Uiso   1.00
H479   H     0.75538   0.68026   0.23816   0.00000  Uiso   1.00
H480   H     0.71589   0.79415   0.31623   0.00000  Uiso   1.00
H481   H     0.78404   0.87257   0.01694   0.00000  Uiso   1.00
H482   H     0.83749   0.68409   0.13560   0.00000  Uiso   1.00
N483   N     0.73744   0.81881   0.01284   0.00000  Uiso   1.00
N484   N     0.76255   0.84786   0.32049   0.00000  Uiso   1.00
O485   O     0.75325   0.76204   0.20659   0.00000  Uiso   1.00
O486   O     0.74674   0.90462   0.12674   0.00000  Uiso   1.00
O487   O     0.74480   0.75226   0.10279   0.00000  Uiso   1.00
O488   O     0.75520   0.91441   0.23055   0.00000  Uiso   1.00
O489   O     0.68935   0.83821   0.21857   0.00000  Uiso   1.00
O490   O     0.81064   0.82845   0.11476   0.00000  Uiso   1.00
O491   O     0.68090   0.82843   0.11477   0.00000  Uiso   1.00
O492   O     0.81910   0.83824   0.21857   0.00000  Uiso   1.00
C493   C     0.24762   0.06666   0.48453   0.00000  Uiso   1.00
C494   C     0.09497   0.12044   0.48181   0.00000  Uiso   1.00
C495   C     0.38369   0.16909   0.49270   0.00000  Uiso   1.00
C496   C     0.11688   0.16824   0.50549   0.00000  Uiso   1.00
C497   C     0.40772   0.12177   0.47224   0.00000  Uiso   1.00
C498   C     0.09336   0.21572   0.52707   0.00000  Uiso   1.00
C499   C     0.45423   0.12145   0.46885   0.00000  Uiso   1.00
C500   C     0.04657   0.21747   0.52384   0.00000  Uiso   1.00
C501   C     0.47681   0.16973   0.49275   0.00000  Uiso   1.00
C502   C     0.02382   0.16984   0.49702   0.00000  Uiso   1.00
C503   C     0.45237   0.21778   0.51288   0.00000  Uiso   1.00
C504   C     0.25008   0.26684   0.51581   0.00000  Uiso   1.00
C505   C     0.04807   0.12190   0.47519   0.00000  Uiso   1.00
C506   C     0.47883   0.07410   0.44416   0.00000  Uiso   1.00
C507   C     0.02207   0.26533   0.54633   0.00000  Uiso   1.00
C508   C     0.37792   0.26904   0.50423   0.00000  Uiso   1.00
C509   C     0.35415   0.26603   0.44055   0.00000  Uiso   1.00
C510   C     0.34325   0.31973   0.42622   0.00000  Uiso   1.00
C511   C     0.12153   0.06790   0.47018   0.00000  Uiso   1.00
C512   C     0.13169   0.04584   0.40186   0.00000  Uiso   1.00
C513   C     0.13596   0.31873   0.38596   0.00000  Uiso   1.00
C514   C     0.45599   0.02174   0.41572   0.00000  Uiso   1.00
C515   C     0.02518   0.07593   0.44719   0.00000  Uiso   1.00
C516   C     0.48662   0.30643   0.39143   0.00000  Uiso   1.00
C517   C     0.46068   0.25674   0.36162   0.00000  Uiso   1.00
C518   C     0.04558   0.31756   0.57511   0.00000  Uiso   1.00
C519   C     0.01544   0.03463   0.58826   0.00000  Uiso   1.00
C520   C     0.04143   0.08551   0.61239   0.00000  Uiso   1.00
C521   C     0.47540   0.26387   0.54147   0.00000  Uiso   1.00
C522   C     0.24436   0.01083   0.47631   0.00000  Uiso   1.00
C523   C     0.24988   0.32299   0.52481   0.00000  Uiso   1.00
C524   C     0.16472   0.16952   0.50221   0.00000  Uiso   1.00
C525   C     0.33556   0.16656   0.49792   0.00000  Uiso   1.00
C526   C     0.40522   0.21820   0.50528   0.00000  Uiso   1.00
Cu527  Cu    0.25500   0.17246   0.56146   0.00000  Uiso   1.00
Cu528  Cu    0.24499   0.16087   0.43854   0.00000  Uiso   1.00
H529   H     0.38947   0.08544   0.45884   0.00000  Uiso   1.00
H530   H     0.36997   0.33130   0.40049   0.00000  Uiso   1.00
H531   H     0.31316   0.31665   0.39494   0.00000  Uiso   1.00
H532   H     0.37300   0.24113   0.40241   0.00000  Uiso   1.00
H533   H     0.32225   0.24722   0.43987   0.00000  Uiso   1.00
H534   H     0.35294   0.27559   0.54055   0.00000  Uiso   1.00
H535   H     0.39826   0.30483   0.51443   0.00000  Uiso   1.00
H536   H     0.16047   0.30520   0.41792   0.00000  Uiso   1.00
H537   H     0.10327   0.30106   0.38941   0.00000  Uiso   1.00
H538   H     0.14702   0.30443   0.33798   0.00000  Uiso   1.00
H539   H     0.10518   0.05723   0.37132   0.00000  Uiso   1.00
H540   H     0.11234   0.25108   0.54574   0.00000  Uiso   1.00
H541   H     0.16311   0.06264   0.39149   0.00000  Uiso   1.00
H542   H     0.15328   0.07175   0.49809   0.00000  Uiso   1.00
H543   H     0.10333   0.03873   0.48811   0.00000  Uiso   1.00
H544   H     0.44679   0.24014   0.39778   0.00000  Uiso   1.00
H545   H     0.43354   0.26549   0.66312   0.00000  Uiso   1.00
H546   H     0.48350   0.22628   0.33497   0.00000  Uiso   1.00
H547   H     0.00816   0.31446   0.35611   0.00000  Uiso   1.00
H548   H     0.00816   0.29787   0.42988   0.00000  Uiso   1.00
H549   H     0.43610   0.01207   0.45190   0.00000  Uiso   1.00
H550   H     0.43401   0.02810   0.37661   0.00000  Uiso   1.00
H551   H     0.04398   0.04078   0.42789   0.00000  Uiso   1.00
H552   H     0.07359   0.08398   0.58966   0.00000  Uiso   1.00
H553   H     0.02131   0.11978   0.60379   0.00000  Uiso   1.00
H554   H     0.04760   0.09249   0.66287   0.00000  Uiso   1.00
H555   H     0.49693   0.03734   0.54509   0.00000  Uiso   1.00
H556   H     0.49074   0.03291   0.62301   0.00000  Uiso   1.00
H557   H     0.06381   0.31398   0.61838   0.00000  Uiso   1.00
H558   H     0.07034   0.32334   0.54230   0.00000  Uiso   1.00
H559   H     0.45676   0.29832   0.56361   0.00000  Uiso   1.00
H560   H     0.23882   0.32019   0.42969   0.00000  Uiso   1.00
H561   H     0.25538   0.01360   0.57149   0.00000  Uiso   1.00
H562   H     0.21589   0.12748   0.64956   0.00000  Uiso   1.00
H563   H     0.28404   0.20591   0.35028   0.00000  Uiso   1.00
H564   H     0.33749   0.01743   0.46893   0.00000  Uiso   1.00
N565   N     0.23744   0.15214   0.34617   0.00000  Uiso   1.00
N566   N     0.26255   0.18119   0.65383   0.00000  Uiso   1.00
O567   O     0.25325   0.09538   0.53992   0.00000  Uiso   1.00
O568   O     0.24674   0.23796   0.46008   0.00000  Uiso   1.00
O569   O     0.24480   0.08559   0.43612   0.00000  Uiso   1.00
O570   O     0.25520   0.24774   0.56388   0.00000  Uiso   1.00
O571   O     0.18935   0.17155   0.55191   0.00000  Uiso   1.00
O572   O     0.31064   0.16179   0.44809   0.00000  Uiso   1.00
O573   O     0.18090   0.16176   0.44810   0.00000  Uiso   1.00
O574   O     0.31910   0.17157   0.55190   0.00000  Uiso   1.00
C575   C     0.74762   0.06666   0.48453   0.00000  Uiso   1.00
C576   C     0.59497   0.12044   0.48181   0.00000  Uiso   1.00
C577   C     0.88369   0.16909   0.49270   0.00000  Uiso   1.00
C578   C     0.61688   0.16824   0.50549   0.00000  Uiso   1.00
C579   C     0.90772   0.12177   0.47224   0.00000  Uiso   1.00
C580   C     0.59336   0.21572   0.52707   0.00000  Uiso   1.00
C581   C     0.95423   0.12145   0.46885   0.00000  Uiso   1.00
C582   C     0.54657   0.21747   0.52384   0.00000  Uiso   1.00
C583   C     0.97681   0.16973   0.49275   0.00000  Uiso   1.00
C584   C     0.52382   0.16984   0.49702   0.00000  Uiso   1.00
C585   C     0.95237   0.21778   0.51288   0.00000  Uiso   1.00
C586   C     0.75008   0.26684   0.51581   0.00000  Uiso   1.00
C587   C     0.54807   0.12190   0.47519   0.00000  Uiso   1.00
C588   C     0.97883   0.07410   0.44416   0.00000  Uiso   1.00
C589   C     0.52207   0.26533   0.54633   0.00000  Uiso   1.00
C590   C     0.87792   0.26904   0.50423   0.00000  Uiso   1.00
C591   C     0.85415   0.26603   0.44055   0.00000  Uiso   1.00
C592   C     0.84325   0.31973   0.42622   0.00000  Uiso   1.00
C593   C     0.62153   0.06790   0.47018   0.00000  Uiso   1.00
C594   C     0.63169   0.04584   0.40186   0.00000  Uiso   1.00
C595   C     0.63596   0.31873   0.38596   0.00000  Uiso   1.00
C596   C     0.95599   0.02174   0.41572   0.00000  Uiso   1.00
C597   C     0.52518   0.07593   0.44719   0.00000  Uiso   1.00
C598   C     0.98662   0.30643   0.39143   0.00000  Uiso   1.00
C599   C     0.96068   0.25674   0.36162   0.00000  Uiso   1.00
C600   C     0.54558   0.31756   0.57511   0.00000  Uiso   1.00
C601   C     0.51544   0.03463   0.58826   0.00000  Uiso   1.00
C602   C     0.54143   0.08551   0.61239   0.00000  Uiso   1.00
C603   C     0.97540   0.26387   0.54147   0.00000  Uiso   1.00
C604   C     0.74436   0.01083   0.47631   0.00000  Uiso   1.00
C605   C     0.74988   0.32299   0.52481   0.00000  Uiso   1.00
C606   C     0.66472   0.16952   0.50221   0.00000  Uiso   1.00
C607   C     0.83556   0.16656   0.49792   0.00000  Uiso   1.00
C608   C     0.90522   0.21820   0.50528   0.00000  Uiso   1.00
Cu609  Cu    0.75500   0.17246   0.56146   0.00000  Uiso   1.00
Cu610  Cu    0.74499   0.16087   0.43854   0.00000  Uiso   1.00
H611   H     0.88947   0.08544   0.45884   0.00000  Uiso   1.00
H612   H     0.86997   0.33130   0.40049   0.00000  Uiso   1.00
H613   H     0.81316   0.31665   0.39494   0.00000  Uiso   1.00
H614   H     0.87300   0.24113   0.40241   0.00000  Uiso   1.00
H615   H     0.82225   0.24722   0.43987   0.00000  Uiso   1.00
H616   H     0.85294   0.27559   0.54055   0.00000  Uiso   1.00
H617   H     0.89826   0.30483   0.51443   0.00000  Uiso   1.00
H618   H     0.66047   0.30520   0.41792   0.00000  Uiso   1.00
H619   H     0.60327   0.30106   0.38941   0.00000  Uiso   1.00
H620   H     0.64702   0.30443   0.33798   0.00000  Uiso   1.00
H621   H     0.60518   0.05723   0.37132   0.00000  Uiso   1.00
H622   H     0.61234   0.25108   0.54574   0.00000  Uiso   1.00
H623   H     0.66311   0.06264   0.39149   0.00000  Uiso   1.00
H624   H     0.65328   0.07175   0.49809   0.00000  Uiso   1.00
H625   H     0.60333   0.03873   0.48811   0.00000  Uiso   1.00
H626   H     0.94679   0.24014   0.39778   0.00000  Uiso   1.00
H627   H     0.93354   0.26549   0.66312   0.00000  Uiso   1.00
H628   H     0.98350   0.22628   0.33497   0.00000  Uiso   1.00
H629   H     0.50816   0.31446   0.35611   0.00000  Uiso   1.00
H630   H     0.50816   0.29787   0.42988   0.00000  Uiso   1.00
H631   H     0.93610   0.01207   0.45190   0.00000  Uiso   1.00
H632   H     0.93401   0.02810   0.37661   0.00000  Uiso   1.00
H633   H     0.54398   0.04078   0.42789   0.00000  Uiso   1.00
H634   H     0.57359   0.08398   0.58966   0.00000  Uiso   1.00
H635   H     0.52131   0.11978   0.60379   0.00000  Uiso   1.00
H636   H     0.54760   0.09249   0.66287   0.00000  Uiso   1.00
H637   H     0.99693   0.03734   0.54509   0.00000  Uiso   1.00
H638   H     0.99074   0.03291   0.62301   0.00000  Uiso   1.00
H639   H     0.56381   0.31398   0.61838   0.00000  Uiso   1.00
H640   H     0.57034   0.32334   0.54230   0.00000  Uiso   1.00
H641   H     0.95676   0.29832   0.56361   0.00000  Uiso   1.00
H642   H     0.73882   0.32019   0.42969   0.00000  Uiso   1.00
H643   H     0.75538   0.01360   0.57149   0.00000  Uiso   1.00
H644   H     0.71589   0.12748   0.64956   0.00000  Uiso   1.00
H645   H     0.78404   0.20591   0.35028   0.00000  Uiso   1.00
H646   H     0.83749   0.01743   0.46893   0.00000  Uiso   1.00
N647   N     0.73744   0.15214   0.34617   0.00000  Uiso   1.00
N648   N     0.76255   0.18119   0.65383   0.00000  Uiso   1.00
O649   O     0.75325   0.09538   0.53992   0.00000  Uiso   1.00
O650   O     0.74674   0.23796   0.46008   0.00000  Uiso   1.00
O651   O     0.74480   0.08559   0.43612   0.00000  Uiso   1.00
O652   O     0.75520   0.24774   0.56388   0.00000  Uiso   1.00
O653   O     0.68935   0.17155   0.55191   0.00000  Uiso   1.00
O654   O     0.81064   0.16179   0.44809   0.00000  Uiso   1.00
O655   O     0.68090   0.16176   0.44810   0.00000  Uiso   1.00
O656   O     0.81910   0.17157   0.55190   0.00000  Uiso   1.00
C657   C     0.24762   0.39999   0.48453   0.00000  Uiso   1.00
C658   C     0.09497   0.45378   0.48181   0.00000  Uiso   1.00
C659   C     0.38369   0.50242   0.49270   0.00000  Uiso   1.00
C660   C     0.11688   0.50157   0.50549   0.00000  Uiso   1.00
C661   C     0.40772   0.45511   0.47224   0.00000  Uiso   1.00
C662   C     0.09336   0.54905   0.52707   0.00000  Uiso   1.00
C663   C     0.45423   0.45479   0.46885   0.00000  Uiso   1.00
C664   C     0.04657   0.55080   0.52384   0.00000  Uiso   1.00
C665   C     0.47681   0.50306   0.49275   0.00000  Uiso   1.00
C666   C     0.02382   0.50317   0.49702   0.00000  Uiso   1.00
C667   C     0.45237   0.55112   0.51288   0.00000  Uiso   1.00
C668   C     0.25008   0.60017   0.51581   0.00000  Uiso   1.00
C669   C     0.04807   0.45523   0.47519   0.00000  Uiso   1.00
C670   C     0.47883   0.40744   0.44416   0.00000  Uiso   1.00
C671   C     0.02207   0.59867   0.54633   0.00000  Uiso   1.00
C672   C     0.37792   0.60237   0.50423   0.00000  Uiso   1.00
C673   C     0.35415   0.59937   0.44055   0.00000  Uiso   1.00
C674   C     0.34325   0.65306   0.42622   0.00000  Uiso   1.00
C675   C     0.12153   0.40123   0.47018   0.00000  Uiso   1.00
C676   C     0.13169   0.37918   0.40186   0.00000  Uiso   1.00
C677   C     0.13596   0.65207   0.38596   0.00000  Uiso   1.00
C678   C     0.45599   0.35508   0.41572   0.00000  Uiso   1.00
C679   C     0.02518   0.40927   0.44719   0.00000  Uiso   1.00
C680   C     0.48662   0.63976   0.39143   0.00000  Uiso   1.00
C681   C     0.46068   0.59008   0.36162   0.00000  Uiso   1.00
C682   C     0.04558   0.65089   0.57511   0.00000  Uiso   1.00
C683   C     0.01544   0.36796   0.58826   0.00000  Uiso   1.00
C684   C     0.04143   0.41884   0.61239   0.00000  Uiso   1.00
C685   C     0.47540   0.59720   0.54147   0.00000  Uiso   1.00
C686   C     0.24436   0.34416   0.47631   0.00000  Uiso   1.00
C687   C     0.24988   0.65633   0.52481   0.00000  Uiso   1.00
C688   C     0.16472   0.50286   0.50221   0.00000  Uiso   1.00
C689   C     0.33556   0.49990   0.49792   0.00000  Uiso   1.00
C690   C     0.40522   0.55154   0.50528   0.00000  Uiso   1.00
Cu691  Cu    0.25500   0.50579   0.56146   0.00000  Uiso   1.00
Cu692  Cu    0.24499   0.49421   0.43854   0.00000  Uiso   1.00
H693   H     0.38947   0.41878   0.45884   0.00000  Uiso   1.00
H694   H     0.36997   0.66463   0.40049   0.00000  Uiso   1.00
H695   H     0.31316   0.64998   0.39494   0.00000  Uiso   1.00
H696   H     0.37300   0.57446   0.40241   0.00000  Uiso   1.00
H697   H     0.32225   0.58056   0.43987   0.00000  Uiso   1.00
H698   H     0.35294   0.60893   0.54055   0.00000  Uiso   1.00
H699   H     0.39826   0.63816   0.51443   0.00000  Uiso   1.00
H700   H     0.16047   0.63853   0.41792   0.00000  Uiso   1.00
H701   H     0.10327   0.63439   0.38941   0.00000  Uiso   1.00
H702   H     0.14702   0.63776   0.33798   0.00000  Uiso   1.00
H703   H     0.10518   0.39056   0.37132   0.00000  Uiso   1.00
H704   H     0.11234   0.58441   0.54574   0.00000  Uiso   1.00
H705   H     0.16311   0.39597   0.39149   0.00000  Uiso   1.00
H706   H     0.15328   0.40509   0.49809   0.00000  Uiso   1.00
H707   H     0.10333   0.37207   0.48811   0.00000  Uiso   1.00
H708   H     0.44679   0.57347   0.39778   0.00000  Uiso   1.00
H709   H     0.43354   0.59882   0.66312   0.00000  Uiso   1.00
H710   H     0.48350   0.55961   0.33497   0.00000  Uiso   1.00
H711   H     0.00816   0.64780   0.35611   0.00000  Uiso   1.00
H712   H     0.00816   0.63120   0.42988   0.00000  Uiso   1.00
H713   H     0.43610   0.34541   0.45190   0.00000  Uiso   1.00
H714   H     0.43401   0.36143   0.37661   0.00000  Uiso   1.00
H715   H     0.04398   0.37411   0.42789   0.00000  Uiso   1.00
H716   H     0.07359   0.41731   0.58966   0.00000  Uiso   1.00
H717   H     0.02131   0.45312   0.60379   0.00000  Uiso   1.00
H718   H     0.04760   0.42582   0.66287   0.00000  Uiso   1.00
H719   H     0.49693   0.37068   0.54509   0.00000  Uiso   1.00
H720   H     0.49074   0.36624   0.62301   0.00000  Uiso   1.00
H721   H     0.06381   0.64731   0.61838   0.00000  Uiso   1.00
H722   H     0.07034   0.65668   0.54230   0.00000  Uiso   1.00
H723   H     0.45676   0.63166   0.56361   0.00000  Uiso   1.00
H724   H     0.23882   0.65352   0.42969   0.00000  Uiso   1.00
H725   H     0.25538   0.34693   0.57149   0.00000  Uiso   1.00
H726   H     0.21589   0.46081   0.64956   0.00000  Uiso   1.00
H727   H     0.28404   0.53924   0.35028   0.00000  Uiso   1.00
H728   H     0.33749   0.35076   0.46893   0.00000  Uiso   1.00
N729   N     0.23744   0.48547   0.34617   0.00000  Uiso   1.00
N730   N     0.26255   0.51453   0.65383   0.00000  Uiso   1.00
O731   O     0.25325   0.42871   0.53992   0.00000  Uiso   1.00
O732   O     0.24674   0.57129   0.46008   0.00000  Uiso   1.00
O733   O     0.24480   0.41892   0.43612   0.00000  Uiso   1.00
O734   O     0.25520   0.58108   0.56388   0.00000  Uiso   1.00
O735   O     0.18935   0.50488   0.55191   0.00000  Uiso   1.00
O736   O     0.31064   0.49512   0.44809   0.00000  Uiso   1.00
O737   O     0.18090   0.49510   0.44810   0.00000  Uiso   1.00
O738   O     0.31910   0.50490   0.55190   0.00000  Uiso   1.00
C739   C     0.74762   0.39999   0.48453   0.00000  Uiso   1.00
C740   C     0.59497   0.45378   0.48181   0.00000  Uiso   1.00
C741   C     0.88369   0.50242   0.49270   0.00000  Uiso   1.00
C742   C     0.61688   0.50157   0.50549   0.00000  Uiso   1.00
C743   C     0.90772   0.45511   0.47224   0.00000  Uiso   1.00
C744   C     0.59336   0.54905   0.52707   0.00000  Uiso   1.00
C745   C     0.95423   0.45479   0.46885   0.00000  Uiso   1.00
C746   C     0.54657   0.55080   0.52384   0.00000  Uiso   1.00
C747   C     0.97681   0.50306   0.49275   0.00000  Uiso   1.00
C748   C     0.52382   0.50317   0.49702   0.00000  Uiso   1.00
C749   C     0.95237   0.55112   0.51288   0.00000  Uiso   1.00
C750   C     0.75008   0.60017   0.51581   0.00000  Uiso   1.00
C751   C     0.54807   0.45523   0.47519   0.00000  Uiso   1.00
C752   C     0.97883   0.40744   0.44416   0.00000  Uiso   1.00
C753   C     0.52207   0.59867   0.54633   0.00000  Uiso   1.00
C754   C     0.87792   0.60237   0.50423   0.00000  Uiso   1.00
C755   C     0.85415   0.59937   0.44055   0.00000  Uiso   1.00
C756   C     0.84325   0.65306   0.42622   0.00000  Uiso   1.00
C757   C     0.62153   0.40123   0.47018   0.00000  Uiso   1.00
C758   C     0.63169   0.37918   0.40186   0.00000  Uiso   1.00
C759   C     0.63596   0.65207   0.38596   0.00000  Uiso   1.00
C760   C     0.95599   0.35508   0.41572   0.00000  Uiso   1.00
C761   C     0.52518   0.40927   0.44719   0.00000  Uiso   1.00
C762   C     0.98662   0.63976   0.39143   0.00000  Uiso   1.00
C763   C     0.96068   0.59008   0.36162   0.00000  Uiso   1.00
C764   C     0.54558   0.65089   0.57511   0.00000  Uiso   1.00
C765   C     0.51544   0.36796   0.58826   0.00000  Uiso   1.00
C766   C     0.54143   0.41884   0.61239   0.00000  Uiso   1.00
C767   C     0.97540   0.59720   0.54147   0.00000  Uiso   1.00
C768   C     0.74436   0.34416   0.47631   0.00000  Uiso   1.00
C769   C     0.74988   0.65633   0.52481   0.00000  Uiso   1.00
C770   C     0.66472   0.50286   0.50221   0.00000  Uiso   1.00
C771   C     0.83556   0.49990   0.49792   0.00000  Uiso   1.00
C772   C     0.90522   0.55154   0.50528   0.00000  Uiso   1.00
Cu773  Cu    0.75500   0.50579   0.56146   0.00000  Uiso   1.00
Cu774  Cu    0.74499   0.49421   0.43854   0.00000  Uiso   1.00
H775   H     0.88947   0.41878   0.45884   0.00000  Uiso   1.00
H776   H     0.86997   0.66463   0.40049   0.00000  Uiso   1.00
H777   H     0.81316   0.64998   0.39494   0.00000  Uiso   1.00
H778   H     0.87300   0.57446   0.40241   0.00000  Uiso   1.00
H779   H     0.82225   0.58056   0.43987   0.00000  Uiso   1.00
H780   H     0.85294   0.60893   0.54055   0.00000  Uiso   1.00
H781   H     0.89826   0.63816   0.51443   0.00000  Uiso   1.00
H782   H     0.66047   0.63853   0.41792   0.00000  Uiso   1.00
H783   H     0.60327   0.63439   0.38941   0.00000  Uiso   1.00
H784   H     0.64702   0.63776   0.33798   0.00000  Uiso   1.00
H785   H     0.60518   0.39056   0.37132   0.00000  Uiso   1.00
H786   H     0.61234   0.58441   0.54574   0.00000  Uiso   1.00
H787   H     0.66311   0.39597   0.39149   0.00000  Uiso   1.00
H788   H     0.65328   0.40509   0.49809   0.00000  Uiso   1.00
H789   H     0.60333   0.37207   0.48811   0.00000  Uiso   1.00
H790   H     0.94679   0.57347   0.39778   0.00000  Uiso   1.00
H791   H     0.93354   0.59882   0.66312   0.00000  Uiso   1.00
H792   H     0.98350   0.55961   0.33497   0.00000  Uiso   1.00
H793   H     0.50816   0.64780   0.35611   0.00000  Uiso   1.00
H794   H     0.50816   0.63120   0.42988   0.00000  Uiso   1.00
H795   H     0.93610   0.34541   0.45190   0.00000  Uiso   1.00
H796   H     0.93401   0.36143   0.37661   0.00000  Uiso   1.00
H797   H     0.54398   0.37411   0.42789   0.00000  Uiso   1.00
H798   H     0.57359   0.41731   0.58966   0.00000  Uiso   1.00
H799   H     0.52131   0.45312   0.60379   0.00000  Uiso   1.00
H800   H     0.54760   0.42582   0.66287   0.00000  Uiso   1.00
H801   H     0.99693   0.37068   0.54509   0.00000  Uiso   1.00
H802   H     0.99074   0.36624   0.62301   0.00000  Uiso   1.00
H803   H     0.56381   0.64731   0.61838   0.00000  Uiso   1.00
H804   H     0.57034   0.65668   0.54230   0.00000  Uiso   1.00
H805   H     0.95676   0.63166   0.56361   0.00000  Uiso   1.00
H806   H     0.73882   0.65352   0.42969   0.00000  Uiso   1.00
H807   H     0.75538   0.34693   0.57149   0.00000  Uiso   1.00
H808   H     0.71589   0.46081   0.64956   0.00000  Uiso   1.00
H809   H     0.78404   0.53924   0.35028   0.00000  Uiso   1.00
H810   H     0.83749   0.35076   0.46893   0.00000  Uiso   1.00
N811   N     0.73744   0.48547   0.34617   0.00000  Uiso   1.00
N812   N     0.76255   0.51453   0.65383   0.00000  Uiso   1.00
O813   O     0.75325   0.42871   0.53992   0.00000  Uiso   1.00
O814   O     0.74674   0.57129   0.46008   0.00000  Uiso   1.00
O815   O     0.74480   0.41892   0.43612   0.00000  Uiso   1.00
O816   O     0.75520   0.58108   0.56388   0.00000  Uiso   1.00
O817   O     0.68935   0.50488   0.55191   0.00000  Uiso   1.00
O818   O     0.81064   0.49512   0.44809   0.00000  Uiso   1.00
O819   O     0.68090   0.49510   0.44810   0.00000  Uiso   1.00
O820   O     0.81910   0.50490   0.55190   0.00000  Uiso   1.00
C821   C     0.24762   0.73333   0.48453   0.00000  Uiso   1.00
C822   C     0.09497   0.78711   0.48181   0.00000  Uiso   1.00
C823   C     0.38369   0.83575   0.49270   0.00000  Uiso   1.00
C824   C     0.11688   0.83491   0.50549   0.00000  Uiso   1.00
C825   C     0.40772   0.78844   0.47224   0.00000  Uiso   1.00
C826   C     0.09336   0.88239   0.52707   0.00000  Uiso   1.00
C827   C     0.45423   0.78812   0.46885   0.00000  Uiso   1.00
C828   C     0.04657   0.88413   0.52384   0.00000  Uiso   1.00
C829   C     0.47681   0.83639   0.49275   0.00000  Uiso   1.00
C830   C     0.02382   0.83651   0.49702   0.00000  Uiso   1.00
C831   C     0.45237   0.88445   0.51288   0.00000  Uiso   1.00
C832   C     0.25008   0.93350   0.51581   0.00000  Uiso   1.00
C833   C     0.04807   0.78856   0.47519   0.00000  Uiso   1.00
C834   C     0.47883   0.74077   0.44416   0.00000  Uiso   1.00
C835   C     0.02207   0.93200   0.54633   0.00000  Uiso   1.00
C836   C     0.37792   0.93570   0.50423   0.00000  Uiso   1.00
C837   C     0.35415   0.93270   0.44055   0.00000  Uiso   1.00
C838   C     0.34325   0.98639   0.42622   0.00000  Uiso   1.00
C839   C     0.12153   0.73457   0.47018   0.00000  Uiso   1.00
C840   C     0.13169   0.71251   0.40186   0.00000  Uiso   1.00
C841   C     0.13596   0.98540   0.38596   0.00000  Uiso   1.00
C842   C     0.45599   0.68841   0.41572   0.00000  Uiso   1.00
C843   C     0.02518   0.74260   0.44719   0.00000  Uiso   1.00
C844   C     0.48662   0.97309   0.39143   0.00000  Uiso   1.00
C845   C     0.46068   0.92341   0.36162   0.00000  Uiso   1.00
C846   C     0.04558   0.98422   0.57511   0.00000  Uiso   1.00
C847   C     0.01544   0.70129   0.58826   0.00000  Uiso   1.00
C848   C     0.04143   0.75217   0.61239   0.00000  Uiso   1.00
C849   C     0.47540   0.93054   0.54147   0.00000  Uiso   1.00
C850   C     0.24436   0.67749   0.47631   0.00000  Uiso   1.00
C851   C     0.24988   0.98966   0.52481   0.00000  Uiso   1.00
C852   C     0.16472   0.83619   0.50221   0.00000  Uiso   1.00
C853   C     0.33556   0.83323   0.49792   0.00000  Uiso   1.00
C854   C     0.40522   0.88487   0.50528   0.00000  Uiso   1.00
Cu855  Cu    0.25500   0.83913   0.56146   0.00000  Uiso   1.00
Cu856  Cu    0.24499   0.82754   0.43854   0.00000  Uiso   1.00
H857   H     0.38947   0.75211   0.45884   0.00000  Uiso   1.00
H858   H     0.36997   0.99797   0.40049   0.00000  Uiso   1.00
H859   H     0.31316   0.98332   0.39494   0.00000  Uiso   1.00
H860   H     0.37300   0.90779   0.40241   0.00000  Uiso   1.00
H861   H     0.32225   0.91389   0.43987   0.00000  Uiso   1.00
H862   H     0.35294   0.94226   0.54055   0.00000  Uiso   1.00
H863   H     0.39826   0.97150   0.51443   0.00000  Uiso   1.00
H864   H     0.16047   0.97187   0.41792   0.00000  Uiso   1.00
H865   H     0.10327   0.96772   0.38941   0.00000  Uiso   1.00
H866   H     0.14702   0.97109   0.33798   0.00000  Uiso   1.00
H867   H     0.10518   0.72389   0.37132   0.00000  Uiso   1.00
H868   H     0.11234   0.91775   0.54574   0.00000  Uiso   1.00
H869   H     0.16311   0.72930   0.39149   0.00000  Uiso   1.00
H870   H     0.15328   0.73842   0.49809   0.00000  Uiso   1.00
H871   H     0.10333   0.70540   0.48811   0.00000  Uiso   1.00
H872   H     0.44679   0.90681   0.39778   0.00000  Uiso   1.00
H873   H     0.43354   0.93215   0.66312   0.00000  Uiso   1.00
H874   H     0.48350   0.89295   0.33497   0.00000  Uiso   1.00
H875   H     0.00816   0.98113   0.35611   0.00000  Uiso   1.00
H876   H     0.00816   0.96453   0.42988   0.00000  Uiso   1.00
H877   H     0.43610   0.67874   0.45190   0.00000  Uiso   1.00
H878   H     0.43401   0.69476   0.37661   0.00000  Uiso   1.00
H879   H     0.04398   0.70745   0.42789   0.00000  Uiso   1.00
H880   H     0.07359   0.75064   0.58966   0.00000  Uiso   1.00
H881   H     0.02131   0.78645   0.60379   0.00000  Uiso   1.00
H882   H     0.04760   0.75915   0.66287   0.00000  Uiso   1.00
H883   H     0.49693   0.70401   0.54509   0.00000  Uiso   1.00
H884   H     0.49074   0.69957   0.62301   0.00000  Uiso   1.00
H885   H     0.06381   0.98065   0.61838   0.00000  Uiso   1.00
H886   H     0.07034   0.99001   0.54230   0.00000  Uiso   1.00
H887   H     0.45676   0.96499   0.56361   0.00000  Uiso   1.00
H888   H     0.23882   0.98685   0.42969   0.00000  Uiso   1.00
H889   H     0.25538   0.68026   0.57149   0.00000  Uiso   1.00
H890   H     0.21589   0.79415   0.64956   0.00000  Uiso   1.00
H891   H     0.28404   0.87257   0.35028   0.00000  Uiso   1.00
H892   H     0.33749   0.68409   0.46893   0.00000  Uiso   1.00
N893   N     0.23744   0.81881   0.34617   0.00000  Uiso   1.00
N894   N     0.26255   0.84786   0.65383   0.00000  Uiso   1.00
O895   O     0.25325   0.76204   0.53992   0.00000  Uiso   1.00
O896   O     0.24674   0.90462   0.46008   0.00000  Uiso   1.00
O897   O     0.24480   0.75226   0.43612   0.00000  Uiso   1.00
O898   O     0.25520   0.91441   0.56388   0.00000  Uiso   1.00
O899   O     0.18935   0.83821   0.55191   0.00000  Uiso   1.00
O900   O     0.31064   0.82845   0.44809   0.00000  Uiso   1.00
O901   O     0.18090   0.82843   0.44810   0.00000  Uiso   1.00
O902   O     0.31910   0.83824   0.55190   0.00000  Uiso   1.00
C903   C     0.74762   0.73333   0.48453   0.00000  Uiso   1.00
C904   C     0.59497   0.78711   0.48181   0.00000  Uiso   1.00
C905   C     0.88369   0.83575   0.49270   0.00000  Uiso   1.00
C906   C     0.61688   0.83491   0.50549   0.00000  Uiso   1.00
C907   C     0.90772   0.78844   0.47224   0.00000  Uiso   1.00
C908   C     0.59336   0.88239   0.52707   0.00000  Uiso   1.00
C909   C     0.95423   0.78812   0.46885   0.00000  Uiso   1.00
C910   C     0.54657   0.88413   0.52384   0.00000  Uiso   1.00
C911   C     0.97681   0.83639   0.49275   0.00000  Uiso   1.00
C912   C     0.52382   0.83651   0.49702   0.00000  Uiso   1.00
C913   C     0.95237   0.88445   0.51288   0.00000  Uiso   1.00
C914   C     0.75008   0.93350   0.51581   0.00000  Uiso   1.00
C915   C     0.54807   0.78856   0.47519   0.00000  Uiso   1.00
C916   C     0.97883   0.74077   0.44416   0.00000  Uiso   1.00
C917   C     0.52207   0.93200   0.54633   0.00000  Uiso   1.00
C918   C     0.87792   0.93570   0.50423   0.00000  Uiso   1.00
C919   C     0.85415   0.93270   0.44055   0.00000  Uiso   1.00
C920   C     0.84325   0.98639   0.42622   0.00000  Uiso   1.00
C921   C     0.62153   0.73457   0.47018   0.00000  Uiso   1.00
C922   C     0.63169   0.71251   0.40186   0.00000  Uiso   1.00
C923   C     0.63596   0.98540   0.38596   0.00000  Uiso   1.00
C924   C     0.95599   0.68841   0.41572   0.00000  Uiso   1.00
C925   C     0.52518   0.74260   0.44719   0.00000  Uiso   1.00
C926   C     0.98662   0.97309   0.39143   0.00000  Uiso   1.00
C927   C     0.96068   0.92341   0.36162   0.00000  Uiso   1.00
C928   C     0.54558   0.98422   0.57511   0.00000  Uiso   1.00
C929   C     0.51544   0.70129   0.58826   0.00000  Uiso   1.00
C930   C     0.54143   0.75217   0.61239   0.00000  Uiso   1.00
C931   C     0.97540   0.93054   0.54147   0.00000  Uiso   1.00
C932   C     0.74436   0.67749   0.47631   0.00000  Uiso   1.00
C933   C     0.74988   0.98966   0.52481   0.00000  Uiso   1.00
C934   C     0.66472   0.83619   0.50221   0.00000  Uiso   1.00
C935   C     0.83556   0.83323   0.49792   0.00000  Uiso   1.00
C936   C     0.90522   0.88487   0.50528   0.00000  Uiso   1.00
Cu937  Cu    0.75500   0.83913   0.56146   0.00000  Uiso   1.00
Cu938  Cu    0.74499   0.82754   0.43854   0.00000  Uiso   1.00
H939   H     0.88947   0.75211   0.45884   0.00000  Uiso   1.00
H940   H     0.86997   0.99797   0.40049   0.00000  Uiso   1.00
H941   H     0.81316   0.98332   0.39494   0.00000  Uiso   1.00
H942   H     0.87300   0.90779   0.40241   0.00000  Uiso   1.00
H943   H     0.82225   0.91389   0.43987   0.00000  Uiso   1.00
H944   H     0.85294   0.94226   0.54055   0.00000  Uiso   1.00
H945   H     0.89826   0.97150   0.51443   0.00000  Uiso   1.00
H946   H     0.66047   0.97187   0.41792   0.00000  Uiso   1.00
H947   H     0.60327   0.96772   0.38941   0.00000  Uiso   1.00
H948   H     0.64702   0.97109   0.33798   0.00000  Uiso   1.00
H949   H     0.60518   0.72389   0.37132   0.00000  Uiso   1.00
H950   H     0.61234   0.91775   0.54574   0.00000  Uiso   1.00
H951   H     0.66311   0.72930   0.39149   0.00000  Uiso   1.00
H952   H     0.65328   0.73842   0.49809   0.00000  Uiso   1.00
H953   H     0.60333   0.70540   0.48811   0.00000  Uiso   1.00
H954   H     0.94679   0.90681   0.39778   0.00000  Uiso   1.00
H955   H     0.93354   0.93215   0.66312   0.00000  Uiso   1.00
H956   H     0.98350   0.89295   0.33497   0.00000  Uiso   1.00
H957   H     0.50816   0.98113   0.35611   0.00000  Uiso   1.00
H958   H     0.50816   0.96453   0.42988   0.00000  Uiso   1.00
H959   H     0.93610   0.67874   0.45190   0.00000  Uiso   1.00
H960   H     0.93401   0.69476   0.37661   0.00000  Uiso   1.00
H961   H     0.54398   0.70745   0.42789   0.00000  Uiso   1.00
H962   H     0.57359   0.75064   0.58966   0.00000  Uiso   1.00
H963   H     0.52131   0.78645   0.60379   0.00000  Uiso   1.00
H964   H     0.54760   0.75915   0.66287   0.00000  Uiso   1.00
H965   H     0.99693   0.70401   0.54509   0.00000  Uiso   1.00
H966   H     0.99074   0.69957   0.62301   0.00000  Uiso   1.00
H967   H     0.56381   0.98065   0.61838   0.00000  Uiso   1.00
H968   H     0.57034   0.99001   0.54230   0.00000  Uiso   1.00
H969   H     0.95676   0.96499   0.56361   0.00000  Uiso   1.00
H970   H     0.73882   0.98685   0.42969   0.00000  Uiso   1.00
H971   H     0.75538   0.68026   0.57149   0.00000  Uiso   1.00
H972   H     0.71589   0.79415   0.64956   0.00000  Uiso   1.00
H973   H     0.78404   0.87257   0.35028   0.00000  Uiso   1.00
H974   H     0.83749   0.68409   0.46893   0.00000  Uiso   1.00
N975   N     0.73744   0.81881   0.34617   0.00000  Uiso   1.00
N976   N     0.76255   0.84786   0.65383   0.00000  Uiso   1.00
O977   O     0.75325   0.76204   0.53992   0.00000  Uiso   1.00
O978   O     0.74674   0.90462   0.46008   0.00000  Uiso   1.00
O979   O     0.74480   0.75226   0.43612   0.00000  Uiso   1.00
O980   O     0.75520   0.91441   0.56388   0.00000  Uiso   1.00
O981   O     0.68935   0.83821   0.55191   0.00000  Uiso   1.00
O982   O     0.81064   0.82845   0.44809   0.00000  Uiso   1.00
O983   O     0.68090   0.82843   0.44810   0.00000  Uiso   1.00
O984   O     0.81910   0.83824   0.55190   0.00000  Uiso   1.00
C985   C     0.24762   0.06666   0.81786   0.00000  Uiso   1.00
C986   C     0.09497   0.12044   0.81515   0.00000  Uiso   1.00
C987   C     0.38369   0.16909   0.82603   0.00000  Uiso   1.00
C988   C     0.11688   0.16824   0.83882   0.00000  Uiso   1.00
C989   C     0.40772   0.12177   0.80557   0.00000  Uiso   1.00
C990   C     0.09336   0.21572   0.86040   0.00000  Uiso   1.00
C991   C     0.45423   0.12145   0.80218   0.00000  Uiso   1.00
C992   C     0.04657   0.21747   0.85717   0.00000  Uiso   1.00
C993   C     0.47681   0.16973   0.82608   0.00000  Uiso   1.00
C994   C     0.02382   0.16984   0.83036   0.00000  Uiso   1.00
C995   C     0.45237   0.21778   0.84622   0.00000  Uiso   1.00
C996   C     0.25008   0.26684   0.84915   0.00000  Uiso   1.00
C997   C     0.04807   0.12190   0.80852   0.00000  Uiso   1.00
C998   C     0.47883   0.07410   0.77749   0.00000  Uiso   1.00
C999   C     0.02207   0.26533   0.87966   0.00000  Uiso   1.00
C1000  C     0.37792   0.26904   0.83757   0.00000  Uiso   1.00
C1001  C     0.35415   0.26603   0.77389   0.00000  Uiso   1.00
C1002  C     0.34325   0.31973   0.75956   0.00000  Uiso   1.00
C1003  C     0.12153   0.06790   0.80351   0.00000  Uiso   1.00
C1004  C     0.13169   0.04584   0.73519   0.00000  Uiso   1.00
C1005  C     0.13596   0.31873   0.71929   0.00000  Uiso   1.00
C1006  C     0.45599   0.02174   0.74905   0.00000  Uiso   1.00
C1007  C     0.02518   0.07593   0.78053   0.00000  Uiso   1.00
C1008  C     0.48662   0.30643   0.72476   0.00000  Uiso   1.00
C1009  C     0.46068   0.25674   0.69495   0.00000  Uiso   1.00
C1010  C     0.04558   0.31756   0.90844   0.00000  Uiso   1.00
C1011  C     0.01544   0.03463   0.92160   0.00000  Uiso   1.00
C1012  C     0.04143   0.08551   0.94572   0.00000  Uiso   1.00
C1013  C     0.47540   0.26387   0.87480   0.00000  Uiso   1.00
C1014  C     0.24436   0.01083   0.80964   0.00000  Uiso   1.00
C1015  C     0.24988   0.32299   0.85814   0.00000  Uiso   1.00
C1016  C     0.16472   0.16952   0.83554   0.00000  Uiso   1.00
C1017  C     0.33556   0.16656   0.83125   0.00000  Uiso   1.00
C1018  C     0.40522   0.21820   0.83861   0.00000  Uiso   1.00
Cu1019 Cu    0.25500   0.17246   0.89479   0.00000  Uiso   1.00
Cu1020 Cu    0.24499   0.16087   0.77187   0.00000  Uiso   1.00
H1021  H     0.38947   0.08544   0.79218   0.00000  Uiso   1.00
H1022  H     0.36997   0.33130   0.73382   0.00000  Uiso   1.00
H1023  H     0.31316   0.31665   0.72828   0.00000  Uiso   1.00
H1024  H     0.37300   0.24113   0.73575   0.00000  Uiso   1.00
H1025  H     0.32225   0.24722   0.77320   0.00000  Uiso   1.00
H1026  H     0.35294   0.27559   0.87388   0.00000  Uiso   1.00
H1027  H     0.39826   0.30483   0.84776   0.00000  Uiso   1.00
H1028  H     0.16047   0.30520   0.75126   0.00000  Uiso   1.00
H1029  H     0.10327   0.30106   0.72274   0.00000  Uiso   1.00
H1030  H     0.14702   0.30443   0.67131   0.00000  Uiso   1.00
H1031  H     0.10518   0.05723   0.70465   0.00000  Uiso   1.00
H1032  H     0.11234   0.25108   0.87907   0.00000  Uiso   1.00
H1033  H     0.16311   0.06264   0.72482   0.00000  Uiso   1.00
H1034  H     0.15328   0.07175   0.83142   0.00000  Uiso   1.00
H1035  H     0.10333   0.03873   0.82144   0.00000  Uiso   1.00
H1036  H     0.44679   0.24014   0.73111   0.00000  Uiso   1.00
H1037  H     0.43354   0.26549   0.99645   0.00000  Uiso   1.00
H1038  H     0.48350   0.22628   0.66830   0.00000  Uiso   1.00
H1039  H     0.00816   0.31446   0.68944   0.00000  Uiso   1.00
H1040  H     0.00816   0.29787   0.76321   0.00000  Uiso   1.00
H1041  H     0.43610   0.01207   0.78523   0.00000  Uiso   1.00
H1042  H     0.43401   0.02810   0.70994   0.00000  Uiso   1.00
H1043  H     0.04398   0.04078   0.76122   0.00000  Uiso   1.00
H1044  H     0.07359   0.08398   0.92300   0.00000  Uiso   1.00
H1045  H     0.02131   0.11978   0.93713   0.00000  Uiso   1.00
H1046  H     0.04760   0.09249   0.99620   0.00000  Uiso   1.00
H1047  H     0.49693   0.03734   0.87842   0.00000  Uiso   1.00
H1048  H     0.49074   0.03291   0.95634   0.00000  Uiso   1.00
H1049  H     0.06381   0.31398   0.95171   0.00000  Uiso   1.00
H1050  H     0.07034   0.32334   0.87563   0.00000  Uiso   1.00
H1051  H     0.45676   0.29832   0.89694   0.00000  Uiso   1.00
H1052  H     0.23882   0.32019   0.76303   0.00000  Uiso   1.00
H1053  H     0.25538   0.01360   0.90482   0.00000  Uiso   1.00
H1054  H     0.21589   0.12748   0.98289   0.00000  Uiso   1.00
H1055  H     0.28404   0.20591   0.68361   0.00000  Uiso   1.00
H1056  H     0.33749   0.01743   0.80227   0.00000  Uiso   1.00
N1057  N     0.23744   0.15214   0.67951   0.00000  Uiso   1.00
N1058  N     0.26255   0.18119   0.98716   0.00000  Uiso   1.00
O1059  O     0.25325   0.09538   0.87326   0.00000  Uiso   1.00
O1060  O     0.24674   0.23796   0.79341   0.00000  Uiso   1.00
O1061  O     0.24480   0.08559   0.76945   0.00000  Uiso   1.00
O1062  O     0.25520   0.24774   0.89721   0.00000  Uiso   1.00
O1063  O     0.18935   0.17155   0.88524   0.00000  Uiso   1.00
O1064  O     0.31064   0.16179   0.78143   0.00000  Uiso   1.00
O1065  O     0.18090   0.16176   0.78143   0.00000  Uiso   1.00
O1066  O     0.31910   0.17157   0.88523   0.00000  Uiso   1.00
C1067  C     0.74762   0.06666   0.81786   0.00000  Uiso   1.00
C1068  C     0.59497   0.12044   0.81515   0.00000  Uiso   1.00
C1069  C     0.88369   0.16909   0.82603   0.00000  Uiso   1.00
C1070  C     0.61688   0.16824   0.83882   0.00000  Uiso   1.00
C1071  C     0.90772   0.12177   0.80557   0.00000  Uiso   1.00
C1072  C     0.59336   0.21572   0.86040   0.00000  Uiso   1.00
C1073  C     0.95423   0.12145   0.80218   0.00000  Uiso   1.00
C1074  C     0.54657   0.21747   0.85717   0.00000  Uiso   1.00
C1075  C     0.97681   0.16973   0.82608   0.00000  Uiso   1.00
C1076  C     0.52382   0.16984   0.83036   0.00000  Uiso   1.00
C1077  C     0.95237   0.21778   0.84622   0.00000  Uiso   1.00
C1078  C     0.75008   0.26684   0.84915   0.00000  Uiso   1.00
C1079  C     0.54807   0.12190   0.80852   0.00000  Uiso   1.00
C1080  C     0.97883   0.07410   0.77749   0.00000  Uiso   1.00
C1081  C     0.52207   0.26533   0.87966   0.00000  Uiso   1.00
C1082  C     0.87792   0.26904   0.83757   0.00000  Uiso   1.00
C1083  C     0.85415   0.26603   0.77389   0.00000  Uiso   1.00
C1084  C     0.84325   0.31973   0.75956   0.00000  Uiso   1.00
C1085  C     0.62153   0.06790   0.80351   0.00000  Uiso   1.00
C1086  C     0.63169   0.04584   0.73519   0.00000  Uiso   1.00
C1087  C     0.63596   0.31873   0.71929   0.00000  Uiso   1.00
C1088  C     0.95599   0.02174   0.74905   0.00000  Uiso   1.00
C1089  C     0.52518   0.07593   0.78053   0.00000  Uiso   1.00
C1090  C     0.98662   0.30643   0.72476   0.00000  Uiso   1.00
C1091  C     0.96068   0.25674   0.69495   0.00000  Uiso   1.00
C1092  C     0.54558   0.31756   0.90844   0.00000  Uiso   1.00
C1093  C     0.51544   0.03463   0.92160   0.00000  Uiso   1.00
C1094  C     0.54143   0.08551   0.94572   0.00000  Uiso   1.00
C1095  C     0.97540   0.26387   0.87480   0.00000  Uiso   1.00
C1096  C     0.74436   0.01083   0.80964   0.00000  Uiso   1.00
C1097  C     0.74988   0.32299   0.85814   0.00000  Uiso   1.00
C1098  C     0.66472   0.16952   0.83554   0.00000  Uiso   1.00
C1099  C     0.83556   0.16656   0.83125   0.00000  Uiso   1.00
C1100  C     0.90522   0.21820   0.83861   0.00000  Uiso   1.00
Cu1101 Cu    0.75500   0.17246   0.89479   0.00000  Uiso   1.00
Cu1102 Cu    0.74499   0.16087   0.77187   0.00000  Uiso   1.00
H1103  H     0.88947   0.08544   0.79218   0.00000  Uiso   1.00
H1104  H     0.86997   0.33130   0.73382   0.00000  Uiso   1.00
H1105  H     0.81316   0.31665   0.72828   0.00000  Uiso   1.00
H1106  H     0.87300   0.24113   0.73575   0.00000  Uiso   1.00
H1107  H     0.82225   0.24722   0.77320   0.00000  Uiso   1.00
H1108  H     0.85294   0.27559   0.87388   0.00000  Uiso   1.00
H1109  H     0.89826   0.30483   0.84776   0.00000  Uiso   1.00
H1110  H     0.66047   0.30520   0.75126   0.00000  Uiso   1.00
H1111  H     0.60327   0.30106   0.72274   0.00000  Uiso   1.00
H1112  H     0.64702   0.30443   0.67131   0.00000  Uiso   1.00
H1113  H     0.60518   0.05723   0.70465   0.00000  Uiso   1.00
H1114  H     0.61234   0.25108   0.87907   0.00000  Uiso   1.00
H1115  H     0.66311   0.06264   0.72482   0.00000  Uiso   1.00
H1116  H     0.65328   0.07175   0.83142   0.00000  Uiso   1.00
H1117  H     0.60333   0.03873   0.82144   0.00000  Uiso   1.00
H1118  H     0.94679   0.24014   0.73111   0.00000  Uiso   1.00
H1119  H     0.93354   0.26549   0.99645   0.00000  Uiso   1.00
H1120  H     0.98350   0.22628   0.66830   0.00000  Uiso   1.00
H1121  H     0.50816   0.31446   0.68944   0.00000  Uiso   1.00
H1122  H     0.50816   0.29787   0.76321   0.00000  Uiso   1.00
H1123  H     0.93610   0.01207   0.78523   0.00000  Uiso   1.00
H1124  H     0.93401   0.02810   0.70994   0.00000  Uiso   1.00
H1125  H     0.54398   0.04078   0.76122   0.00000  Uiso   1.00
H1126  H     0.57359   0.08398   0.92300   0.00000  Uiso   1.00
H1127  H     0.52131   0.11978   0.93713   0.00000  Uiso   1.00
H1128  H     0.54760   0.09249   0.99620   0.00000  Uiso   1.00
H1129  H     0.99693   0.03734   0.87842   0.00000  Uiso   1.00
H1130  H     0.99074   0.03291   0.95634   0.00000  Uiso   1.00
H1131  H     0.56381   0.31398   0.95171   0.00000  Uiso   1.00
H1132  H     0.57034   0.32334   0.87563   0.00000  Uiso   1.00
H1133  H     0.95676   0.29832   0.89694   0.00000  Uiso   1.00
H1134  H     0.73882   0.32019   0.76303   0.00000  Uiso   1.00
H1135  H     0.75538   0.01360   0.90482   0.00000  Uiso   1.00
H1136  H     0.71589   0.12748   0.98289   0.00000  Uiso   1.00
H1137  H     0.78404   0.20591   0.68361   0.00000  Uiso   1.00
H1138  H     0.83749   0.01743   0.80227   0.00000  Uiso   1.00
N1139  N     0.73744   0.15214   0.67951   0.00000  Uiso   1.00
N1140  N     0.76255   0.18119   0.98716   0.00000  Uiso   1.00
O1141  O     0.75325   0.09538   0.87326   0.00000  Uiso   1.00
O1142  O     0.74674   0.23796   0.79341   0.00000  Uiso   1.00
O1143  O     0.74480   0.08559   0.76945   0.00000  Uiso   1.00
O1144  O     0.75520   0.24774   0.89721   0.00000  Uiso   1.00
O1145  O     0.68935   0.17155   0.88524   0.00000  Uiso   1.00
O1146  O     0.81064   0.16179   0.78143   0.00000  Uiso   1.00
O1147  O     0.68090   0.16176   0.78143   0.00000  Uiso   1.00
O1148  O     0.81910   0.17157   0.88523   0.00000  Uiso   1.00
C1149  C     0.24762   0.39999   0.81786   0.00000  Uiso   1.00
C1150  C     0.09497   0.45378   0.81515   0.00000  Uiso   1.00
C1151  C     0.38369   0.50242   0.82603   0.00000  Uiso   1.00
C1152  C     0.11688   0.50157   0.83882   0.00000  Uiso   1.00
C1153  C     0.40772   0.45511   0.80557   0.00000  Uiso   1.00
C1154  C     0.09336   0.54905   0.86040   0.00000  Uiso   1.00
C1155  C     0.45423   0.45479   0.80218   0.00000  Uiso   1.00
C1156  C     0.04657   0.55080   0.85717   0.00000  Uiso   1.00
C1157  C     0.47681   0.50306   0.82608   0.00000  Uiso   1.00
C1158  C     0.02382   0.50317   0.83036   0.00000  Uiso   1.00
C1159  C     0.45237   0.55112   0.84622   0.00000  Uiso   1.00
C1160  C     0.25008   0.60017   0.84915   0.00000  Uiso   1.00
C1161  C     0.04807   0.45523   0.80852   0.00000  Uiso   1.00
C1162  C     0.47883   0.40744   0.77749   0.00000  Uiso   1.00
C1163  C     0.02207   0.59867   0.87966   0.00000  Uiso   1.00
C1164  C     0.37792   0.60237   0.83757   0.00000  Uiso   1.00
C1165  C     0.35415   0.59937   0.77389   0.00000  Uiso   1.00
C1166  C     0.34325   0.65306   0.75956   0.00000  Uiso   1.00
C1167  C     0.12153   0.40123   0.80351   0.00000  Uiso   1.00
C1168  C     0.13169   0.37918   0.73519   0.00000  Uiso   1.00
C1169  C     0.13596   0.65207   0.71929   0.00000  Uiso   1.00
C1170  C     0.45599   0.35508   0.74905   0.00000  Uiso   1.00
C1171  C     0.02518   0.40927   0.78053   0.00000  Uiso   1.00
C1172  C     0.48662   0.63976   0.72476   0.00000  Uiso   1.00
C1173  C     0.46068   0.59008   0.69495   0.00000  Uiso   1.00
C1174  C     0.04558   0.65089   0.90844   0.00000  Uiso   1.00
C1175  C     0.01544   0.36796   0.92160   0.00000  Uiso   1.00
C1176  C     0.04143   0.41884   0.94572   0.00000  Uiso   1.00
C1177  C     0.47540   0.59720   0.87480   0.00000  Uiso   1.00
C1178  C     0.24436   0.34416   0.80964   0.00000  Uiso   1.00
C1179  C     0.24988   0.65633   0.85814   0.00000  Uiso   1.00
C1180  C     0.16472   0.50286   0.83554   0.00000  Uiso   1.00
C1181  C     0.33556   0.49990   0.83125   0.00000  Uiso   1.00
C1182  C     0.40522   0.55154   0.83861   0.00000  Uiso   1.00
Cu1183 Cu    0.25500   0.50579   0.89479   0.00000  Uiso   1.00
Cu1184 Cu    0.24499   0.49421   0.77187   0.00000  Uiso   1.00
H1185  H     0.38947   0.41878   0.79218   0.00000  Uiso   1.00
H1186  H     0.36997   0.66463   0.73382   0.00000  Uiso   1.00
H1187  H     0.31316   0.64998   0.72828   0.00000  Uiso   1.00
H1188  H     0.37300   0.57446   0.73575   0.00000  Uiso   1.00
H1189  H     0.32225   0.58056   0.77320   0.00000  Uiso   1.00
H1190  H     0.35294   0.60893   0.87388   0.00000  Uiso   1.00
H1191  H     0.39826   0.63816   0.84776   0.00000  Uiso   1.00
H1192  H     0.16047   0.63853   0.75126   0.00000  Uiso   1.00
H1193  H     0.10327   0.63439   0.72274   0.00000  Uiso   1.00
H1194  H     0.14702   0.63776   0.67131   0.00000  Uiso   1.00
H1195  H     0.10518   0.39056   0.70465   0.00000  Uiso   1.00
H1196  H     0.11234   0.58441   0.87907   0.00000  Uiso   1.00
H1197  H     0.16311   0.39597   0.72482   0.00000  Uiso   1.00
H1198  H     0.15328   0.40509   0.83142   0.00000  Uiso   1.00
H1199  H     0.10333   0.37207   0.82144   0.00000  Uiso   1.00
H1200  H     0.44679   0.57347   0.73111   0.00000  Uiso   1.00
H1201  H     0.43354   0.59882   0.99645   0.00000  Uiso   1.00
H1202  H     0.48350   0.55961   0.66830   0.00000  Uiso   1.00
H1203  H     0.00816   0.64780   0.68944   0.00000  Uiso   1.00
H1204  H     0.00816   0.63120   0.76321   0.00000  Uiso   1.00
H1205  H     0.43610   0.34541   0.78523   0.00000  Uiso   1.00
H1206  H     0.43401   0.36143   0.70994   0.00000  Uiso   1.00
H1207  H     0.04398   0.37411   0.76122   0.00000  Uiso   1.00
H1208  H     0.07359   0.41731   0.92300   0.00000  Uiso   1.00
H1209  H     0.02131   0.45312   0.93713   0.00000  Uiso   1.00
H1210  H     0.04760   0.42582   0.99620   0.00000  Uiso   1.00
H1211  H     0.49693   0.37068   0.87842   0.00000  Uiso   1.00
H1212  H     0.49074   0.36624   0.95634   0.00000  Uiso   1.00
H1213  H     0.06381   0.64731   0.95171   0.00000  Uiso   1.00
H1214  H     0.07034   0.65668   0.87563   0.00000  Uiso   1.00
H1215  H     0.45676   0.63166   0.89694   0.00000  Uiso   1.00
H1216  H     0.23882   0.65352   0.76303   0.00000  Uiso   1.00
H1217  H     0.25538   0.34693   0.90482   0.00000  Uiso   1.00
H1218  H     0.21589   0.46081   0.98289   0.00000  Uiso   1.00
H1219  H     0.28404   0.53924   0.68361   0.00000  Uiso   1.00
H1220  H     0.33749   0.35076   0.80227   0.00000  Uiso   1.00
N1221  N     0.23744   0.48547   0.67951   0.00000  Uiso   1.00
N1222  N     0.26255   0.51453   0.98716   0.00000  Uiso   1.00
O1223  O     0.25325   0.42871   0.87326   0.00000  Uiso   1.00
O1224  O     0.24674   0.57129   0.79341   0.00000  Uiso   1.00
O1225  O     0.24480   0.41892   0.76945   0.00000  Uiso   1.00
O1226  O     0.25520   0.58108   0.89721   0.00000  Uiso   1.00
O1227  O     0.18935   0.50488   0.88524   0.00000  Uiso   1.00
O1228  O     0.31064   0.49512   0.78143   0.00000  Uiso   1.00
O1229  O     0.18090   0.49510   0.78143   0.00000  Uiso   1.00
O1230  O     0.31910   0.50490   0.88523   0.00000  Uiso   1.00
C1231  C     0.74762   0.39999   0.81786   0.00000  Uiso   1.00
C1232  C     0.59497   0.45378   0.81515   0.00000  Uiso   1.00
C1233  C     0.88369   0.50242   0.82603   0.00000  Uiso   1.00
C1234  C     0.61688   0.50157   0.83882   0.00000  Uiso   1.00
C1235  C     0.90772   0.45511   0.80557   0.00000  Uiso   1.00
C1236  C     0.59336   0.54905   0.86040   0.00000  Uiso   1.00
C1237  C     0.95423   0.45479   0.80218   0.00000  Uiso   1.00
C1238  C     0.54657   0.55080   0.85717   0.00000  Uiso   1.00
C1239  C     0.97681   0.50306   0.82608   0.00000  Uiso   1.00
C1240  C     0.52382   0.50317   0.83036   0.00000  Uiso   1.00
C1241  C     0.95237   0.55112   0.84622   0.00000  Uiso   1.00
C1242  C     0.75008   0.60017   0.84915   0.00000  Uiso   1.00
C1243  C     0.54807   0.45523   0.80852   0.00000  Uiso   1.00
C1244  C     0.97883   0.40744   0.77749   0.00000  Uiso   1.00
C1245  C     0.52207   0.59867   0.87966   0.00000  Uiso   1.00
C1246  C     0.87792   0.60237   0.83757   0.00000  Uiso   1.00
C1247  C     0.85415   0.59937   0.77389   0.00000  Uiso   1.00
C1248  C     0.84325   0.65306   0.75956   0.00000  Uiso   1.00
C1249  C     0.62153   0.40123   0.80351   0.00000  Uiso   1.00
C1250  C     0.63169   0.37918   0.73519   0.00000  Uiso   1.00
C1251  C     0.63596   0.65207   0.71929   0.00000  Uiso   1.00
C1252  C     0.95599   0.35508   0.74905   0.00000  Uiso   1.00
C1253  C     0.52518   0.40927   0.78053   0.00000  Uiso   1.00
C1254  C     0.98662   0.63976   0.72476   0.00000  Uiso   1.00
C1255  C     0.96068   0.59008   0.69495   0.00000  Uiso   1.00
C1256  C     0.54558   0.65089   0.90844   0.00000  Uiso   1.00
C1257  C     0.51544   0.36796   0.92160   0.00000  Uiso   1.00
C1258  C     0.54143   0.41884   0.94572   0.00000  Uiso   1.00
C1259  C     0.97540   0.59720   0.87480   0.00000  Uiso   1.00
C1260  C     0.74436   0.34416   0.80964   0.00000  Uiso   1.00
C1261  C     0.74988   0.65633   0.85814   0.00000  Uiso   1.00
C1262  C     0.66472   0.50286   0.83554   0.00000  Uiso   1.00
C1263  C     0.83556   0.49990   0.83125   0.00000  Uiso   1.00
C1264  C     0.90522   0.55154   0.83861   0.00000  Uiso   1.00
Cu1265 Cu    0.75500   0.50579   0.89479   0.00000  Uiso   1.00
Cu1266 Cu    0.74499   0.49421   0.77187   0.00000  Uiso   1.00
H1267  H     0.88947   0.41878   0.79218   0.00000  Uiso   1.00
H1268  H     0.86997   0.66463   0.73382   0.00000  Uiso   1.00
H1269  H     0.81316   0.64998   0.72828   0.00000  Uiso   1.00
H1270  H     0.87300   0.57446   0.73575   0.00000  Uiso   1.00
H1271  H     0.82225   0.58056   0.77320   0.00000  Uiso   1.00
H1272  H     0.85294   0.60893   0.87388   0.00000  Uiso   1.00
H1273  H     0.89826   0.63816   0.84776   0.00000  Uiso   1.00
H1274  H     0.66047   0.63853   0.75126   0.00000  Uiso   1.00
H1275  H     0.60327   0.63439   0.72274   0.00000  Uiso   1.00
H1276  H     0.64702   0.63776   0.67131   0.00000  Uiso   1.00
H1277  H     0.60518   0.39056   0.70465   0.00000  Uiso   1.00
H1278  H     0.61234   0.58441   0.87907   0.00000  Uiso   1.00
H1279  H     0.66311   0.39597   0.72482   0.00000  Uiso   1.00
H1280  H     0.65328   0.40509   0.83142   0.00000  Uiso   1.00
H1281  H     0.60333   0.37207   0.82144   0.00000  Uiso   1.00
H1282  H     0.94679   0.57347   0.73111   0.00000  Uiso   1.00
H1283  H     0.93354   0.59882   0.99645   0.00000  Uiso   1.00
H1284  H     0.98350   0.55961   0.66830   0.00000  Uiso   1.00
H1285  H     0.50816   0.64780   0.68944   0.00000  Uiso   1.00
H1286  H     0.50816   0.63120   0.76321   0.00000  Uiso   1.00
H1287  H     0.93610   0.34541   0.78523   0.00000  Uiso   1.00
H1288  H     0.93401   0.36143   0.70994   0.00000  Uiso   1.00
H1289  H     0.54398   0.37411   0.76122   0.00000  Uiso   1.00
H1290  H     0.57359   0.41731   0.92300   0.00000  Uiso   1.00
H1291  H     0.52131   0.45312   0.93713   0.00000  Uiso   1.00
H1292  H     0.54760   0.42582   0.99620   0.00000  Uiso   1.00
H1293  H     0.99693   0.37068   0.87842   0.00000  Uiso   1.00
H1294  H     0.99074   0.36624   0.95634   0.00000  Uiso   1.00
H1295  H     0.56381   0.64731   0.95171   0.00000  Uiso   1.00
H1296  H     0.57034   0.65668   0.87563   0.00000  Uiso   1.00
H1297  H     0.95676   0.63166   0.89694   0.00000  Uiso   1.00
H1298  H     0.73882   0.65352   0.76303   0.00000  Uiso   1.00
H1299  H     0.75538   0.34693   0.90482   0.00000  Uiso   1.00
H1300  H     0.71589   0.46081   0.98289   0.00000  Uiso   1.00
H1301  H     0.78404   0.53924   0.68361   0.00000  Uiso   1.00
H1302  H     0.83749   0.35076   0.80227   0.00000  Uiso   1.00
N1303  N     0.73744   0.48547   0.67951   0.00000  Uiso   1.00
N1304  N     0.76255   0.51453   0.98716   0.00000  Uiso   1.00
O1305  O     0.75325   0.42871   0.87326   0.00000  Uiso   1.00
O1306  O     0.74674   0.57129   0.79341   0.00000  Uiso   1.00
O1307  O     0.74480   0.41892   0.76945   0.00000  Uiso   1.00
O1308  O     0.75520   0.58108   0.89721   0.00000  Uiso   1.00
O1309  O     0.68935   0.50488   0.88524   0.00000  Uiso   1.00
O1310  O     0.81064   0.49512   0.78143   0.00000  Uiso   1.00
O1311  O     0.68090   0.49510   0.78143   0.00000  Uiso   1.00
O1312  O     0.81910   0.50490   0.88523   0.00000  Uiso   1.00
C1313  C     0.24762   0.73333   0.81786   0.00000  Uiso   1.00
C1314  C     0.09497   0.78711   0.81515   0.00000  Uiso   1.00
C1315  C     0.38369   0.83575   0.82603   0.00000  Uiso   1.00
C1316  C     0.11688   0.83491   0.83882   0.00000  Uiso   1.00
C1317  C     0.40772   0.78844   0.80557   0.00000  Uiso   1.00
C1318  C     0.09336   0.88239   0.86040   0.00000  Uiso   1.00
C1319  C     0.45423   0.78812   0.80218   0.00000  Uiso   1.00
C1320  C     0.04657   0.88413   0.85717   0.00000  Uiso   1.00
C1321  C     0.47681   0.83639   0.82608   0.00000  Uiso   1.00
C1322  C     0.02382   0.83651   0.83036   0.00000  Uiso   1.00
C1323  C     0.45237   0.88445   0.84622   0.00000  Uiso   1.00
C1324  C     0.25008   0.93350   0.84915   0.00000  Uiso   1.00
C1325  C     0.04807   0.78856   0.80852   0.00000  Uiso   1.00
C1326  C     0.47883   0.74077   0.77749   0.00000  Uiso   1.00
C1327  C     0.02207   0.93200   0.87966   0.00000  Uiso   1.00
C1328  C     0.37792   0.93570   0.83757   0.00000  Uiso   1.00
C1329  C     0.35415   0.93270   0.77389   0.00000  Uiso   1.00
C1330  C     0.34325   0.98639   0.75956   0.00000  Uiso   1.00
C1331  C     0.12153   0.73457   0.80351   0.00000  Uiso   1.00
C1332  C     0.13169   0.71251   0.73519   0.00000  Uiso   1.00
C1333  C     0.13596   0.98540   0.71929   0.00000  Uiso   1.00
C1334  C     0.45599   0.68841   0.74905   0.00000  Uiso   1.00
C1335  C     0.02518   0.74260   0.78053   0.00000  Uiso   1.00
C1336  C     0.48662   0.97309   0.72476   0.00000  Uiso   1.00
C1337  C     0.46068   0.92341   0.69495   0.00000  Uiso   1.00
C1338  C     0.04558   0.98422   0.90844   0.00000  Uiso   1.00
C1339  C     0.01544   0.70129   0.92160   0.00000  Uiso   1.00
C1340  C     0.04143   0.75217   0.94572   0.00000  Uiso   1.00
C1341  C     0.47540   0.93054   0.87480   0.00000  Uiso   1.00
C1342  C     0.24436   0.67749   0.80964   0.00000  Uiso   1.00
C1343  C     0.24988   0.98966   0.85814   0.00000  Uiso   1.00
C1344  C     0.16472   0.83619   0.83554   0.00000  Uiso   1.00
C1345  C     0.33556   0.83323   0.83125   0.00000  Uiso   1.00
C1346  C     0.40522   0.88487   0.83861   0.00000  Uiso   1.00
Cu1347 Cu    0.25500   0.83913   0.89479   0.00000  Uiso   1.00
Cu1348 Cu    0.24499   0.82754   0.77187   0.00000  Uiso   1.00
H1349  H     0.38947   0.75211   0.79218   0.00000  Uiso   1.00
H1350  H     0.36997   0.99797   0.73382   0.00000  Uiso   1.00
H1351  H     0.31316   0.98332   0.72828   0.00000  Uiso   1.00
H1352  H     0.37300   0.90779   0.73575   0.00000  Uiso   1.00
H1353  H     0.32225   0.91389   0.77320   0.00000  Uiso   1.00
H1354  H     0.35294   0.94226   0.87388   0.00000  Uiso   1.00
H1355  H     0.39826   0.97150   0.84776   0.00000  Uiso   1.00
H1356  H     0.16047   0.97187   0.75126   0.00000  Uiso   1.00
H1357  H     0.10327   0.96772   0.72274   0.00000  Uiso   1.00
H1358  H     0.14702   0.97109   0.67131   0.00000  Uiso   1.00
H1359  H     0.10518   0.72389   0.70465   0.00000  Uiso   1.00
H1360  H     0.11234   0.91775   0.87907   0.00000  Uiso   1.00
H1361  H     0.16311   0.72930   0.72482   0.00000  Uiso   1.00
H1362  H     0.15328   0.73842   0.83142   0.00000  Uiso   1.00
H1363  H     0.10333   0.70540   0.82144   0.00000  Uiso   1.00
H1364  H     0.44679   0.90681   0.73111   0.00000  Uiso   1.00
H1365  H     0.43354   0.93215   0.99645   0.00000  Uiso   1.00
H1366  H     0.48350   0.89295   0.66830   0.00000  Uiso   1.00
H1367  H     0.00816   0.98113   0.68944   0.00000  Uiso   1.00
H1368  H     0.00816   0.96453   0.76321   0.00000  Uiso   1.00
H1369  H     0.43610   0.67874   0.78523   0.00000  Uiso   1.00
H1370  H     0.43401   0.69476   0.70994   0.00000  Uiso   1.00
H1371  H     0.04398   0.70745   0.76122   0.00000  Uiso   1.00
H1372  H     0.07359   0.75064   0.92300   0.00000  Uiso   1.00
H1373  H     0.02131   0.78645   0.93713   0.00000  Uiso   1.00
H1374  H     0.04760   0.75915   0.99620   0.00000  Uiso   1.00
H1375  H     0.49693   0.70401   0.87842   0.00000  Uiso   1.00
H1376  H     0.49074   0.69957   0.95634   0.00000  Uiso   1.00
H1377  H     0.06381   0.98065   0.95171   0.00000  Uiso   1.00
H1378  H     0.07034   0.99001   0.87563   0.00000  Uiso   1.00
H1379  H     0.45676   0.96499   0.89694   0.00000  Uiso   1.00
H1380  H     0.23882   0.98685   0.76303   0.00000  Uiso   1.00
H1381  H     0.25538   0.68026   0.90482   0.00000  Uiso   1.00
H1382  H     0.21589   0.79415   0.98289   0.00000  Uiso   1.00
H1383  H     0.28404   0.87257   0.68361   0.00000  Uiso   1.00
H1384  H     0.33749   0.68409   0.80227   0.00000  Uiso   1.00
N1385  N     0.23744   0.81881   0.67951   0.00000  Uiso   1.00
N1386  N     0.26255   0.84786   0.98716   0.00000  Uiso   1.00
O1387  O     0.25325   0.76204   0.87326   0.00000  Uiso   1.00
O1388  O     0.24674   0.90462   0.79341   0.00000  Uiso   1.00
O1389  O     0.24480   0.75226   0.76945   0.00000  Uiso   1.00
O1390  O     0.25520   0.91441   0.89721   0.00000  Uiso   1.00
O1391  O     0.18935   0.83821   0.88524   0.00000  Uiso   1.00
O1392  O     0.31064   0.82845   0.78143   0.00000  Uiso   1.00
O1393  O     0.18090   0.82843   0.78143   0.00000  Uiso   1.00
O1394  O     0.31910   0.83824   0.88523   0.00000  Uiso   1.00
C1395  C     0.74762   0.73333   0.81786   0.00000  Uiso   1.00
C1396  C     0.59497   0.78711   0.81515   0.00000  Uiso   1.00
C1397  C     0.88369   0.83575   0.82603   0.00000  Uiso   1.00
C1398  C     0.61688   0.83491   0.83882   0.00000  Uiso   1.00
C1399  C     0.90772   0.78844   0.80557   0.00000  Uiso   1.00
C1400  C     0.59336   0.88239   0.86040   0.00000  Uiso   1.00
C1401  C     0.95423   0.78812   0.80218   0.00000  Uiso   1.00
C1402  C     0.54657   0.88413   0.85717   0.00000  Uiso   1.00
C1403  C     0.97681   0.83639   0.82608   0.00000  Uiso   1.00
C1404  C     0.52382   0.83651   0.83036   0.00000  Uiso   1.00
C1405  C     0.95237   0.88445   0.84622   0.00000  Uiso   1.00
C1406  C     0.75008   0.93350   0.84915   0.00000  Uiso   1.00
C1407  C     0.54807   0.78856   0.80852   0.00000  Uiso   1.00
C1408  C     0.97883   0.74077   0.77749   0.00000  Uiso   1.00
C1409  C     0.52207   0.93200   0.87966   0.00000  Uiso   1.00
C1410  C     0.87792   0.93570   0.83757   0.00000  Uiso   1.00
C1411  C     0.85415   0.93270   0.77389   0.00000  Uiso   1.00
C1412  C     0.84325   0.98639   0.75956   0.00000  Uiso   1.00
C1413  C     0.62153   0.73457   0.80351   0.00000  Uiso   1.00
C1414  C     0.63169   0.71251   0.73519   0.00000  Uiso   1.00
C1415  C     0.63596   0.98540   0.71929   0.00000  Uiso   1.00
C1416  C     0.95599   0.68841   0.74905   0.00000  Uiso   1.00
C1417  C     0.52518   0.74260   0.78053   0.00000  Uiso   1.00
C1418  C     0.98662   0.97309   0.72476   0.00000  Uiso   1.00
C1419  C     0.96068   0.92341   0.69495   0.00000  Uiso   1.00
C1420  C     0.54558   0.98422   0.90844   0.00000  Uiso   1.00
C1421  C     0.51544   0.70129   0.92160   0.00000  Uiso   1.00
C1422  C     0.54143   0.75217   0.94572   0.00000  Uiso   1.00
C1423  C     0.97540   0.93054   0.87480   0.00000  Uiso   1.00
C1424  C     0.74436   0.67749   0.80964   0.00000  Uiso   1.00
C1425  C     0.74988   0.98966   0.85814   0.00000  Uiso   1.00
C1426  C     0.66472   0.83619   0.83554   0.00000  Uiso   1.00
C1427  C     0.83556   0.83323   0.83125   0.00000  Uiso   1.00
C1428  C     0.90522   0.88487   0.83861   0.00000  Uiso   1.00
Cu1429 Cu    0.75500   0.83913   0.89479   0.00000  Uiso   1.00
Cu1430 Cu    0.74499   0.82754   0.77187   0.00000  Uiso   1.00
H1431  H     0.88947   0.75211   0.79218   0.00000  Uiso   1.00
H1432  H     0.86997   0.99797   0.73382   0.00000  Uiso   1.00
H1433  H     0.81316   0.98332   0.72828   0.00000  Uiso   1.00
H1434  H     0.87300   0.90779   0.73575   0.00000  Uiso   1.00
H1435  H     0.82225   0.91389   0.77320   0.00000  Uiso   1.00
H1436  H     0.85294   0.94226   0.87388   0.00000  Uiso   1.00
H1437  H     0.89826   0.97150   0.84776   0.00000  Uiso   1.00
H1438  H     0.66047   0.97187   0.75126   0.00000  Uiso   1.00
H1439  H     0.60327   0.96772   0.72274   0.00000  Uiso   1.00
H1440  H     0.64702   0.97109   0.67131   0.00000  Uiso   1.00
H1441  H     0.60518   0.72389   0.70465   0.00000  Uiso   1.00
H1442  H     0.61234   0.91775   0.87907   0.00000  Uiso   1.00
H1443  H     0.66311   0.72930   0.72482   0.00000  Uiso   1.00
H1444  H     0.65328   0.73842   0.83142   0.00000  Uiso   1.00
H1445  H     0.60333   0.70540   0.82144   0.00000  Uiso   1.00
H1446  H     0.94679   0.90681   0.73111   0.00000  Uiso   1.00
H1447  H     0.93354   0.93215   0.99645   0.00000  Uiso   1.00
H1448  H     0.98350   0.89295   0.66830   0.00000  Uiso   1.00
H1449  H     0.50816   0.98113   0.68944   0.00000  Uiso   1.00
H1450  H     0.50816   0.96453   0.76321   0.00000  Uiso   1.00
H1451  H     0.93610   0.67874   0.78523   0.00000  Uiso   1.00
H1452  H     0.93401   0.69476   0.70994   0.00000  Uiso   1.00
H1453  H     0.54398   0.70745   0.76122   0.00000  Uiso   1.00
H1454  H     0.57359   0.75064   0.92300   0.00000  Uiso   1.00
H1455  H     0.52131   0.78645   0.93713   0.00000  Uiso   1.00
H1456  H     0.54760   0.75915   0.99620   0.00000  Uiso   1.00
H1457  H     0.99693   0.70401   0.87842   0.00000  Uiso   1.00
H1458  H     0.99074   0.69957   0.95634   0.00000  Uiso   1.00
H1459  H     0.56381   0.98065   0.95171   0.00000  Uiso   1.00
H1460  H     0.57034   0.99001   0.87563   0.00000  Uiso   1.00
H1461  H     0.95676   0.96499   0.89694   0.00000  Uiso   1.00
H1462  H     0.73882   0.98685   0.76303   0.00000  Uiso   1.00
H1463  H     0.75538   0.68026   0.90482   0.00000  Uiso   1.00
H1464  H     0.71589   0.79415   0.98289   0.00000  Uiso   1.00
H1465  H     0.78404   0.87257   0.68361   0.00000  Uiso   1.00
H1466  H     0.83749   0.68409   0.80227   0.00000  Uiso   1.00
N1467  N     0.73744   0.81881   0.67951   0.00000  Uiso   1.00
N1468  N     0.76255   0.84786   0.98716   0.00000  Uiso   1.00
O1469  O     0.75325   0.76204   0.87326   0.00000  Uiso   1.00
O1470  O     0.74674   0.90462   0.79341   0.00000  Uiso   1.00
O1471  O     0.74480   0.75226   0.76945   0.00000  Uiso   1.00
O1472  O     0.75520   0.91441   0.89721   0.00000  Uiso   1.00
O1473  O     0.68935   0.83821   0.88524   0.00000  Uiso   1.00
O1474  O     0.81064   0.82845   0.78143   0.00000  Uiso   1.00
O1475  O     0.68090   0.82843   0.78143   0.00000  Uiso   1.00
O1476  O     0.81910   0.83824   0.88523   0.00000  Uiso   1.00
loop_
_geom_bond_atom_site_label_1
_geom_bond_atom_site_label_2
_geom_bond_distance
_geom_bond_site_symmetry_2
_ccdc_geom_bond_type
C1     O77     1.287   .     A
C1     O75     1.290   .     A
C1     C30     1.424   .     S
C2     C13     1.412   .     A
C2     C4      1.400   .     A
C2     C19     1.534   .     S
C3     C33     1.463   .     S
C3     C34     1.410   .     A
C3     C5      1.398   .     A
C4     C6      1.397   .     A
C4     C32     1.446   .     S
C5     H37     1.078   .     S
C5     C7      1.404   .     A
C6     H48     1.082   .     S
C6     C8      1.406   .     A
C7     C14     1.424   .     A
C7     C9      1.421   .     A
C8     C15     1.423   .     A
C8     C10     1.421   .     A
C9     C11     1.418   .     A
C9     C92     1.413   .     S
C10    C13     1.418   .     A
C10    C91     1.413   1_455 S
C11    C34     1.420   .     A
C11    C29     1.402   .     A
C12    O78     1.285   .     A
C12    O76     1.293   .     A
C12    C31     1.424   .     S
C13    C23     1.395   .     A
C14    C22     1.527   .     S
C14    C105    1.394   .     S
C15    C26     1.535   .     S
C15    C111    1.404   1_455 S
C16    C34     1.538   .     S
C16    C17     1.547   .     S
C16    H43     1.100   .     S
C16    H42     1.111   .     S
C17    H40     1.108   .     S
C17    C18     1.526   .     S
C17    H41     1.088   .     S
C18    H39     1.110   .     S
C18    H38     1.098   .     S
C18    H236    1.110   .     S
C19    C20     1.539   .     S
C19    H50     1.109   .     S
C19    H51     1.105   .     S
C20    H49     1.109   .     S
C20    H47     1.104   .     S
C20    C349    1.528   1_545 S
C21    H45     1.111   .     S
C21    H44     1.109   .     S
C21    H46     1.111   .     S
C21    C184    1.528   .     S
C22    H57     1.106   .     S
C22    H58     1.111   .     S
C22    C352    1.547   1_545 S
C23    H59     1.070   .     S
C23    C96     1.394   1_455 S
C24    C25     1.524   .     S
C24    C186    1.547   .     S
C24    H137    1.104   .     S
C24    H138    1.111   .     S
C25    H54     1.111   .     S
C25    H52     1.104   .     S
C25    H1037   1.111   1_554 S
C26    H66     1.106   .     S
C26    H65     1.110   .     S
C26    C191    1.547   .     S
C27    C28     1.527   .     S
C27    C354    1.547   1_545 S
C27    H145    1.106   1_455 S
C27    H146    1.108   1_455 S
C28    H61     1.110   .     S
C28    H60     1.109   .     S
C28    H62     1.106   .     S
C29    H67     1.071   .     S
C29    C97     1.404   .     S
C30    C359    1.327   1_545 S
C30    H396    1.087   1_545 S
C31    C194    1.327   .     S
C31    H233    1.088   .     S
C32    O81     1.292   .     A
C32    O79     1.296   .     A
C33    O82     1.301   .     A
C33    O80     1.294   .     A
Cu35   N74     2.023   .     S
Cu35   Cu36    2.692   .     S
Cu35   O75     1.947   .     S
Cu35   O82     1.949   .     S
Cu35   O78     1.943   .     S
Cu35   O79     1.976   .     S
Cu36   O77     1.943   .     S
Cu36   O76     1.947   .     S
Cu36   O80     1.976   .     S
Cu36   O81     1.949   .     S
Cu36   N73     2.023   .     S
H53    C517    1.111   .     S
H55    C106    1.104   1_455 S
H56    C106    1.111   1_455 S
H63    C109    1.106   .     S
H64    C109    1.108   .     S
H68    C194    1.087   .     S
H69    C359    1.088   1_545 S
H70    N565    1.029   .     S
H71    N1058   1.027   1_554 S
H72    C346    1.110   1_545 S
N73    H1054   1.029   1_554 S
N73    N1058   1.322   1_554 S
N74    N565    1.322   .     S
N74    H563    1.027   .     S
C83    O159    1.287   .     A
C83    O157    1.290   .     A
C83    C112    1.424   .     S
C84    C95     1.412   .     A
C84    C86     1.400   .     A
C84    C101    1.534   .     S
C85    C115    1.463   .     S
C85    C116    1.410   .     A
C85    C87     1.398   .     A
C86    C88     1.397   .     A
C86    C114    1.446   .     S
C87    H119    1.078   .     S
C87    C89     1.404   .     A
C88    H130    1.082   .     S
C88    C90     1.406   .     A
C89    C96     1.424   .     A
C89    C91     1.421   .     A
C90    C97     1.423   .     A
C90    C92     1.421   .     A
C91    C93     1.418   .     A
C91    C10     1.413   1_655 S
C92    C95     1.418   .     A
C93    C116    1.420   .     A
C93    C111    1.402   .     A
C94    O160    1.285   .     A
C94    O158    1.293   .     A
C94    C113    1.424   .     S
C95    C105    1.395   .     A
C96    C104    1.527   .     S
C96    C23     1.394   1_655 S
C97    C108    1.535   .     S
C98    C116    1.538   .     S
C98    C99     1.547   .     S
C98    H125    1.100   .     S
C98    H124    1.111   .     S
C99    H122    1.108   .     S
C99    C100    1.526   .     S
C99    H123    1.088   .     S
C100   H121    1.110   .     S
C100   H120    1.098   .     S
C100   H318    1.110   .     S
C101   C102    1.539   .     S
C101   H132    1.109   .     S
C101   H133    1.105   .     S
C102   H131    1.109   .     S
C102   H129    1.104   .     S
C102   C431    1.528   1_545 S
C103   H127    1.111   .     S
C103   H126    1.109   .     S
C103   H128    1.111   .     S
C103   C266    1.528   .     S
C104   H139    1.106   .     S
C104   H140    1.111   .     S
C104   C434    1.547   1_545 S
C105   H141    1.070   .     S
C106   C107    1.524   .     S
C106   C268    1.547   .     S
C106   H55     1.104   1_655 S
C106   H56     1.111   1_655 S
C107   H136    1.111   .     S
C107   H134    1.104   .     S
C107   H1119   1.111   1_554 S
C108   H148    1.106   .     S
C108   H147    1.110   .     S
C108   C273    1.547   .     S
C109   C110    1.527   .     S
C109   C436    1.547   1_545 S
C110   H143    1.110   .     S
C110   H142    1.109   .     S
C110   H144    1.106   .     S
C111   H149    1.071   .     S
C111   C15     1.404   1_655 S
C112   C441    1.327   1_545 S
C112   H478    1.087   1_545 S
C113   C276    1.327   .     S
C113   H315    1.088   .     S
C114   O163    1.292   .     A
C114   O161    1.296   .     A
C115   O164    1.301   .     A
C115   O162    1.294   .     A
Cu117  N156    2.023   .     S
Cu117  Cu118   2.692   .     S
Cu117  O157    1.947   .     S
Cu117  O164    1.949   .     S
Cu117  O160    1.943   .     S
Cu117  O161    1.976   .     S
Cu118  O159    1.943   .     S
Cu118  O158    1.947   .     S
Cu118  O162    1.976   .     S
Cu118  O163    1.949   .     S
Cu118  N155    2.023   .     S
H135   C599    1.111   .     S
H145   C27     1.106   1_655 S
H146   C27     1.108   1_655 S
H150   C276    1.087   .     S
H151   C441    1.088   1_545 S
H152   N647    1.029   .     S
H153   N1140   1.027   1_554 S
H154   C428    1.110   1_545 S
N155   H1136   1.029   1_554 S
N155   N1140   1.322   1_554 S
N156   N647    1.322   .     S
N156   H645    1.027   .     S
C165   O241    1.287   .     A
C165   O239    1.290   .     A
C165   C194    1.424   .     S
C166   C177    1.412   .     A
C166   C168    1.400   .     A
C166   C183    1.534   .     S
C167   C197    1.463   .     S
C167   C198    1.410   .     A
C167   C169    1.398   .     A
C168   C170    1.397   .     A
C168   C196    1.446   .     S
C169   H201    1.078   .     S
C169   C171    1.404   .     A
C170   H212    1.082   .     S
C170   C172    1.406   .     A
C171   C178    1.424   .     A
C171   C173    1.421   .     A
C172   C179    1.423   .     A
C172   C174    1.421   .     A
C173   C175    1.418   .     A
C173   C256    1.413   .     S
C174   C177    1.418   .     A
C174   C255    1.413   1_455 S
C175   C198    1.420   .     A
C175   C193    1.402   .     A
C176   O242    1.285   .     A
C176   O240    1.293   .     A
C176   C195    1.424   .     S
C177   C187    1.395   .     A
C178   C186    1.527   .     S
C178   C269    1.394   .     S
C179   C190    1.535   .     S
C179   C275    1.404   1_455 S
C180   C198    1.538   .     S
C180   C181    1.547   .     S
C180   H207    1.100   .     S
C180   H206    1.111   .     S
C181   H204    1.108   .     S
C181   C182    1.526   .     S
C181   H205    1.088   .     S
C182   H203    1.110   .     S
C182   H202    1.098   .     S
C182   H400    1.110   .     S
C183   C184    1.539   .     S
C183   H214    1.109   .     S
C183   H215    1.105   .     S
C184   H213    1.109   .     S
C184   H211    1.104   .     S
C185   H209    1.111   .     S
C185   H208    1.109   .     S
C185   H210    1.111   .     S
C185   C348    1.528   .     S
C186   H221    1.106   .     S
C186   H222    1.111   .     S
C187   H223    1.070   .     S
C187   C260    1.394   1_455 S
C188   C189    1.524   .     S
C188   C350    1.547   .     S
C188   H301    1.104   .     S
C188   H302    1.111   .     S
C189   H218    1.111   .     S
C189   H216    1.104   .     S
C189   H1201   1.111   1_554 S
C190   H230    1.106   .     S
C190   H229    1.110   .     S
C190   C355    1.547   .     S
C191   C192    1.527   .     S
C191   H309    1.106   1_455 S
C191   H310    1.108   1_455 S
C192   H225    1.110   .     S
C192   H224    1.109   .     S
C192   H226    1.106   .     S
C193   H231    1.071   .     S
C193   C261    1.404   .     S
C195   C358    1.327   .     S
C195   H397    1.088   .     S
C196   O245    1.292   .     A
C196   O243    1.296   .     A
C197   O246    1.301   .     A
C197   O244    1.294   .     A
Cu199  N238    2.023   .     S
Cu199  Cu200   2.692   .     S
Cu199  O239    1.947   .     S
Cu199  O246    1.949   .     S
Cu199  O242    1.943   .     S
Cu199  O243    1.976   .     S
Cu200  O241    1.943   .     S
Cu200  O240    1.947   .     S
Cu200  O244    1.976   .     S
Cu200  O245    1.949   .     S
Cu200  N237    2.023   .     S
H217   C681    1.111   .     S
H219   C270    1.104   1_455 S
H220   C270    1.111   1_455 S
H227   C273    1.106   .     S
H228   C273    1.108   .     S
H232   C358    1.087   .     S
H234   N729    1.029   .     S
H235   N1222   1.027   1_554 S
N237   H1218   1.029   1_554 S
N237   N1222   1.322   1_554 S
N238   N729    1.322   .     S
N238   H727    1.027   .     S
C247   O323    1.287   .     A
C247   O321    1.290   .     A
C247   C276    1.424   .     S
C248   C259    1.412   .     A
C248   C250    1.400   .     A
C248   C265    1.534   .     S
C249   C279    1.463   .     S
C249   C280    1.410   .     A
C249   C251    1.398   .     A
C250   C252    1.397   .     A
C250   C278    1.446   .     S
C251   H283    1.078   .     S
C251   C253    1.404   .     A
C252   H294    1.082   .     S
C252   C254    1.406   .     A
C253   C260    1.424   .     A
C253   C255    1.421   .     A
C254   C261    1.423   .     A
C254   C256    1.421   .     A
C255   C257    1.418   .     A
C255   C174    1.413   1_655 S
C256   C259    1.418   .     A
C257   C280    1.420   .     A
C257   C275    1.402   .     A
C258   O324    1.285   .     A
C258   O322    1.293   .     A
C258   C277    1.424   .     S
C259   C269    1.395   .     A
C260   C268    1.527   .     S
C260   C187    1.394   1_655 S
C261   C272    1.535   .     S
C262   C280    1.538   .     S
C262   C263    1.547   .     S
C262   H289    1.100   .     S
C262   H288    1.111   .     S
C263   H286    1.108   .     S
C263   C264    1.526   .     S
C263   H287    1.088   .     S
C264   H285    1.110   .     S
C264   H284    1.098   .     S
C264   H482    1.110   .     S
C265   C266    1.539   .     S
C265   H296    1.109   .     S
C265   H297    1.105   .     S
C266   H295    1.109   .     S
C266   H293    1.104   .     S
C267   H291    1.111   .     S
C267   H290    1.109   .     S
C267   H292    1.111   .     S
C267   C430    1.528   .     S
C268   H303    1.106   .     S
C268   H304    1.111   .     S
C269   H305    1.070   .     S
C270   C271    1.524   .     S
C270   C432    1.547   .     S
C270   H219    1.104   1_655 S
C270   H220    1.111   1_655 S
C271   H300    1.111   .     S
C271   H298    1.104   .     S
C271   H1283   1.111   1_554 S
C272   H312    1.106   .     S
C272   H311    1.110   .     S
C272   C437    1.547   .     S
C273   C274    1.527   .     S
C274   H307    1.110   .     S
C274   H306    1.109   .     S
C274   H308    1.106   .     S
C275   H313    1.071   .     S
C275   C179    1.404   1_655 S
C277   C440    1.327   .     S
C277   H479    1.088   .     S
C278   O327    1.292   .     A
C278   O325    1.296   .     A
C279   O328    1.301   .     A
C279   O326    1.294   .     A
Cu281  N320    2.023   .     S
Cu281  Cu282   2.692   .     S
Cu281  O321    1.947   .     S
Cu281  O328    1.949   .     S
Cu281  O324    1.943   .     S
Cu281  O325    1.976   .     S
Cu282  O323    1.943   .     S
Cu282  O322    1.947   .     S
Cu282  O326    1.976   .     S
Cu282  O327    1.949   .     S
Cu282  N319    2.023   .     S
H299   C763    1.111   .     S
H309   C191    1.106   1_655 S
H310   C191    1.108   1_655 S
H314   C440    1.087   .     S
H316   N811    1.029   .     S
H317   N1304   1.027   1_554 S
N319   H1300   1.029   1_554 S
N319   N1304   1.322   1_554 S
N320   N811    1.322   .     S
N320   H809    1.027   .     S
C329   O405    1.287   .     A
C329   O403    1.290   .     A
C329   C358    1.424   .     S
C330   C341    1.412   .     A
C330   C332    1.400   .     A
C330   C347    1.534   .     S
C331   C361    1.463   .     S
C331   C362    1.410   .     A
C331   C333    1.398   .     A
C332   C334    1.397   .     A
C332   C360    1.446   .     S
C333   H365    1.078   .     S
C333   C335    1.404   .     A
C334   H376    1.082   .     S
C334   C336    1.406   .     A
C335   C342    1.424   .     A
C335   C337    1.421   .     A
C336   C343    1.423   .     A
C336   C338    1.421   .     A
C337   C339    1.418   .     A
C337   C420    1.413   .     S
C338   C341    1.418   .     A
C338   C419    1.413   1_455 S
C339   C362    1.420   .     A
C339   C357    1.402   .     A
C340   O406    1.285   .     A
C340   O404    1.293   .     A
C340   C359    1.424   .     S
C341   C351    1.395   .     A
C342   C350    1.527   .     S
C342   C433    1.394   .     S
C343   C354    1.535   .     S
C343   C439    1.404   1_455 S
C344   C362    1.538   .     S
C344   C345    1.547   .     S
C344   H371    1.100   .     S
C344   H370    1.111   .     S
C345   H368    1.108   .     S
C345   C346    1.526   .     S
C345   H369    1.088   .     S
C346   H367    1.110   .     S
C346   H366    1.098   .     S
C346   H72     1.110   1_565 S
C347   C348    1.539   .     S
C347   H378    1.109   .     S
C347   H379    1.105   .     S
C348   H377    1.109   .     S
C348   H375    1.104   .     S
C349   H373    1.111   .     S
C349   H372    1.109   .     S
C349   H374    1.111   .     S
C349   C20     1.528   1_565 S
C350   H385    1.106   .     S
C350   H386    1.111   .     S
C351   H387    1.070   .     S
C351   C424    1.394   1_455 S
C352   C353    1.524   .     S
C352   C22     1.547   1_565 S
C352   H465    1.104   .     S
C352   H466    1.111   .     S
C353   H382    1.111   .     S
C353   H380    1.104   .     S
C353   H1365   1.111   1_554 S
C354   H394    1.106   .     S
C354   H393    1.110   .     S
C354   C27     1.547   1_565 S
C355   C356    1.527   .     S
C355   H473    1.106   1_455 S
C355   H474    1.108   1_455 S
C356   H389    1.110   .     S
C356   H388    1.109   .     S
C356   H390    1.106   .     S
C357   H395    1.071   .     S
C357   C425    1.404   .     S
C359   C30     1.327   1_565 S
C359   H69     1.088   1_565 S
C360   O409    1.292   .     A
C360   O407    1.296   .     A
C361   O410    1.301   .     A
C361   O408    1.294   .     A
Cu363  N402    2.023   .     S
Cu363  Cu364   2.692   .     S
Cu363  O403    1.947   .     S
Cu363  O410    1.949   .     S
Cu363  O406    1.943   .     S
Cu363  O407    1.976   .     S
Cu364  O405    1.943   .     S
Cu364  O404    1.947   .     S
Cu364  O408    1.976   .     S
Cu364  O409    1.949   .     S
Cu364  N401    2.023   .     S
H381   C845    1.111   .     S
H383   C434    1.104   1_455 S
H384   C434    1.111   1_455 S
H391   C437    1.106   .     S
H392   C437    1.108   .     S
H396   C30     1.087   1_565 S
H398   N893    1.029   .     S
H399   N1386   1.027   1_554 S
N401   H1382   1.029   1_554 S
N401   N1386   1.322   1_554 S
N402   N893    1.322   .     S
N402   H891    1.027   .     S
C411   O487    1.287   .     A
C411   O485    1.290   .     A
C411   C440    1.424   .     S
C412   C423    1.412   .     A
C412   C414    1.400   .     A
C412   C429    1.534   .     S
C413   C443    1.463   .     S
C413   C444    1.410   .     A
C413   C415    1.398   .     A
C414   C416    1.397   .     A
C414   C442    1.446   .     S
C415   H447    1.078   .     S
C415   C417    1.404   .     A
C416   H458    1.082   .     S
C416   C418    1.406   .     A
C417   C424    1.424   .     A
C417   C419    1.421   .     A
C418   C425    1.423   .     A
C418   C420    1.421   .     A
C419   C421    1.418   .     A
C419   C338    1.413   1_655 S
C420   C423    1.418   .     A
C421   C444    1.420   .     A
C421   C439    1.402   .     A
C422   O488    1.285   .     A
C422   O486    1.293   .     A
C422   C441    1.424   .     S
C423   C433    1.395   .     A
C424   C432    1.527   .     S
C424   C351    1.394   1_655 S
C425   C436    1.535   .     S
C426   C444    1.538   .     S
C426   C427    1.547   .     S
C426   H453    1.100   .     S
C426   H452    1.111   .     S
C427   H450    1.108   .     S
C427   C428    1.526   .     S
C427   H451    1.088   .     S
C428   H449    1.110   .     S
C428   H448    1.098   .     S
C428   H154    1.110   1_565 S
C429   C430    1.539   .     S
C429   H460    1.109   .     S
C429   H461    1.105   .     S
C430   H459    1.109   .     S
C430   H457    1.104   .     S
C431   H455    1.111   .     S
C431   H454    1.109   .     S
C431   H456    1.111   .     S
C431   C102    1.528   1_565 S
C432   H467    1.106   .     S
C432   H468    1.111   .     S
C433   H469    1.070   .     S
C434   C435    1.524   .     S
C434   C104    1.547   1_565 S
C434   H383    1.104   1_655 S
C434   H384    1.111   1_655 S
C435   H464    1.111   .     S
C435   H462    1.104   .     S
C435   H1447   1.111   1_554 S
C436   H476    1.106   .     S
C436   H475    1.110   .     S
C436   C109    1.547   1_565 S
C437   C438    1.527   .     S
C438   H471    1.110   .     S
C438   H470    1.109   .     S
C438   H472    1.106   .     S
C439   H477    1.071   .     S
C439   C343    1.404   1_655 S
C441   C112    1.327   1_565 S
C441   H151    1.088   1_565 S
C442   O491    1.292   .     A
C442   O489    1.296   .     A
C443   O492    1.301   .     A
C443   O490    1.294   .     A
Cu445  N484    2.023   .     S
Cu445  Cu446   2.692   .     S
Cu445  O485    1.947   .     S
Cu445  O492    1.949   .     S
Cu445  O488    1.943   .     S
Cu445  O489    1.976   .     S
Cu446  O487    1.943   .     S
Cu446  O486    1.947   .     S
Cu446  O490    1.976   .     S
Cu446  O491    1.949   .     S
Cu446  N483    2.023   .     S
H463   C927    1.111   .     S
H473   C355    1.106   1_655 S
H474   C355    1.108   1_655 S
H478   C112    1.087   1_565 S
H480   N975    1.029   .     S
H481   N1468   1.027   1_554 S
N483   H1464   1.029   1_554 S
N483   N1468   1.322   1_554 S
N484   N975    1.322   .     S
N484   H973    1.027   .     S
C493   O569    1.287   .     A
C493   O567    1.290   .     A
C493   C522    1.424   .     S
C494   C505    1.412   .     A
C494   C496    1.400   .     A
C494   C511    1.534   .     S
C495   C525    1.463   .     S
C495   C526    1.410   .     A
C495   C497    1.398   .     A
C496   C498    1.397   .     A
C496   C524    1.446   .     S
C497   H529    1.078   .     S
C497   C499    1.404   .     A
C498   H540    1.082   .     S
C498   C500    1.406   .     A
C499   C506    1.424   .     A
C499   C501    1.421   .     A
C500   C507    1.423   .     A
C500   C502    1.421   .     A
C501   C503    1.418   .     A
C501   C584    1.413   .     S
C502   C505    1.418   .     A
C502   C583    1.413   1_455 S
C503   C526    1.420   .     A
C503   C521    1.402   .     A
C504   O570    1.285   .     A
C504   O568    1.293   .     A
C504   C523    1.424   .     S
C505   C515    1.395   .     A
C506   C514    1.527   .     S
C506   C597    1.394   .     S
C507   C518    1.535   .     S
C507   C603    1.404   1_455 S
C508   C526    1.538   .     S
C508   C509    1.547   .     S
C508   H535    1.100   .     S
C508   H534    1.111   .     S
C509   H532    1.108   .     S
C509   C510    1.526   .     S
C509   H533    1.088   .     S
C510   H531    1.110   .     S
C510   H530    1.098   .     S
C510   H728    1.110   .     S
C511   C512    1.539   .     S
C511   H542    1.109   .     S
C511   H543    1.105   .     S
C512   H541    1.109   .     S
C512   H539    1.104   .     S
C512   C841    1.528   1_545 S
C513   H537    1.111   .     S
C513   H536    1.109   .     S
C513   H538    1.111   .     S
C513   C676    1.528   .     S
C514   H549    1.106   .     S
C514   H550    1.111   .     S
C514   C844    1.547   1_545 S
C515   H551    1.070   .     S
C515   C588    1.394   1_455 S
C516   C517    1.524   .     S
C516   C678    1.547   .     S
C516   H629    1.104   .     S
C516   H630    1.111   .     S
C517   H546    1.111   .     S
C517   H544    1.104   .     S
C518   H558    1.106   .     S
C518   H557    1.110   .     S
C518   C683    1.547   .     S
C519   C520    1.527   .     S
C519   C846    1.547   1_545 S
C519   H637    1.106   1_455 S
C519   H638    1.108   1_455 S
C520   H553    1.110   .     S
C520   H552    1.109   .     S
C520   H554    1.106   .     S
C521   H559    1.071   .     S
C521   C589    1.404   .     S
C522   C851    1.327   1_545 S
C522   H888    1.087   1_545 S
C523   C686    1.327   .     S
C523   H725    1.088   .     S
C524   O573    1.292   .     A
C524   O571    1.296   .     A
C525   O574    1.301   .     A
C525   O572    1.294   .     A
Cu527  N566    2.023   .     S
Cu527  Cu528   2.692   .     S
Cu527  O567    1.947   .     S
Cu527  O574    1.949   .     S
Cu527  O570    1.943   .     S
Cu527  O571    1.976   .     S
Cu528  O569    1.943   .     S
Cu528  O568    1.947   .     S
Cu528  O572    1.976   .     S
Cu528  O573    1.949   .     S
Cu528  N565    2.023   .     S
H545   C1009   1.111   .     S
H547   C598    1.104   1_455 S
H548   C598    1.111   1_455 S
H555   C601    1.106   .     S
H556   C601    1.108   .     S
H560   C686    1.087   .     S
H561   C851    1.088   1_545 S
H562   N1057   1.029   .     S
H564   C838    1.110   1_545 S
N566   N1057   1.322   .     S
N566   H1055   1.027   .     S
C575   O651    1.287   .     A
C575   O649    1.290   .     A
C575   C604    1.424   .     S
C576   C587    1.412   .     A
C576   C578    1.400   .     A
C576   C593    1.534   .     S
C577   C607    1.463   .     S
C577   C608    1.410   .     A
C577   C579    1.398   .     A
C578   C580    1.397   .     A
C578   C606    1.446   .     S
C579   H611    1.078   .     S
C579   C581    1.404   .     A
C580   H622    1.082   .     S
C580   C582    1.406   .     A
C581   C588    1.424   .     A
C581   C583    1.421   .     A
C582   C589    1.423   .     A
C582   C584    1.421   .     A
C583   C585    1.418   .     A
C583   C502    1.413   1_655 S
C584   C587    1.418   .     A
C585   C608    1.420   .     A
C585   C603    1.402   .     A
C586   O652    1.285   .     A
C586   O650    1.293   .     A
C586   C605    1.424   .     S
C587   C597    1.395   .     A
C588   C596    1.527   .     S
C588   C515    1.394   1_655 S
C589   C600    1.535   .     S
C590   C608    1.538   .     S
C590   C591    1.547   .     S
C590   H617    1.100   .     S
C590   H616    1.111   .     S
C591   H614    1.108   .     S
C591   C592    1.526   .     S
C591   H615    1.088   .     S
C592   H613    1.110   .     S
C592   H612    1.098   .     S
C592   H810    1.110   .     S
C593   C594    1.539   .     S
C593   H624    1.109   .     S
C593   H625    1.105   .     S
C594   H623    1.109   .     S
C594   H621    1.104   .     S
C594   C923    1.528   1_545 S
C595   H619    1.111   .     S
C595   H618    1.109   .     S
C595   H620    1.111   .     S
C595   C758    1.528   .     S
C596   H631    1.106   .     S
C596   H632    1.111   .     S
C596   C926    1.547   1_545 S
C597   H633    1.070   .     S
C598   C599    1.524   .     S
C598   C760    1.547   .     S
C598   H547    1.104   1_655 S
C598   H548    1.111   1_655 S
C599   H628    1.111   .     S
C599   H626    1.104   .     S
C600   H640    1.106   .     S
C600   H639    1.110   .     S
C600   C765    1.547   .     S
C601   C602    1.527   .     S
C601   C928    1.547   1_545 S
C602   H635    1.110   .     S
C602   H634    1.109   .     S
C602   H636    1.106   .     S
C603   H641    1.071   .     S
C603   C507    1.404   1_655 S
C604   C933    1.327   1_545 S
C604   H970    1.087   1_545 S
C605   C768    1.327   .     S
C605   H807    1.088   .     S
C606   O655    1.292   .     A
C606   O653    1.296   .     A
C607   O656    1.301   .     A
C607   O654    1.294   .     A
Cu609  N648    2.023   .     S
Cu609  Cu610   2.692   .     S
Cu609  O649    1.947   .     S
Cu609  O656    1.949   .     S
Cu609  O652    1.943   .     S
Cu609  O653    1.976   .     S
Cu610  O651    1.943   .     S
Cu610  O650    1.947   .     S
Cu610  O654    1.976   .     S
Cu610  O655    1.949   .     S
Cu610  N647    2.023   .     S
H627   C1091   1.111   .     S
H637   C519    1.106   1_655 S
H638   C519    1.108   1_655 S
H642   C768    1.087   .     S
H643   C933    1.088   1_545 S
H644   N1139   1.029   .     S
H646   C920    1.110   1_545 S
N648   N1139   1.322   .     S
N648   H1137   1.027   .     S
C657   O733    1.287   .     A
C657   O731    1.290   .     A
C657   C686    1.424   .     S
C658   C669    1.412   .     A
C658   C660    1.400   .     A
C658   C675    1.534   .     S
C659   C689    1.463   .     S
C659   C690    1.410   .     A
C659   C661    1.398   .     A
C660   C662    1.397   .     A
C660   C688    1.446   .     S
C661   H693    1.078   .     S
C661   C663    1.404   .     A
C662   H704    1.082   .     S
C662   C664    1.406   .     A
C663   C670    1.424   .     A
C663   C665    1.421   .     A
C664   C671    1.423   .     A
C664   C666    1.421   .     A
C665   C667    1.418   .     A
C665   C748    1.413   .     S
C666   C669    1.418   .     A
C666   C747    1.413   1_455 S
C667   C690    1.420   .     A
C667   C685    1.402   .     A
C668   O734    1.285   .     A
C668   O732    1.293   .     A
C668   C687    1.424   .     S
C669   C679    1.395   .     A
C670   C678    1.527   .     S
C670   C761    1.394   .     S
C671   C682    1.535   .     S
C671   C767    1.404   1_455 S
C672   C690    1.538   .     S
C672   C673    1.547   .     S
C672   H699    1.100   .     S
C672   H698    1.111   .     S
C673   H696    1.108   .     S
C673   C674    1.526   .     S
C673   H697    1.088   .     S
C674   H695    1.110   .     S
C674   H694    1.098   .     S
C674   H892    1.110   .     S
C675   C676    1.539   .     S
C675   H706    1.109   .     S
C675   H707    1.105   .     S
C676   H705    1.109   .     S
C676   H703    1.104   .     S
C677   H701    1.111   .     S
C677   H700    1.109   .     S
C677   H702    1.111   .     S
C677   C840    1.528   .     S
C678   H713    1.106   .     S
C678   H714    1.111   .     S
C679   H715    1.070   .     S
C679   C752    1.394   1_455 S
C680   C681    1.524   .     S
C680   C842    1.547   .     S
C680   H793    1.104   .     S
C680   H794    1.111   .     S
C681   H710    1.111   .     S
C681   H708    1.104   .     S
C682   H722    1.106   .     S
C682   H721    1.110   .     S
C682   C847    1.547   .     S
C683   C684    1.527   .     S
C683   H801    1.106   1_455 S
C683   H802    1.108   1_455 S
C684   H717    1.110   .     S
C684   H716    1.109   .     S
C684   H718    1.106   .     S
C685   H723    1.071   .     S
C685   C753    1.404   .     S
C687   C850    1.327   .     S
C687   H889    1.088   .     S
C688   O737    1.292   .     A
C688   O735    1.296   .     A
C689   O738    1.301   .     A
C689   O736    1.294   .     A
Cu691  N730    2.023   .     S
Cu691  Cu692   2.692   .     S
Cu691  O731    1.947   .     S
Cu691  O738    1.949   .     S
Cu691  O734    1.943   .     S
Cu691  O735    1.976   .     S
Cu692  O733    1.943   .     S
Cu692  O732    1.947   .     S
Cu692  O736    1.976   .     S
Cu692  O737    1.949   .     S
Cu692  N729    2.023   .     S
H709   C1173   1.111   .     S
H711   C762    1.104   1_455 S
H712   C762    1.111   1_455 S
H719   C765    1.106   .     S
H720   C765    1.108   .     S
H724   C850    1.087   .     S
H726   N1221   1.029   .     S
N730   N1221   1.322   .     S
N730   H1219   1.027   .     S
C739   O815    1.287   .     A
C739   O813    1.290   .     A
C739   C768    1.424   .     S
C740   C751    1.412   .     A
C740   C742    1.400   .     A
C740   C757    1.534   .     S
C741   C771    1.463   .     S
C741   C772    1.410   .     A
C741   C743    1.398   .     A
C742   C744    1.397   .     A
C742   C770    1.446   .     S
C743   H775    1.078   .     S
C743   C745    1.404   .     A
C744   H786    1.082   .     S
C744   C746    1.406   .     A
C745   C752    1.424   .     A
C745   C747    1.421   .     A
C746   C753    1.423   .     A
C746   C748    1.421   .     A
C747   C749    1.418   .     A
C747   C666    1.413   1_655 S
C748   C751    1.418   .     A
C749   C772    1.420   .     A
C749   C767    1.402   .     A
C750   O816    1.285   .     A
C750   O814    1.293   .     A
C750   C769    1.424   .     S
C751   C761    1.395   .     A
C752   C760    1.527   .     S
C752   C679    1.394   1_655 S
C753   C764    1.535   .     S
C754   C772    1.538   .     S
C754   C755    1.547   .     S
C754   H781    1.100   .     S
C754   H780    1.111   .     S
C755   H778    1.108   .     S
C755   C756    1.526   .     S
C755   H779    1.088   .     S
C756   H777    1.110   .     S
C756   H776    1.098   .     S
C756   H974    1.110   .     S
C757   C758    1.539   .     S
C757   H788    1.109   .     S
C757   H789    1.105   .     S
C758   H787    1.109   .     S
C758   H785    1.104   .     S
C759   H783    1.111   .     S
C759   H782    1.109   .     S
C759   H784    1.111   .     S
C759   C922    1.528   .     S
C760   H795    1.106   .     S
C760   H796    1.111   .     S
C761   H797    1.070   .     S
C762   C763    1.524   .     S
C762   C924    1.547   .     S
C762   H711    1.104   1_655 S
C762   H712    1.111   1_655 S
C763   H792    1.111   .     S
C763   H790    1.104   .     S
C764   H804    1.106   .     S
C764   H803    1.110   .     S
C764   C929    1.547   .     S
C765   C766    1.527   .     S
C766   H799    1.110   .     S
C766   H798    1.109   .     S
C766   H800    1.106   .     S
C767   H805    1.071   .     S
C767   C671    1.404   1_655 S
C769   C932    1.327   .     S
C769   H971    1.088   .     S
C770   O819    1.292   .     A
C770   O817    1.296   .     A
C771   O820    1.301   .     A
C771   O818    1.294   .     A
Cu773  N812    2.023   .     S
Cu773  Cu774   2.692   .     S
Cu773  O813    1.947   .     S
Cu773  O820    1.949   .     S
Cu773  O816    1.943   .     S
Cu773  O817    1.976   .     S
Cu774  O815    1.943   .     S
Cu774  O814    1.947   .     S
Cu774  O818    1.976   .     S
Cu774  O819    1.949   .     S
Cu774  N811    2.023   .     S
H791   C1255   1.111   .     S
H801   C683    1.106   1_655 S
H802   C683    1.108   1_655 S
H806   C932    1.087   .     S
H808   N1303   1.029   .     S
N812   N1303   1.322   .     S
N812   H1301   1.027   .     S
C821   O897    1.287   .     A
C821   O895    1.290   .     A
C821   C850    1.424   .     S
C822   C833    1.412   .     A
C822   C824    1.400   .     A
C822   C839    1.534   .     S
C823   C853    1.463   .     S
C823   C854    1.410   .     A
C823   C825    1.398   .     A
C824   C826    1.397   .     A
C824   C852    1.446   .     S
C825   H857    1.078   .     S
C825   C827    1.404   .     A
C826   H868    1.082   .     S
C826   C828    1.406   .     A
C827   C834    1.424   .     A
C827   C829    1.421   .     A
C828   C835    1.423   .     A
C828   C830    1.421   .     A
C829   C831    1.418   .     A
C829   C912    1.413   .     S
C830   C833    1.418   .     A
C830   C911    1.413   1_455 S
C831   C854    1.420   .     A
C831   C849    1.402   .     A
C832   O898    1.285   .     A
C832   O896    1.293   .     A
C832   C851    1.424   .     S
C833   C843    1.395   .     A
C834   C842    1.527   .     S
C834   C925    1.394   .     S
C835   C846    1.535   .     S
C835   C931    1.404   1_455 S
C836   C854    1.538   .     S
C836   C837    1.547   .     S
C836   H863    1.100   .     S
C836   H862    1.111   .     S
C837   H860    1.108   .     S
C837   C838    1.526   .     S
C837   H861    1.088   .     S
C838   H859    1.110   .     S
C838   H858    1.098   .     S
C838   H564    1.110   1_565 S
C839   C840    1.539   .     S
C839   H870    1.109   .     S
C839   H871    1.105   .     S
C840   H869    1.109   .     S
C840   H867    1.104   .     S
C841   H865    1.111   .     S
C841   H864    1.109   .     S
C841   H866    1.111   .     S
C841   C512    1.528   1_565 S
C842   H877    1.106   .     S
C842   H878    1.111   .     S
C843   H879    1.070   .     S
C843   C916    1.394   1_455 S
C844   C845    1.524   .     S
C844   C514    1.547   1_565 S
C844   H957    1.104   .     S
C844   H958    1.111   .     S
C845   H874    1.111   .     S
C845   H872    1.104   .     S
C846   H886    1.106   .     S
C846   H885    1.110   .     S
C846   C519    1.547   1_565 S
C847   C848    1.527   .     S
C847   H965    1.106   1_455 S
C847   H966    1.108   1_455 S
C848   H881    1.110   .     S
C848   H880    1.109   .     S
C848   H882    1.106   .     S
C849   H887    1.071   .     S
C849   C917    1.404   .     S
C851   C522    1.327   1_565 S
C851   H561    1.088   1_565 S
C852   O901    1.292   .     A
C852   O899    1.296   .     A
C853   O902    1.301   .     A
C853   O900    1.294   .     A
Cu855  N894    2.023   .     S
Cu855  Cu856   2.692   .     S
Cu855  O895    1.947   .     S
Cu855  O902    1.949   .     S
Cu855  O898    1.943   .     S
Cu855  O899    1.976   .     S
Cu856  O897    1.943   .     S
Cu856  O896    1.947   .     S
Cu856  O900    1.976   .     S
Cu856  O901    1.949   .     S
Cu856  N893    2.023   .     S
H873   C1337   1.111   .     S
H875   C926    1.104   1_455 S
H876   C926    1.111   1_455 S
H883   C929    1.106   .     S
H884   C929    1.108   .     S
H888   C522    1.087   1_565 S
H890   N1385   1.029   .     S
N894   N1385   1.322   .     S
N894   H1383   1.027   .     S
C903   O979    1.287   .     A
C903   O977    1.290   .     A
C903   C932    1.424   .     S
C904   C915    1.412   .     A
C904   C906    1.400   .     A
C904   C921    1.534   .     S
C905   C935    1.463   .     S
C905   C936    1.410   .     A
C905   C907    1.398   .     A
C906   C908    1.397   .     A
C906   C934    1.446   .     S
C907   H939    1.078   .     S
C907   C909    1.404   .     A
C908   H950    1.082   .     S
C908   C910    1.406   .     A
C909   C916    1.424   .     A
C909   C911    1.421   .     A
C910   C917    1.423   .     A
C910   C912    1.421   .     A
C911   C913    1.418   .     A
C911   C830    1.413   1_655 S
C912   C915    1.418   .     A
C913   C936    1.420   .     A
C913   C931    1.402   .     A
C914   O980    1.285   .     A
C914   O978    1.293   .     A
C914   C933    1.424   .     S
C915   C925    1.395   .     A
C916   C924    1.527   .     S
C916   C843    1.394   1_655 S
C917   C928    1.535   .     S
C918   C936    1.538   .     S
C918   C919    1.547   .     S
C918   H945    1.100   .     S
C918   H944    1.111   .     S
C919   H942    1.108   .     S
C919   C920    1.526   .     S
C919   H943    1.088   .     S
C920   H941    1.110   .     S
C920   H940    1.098   .     S
C920   H646    1.110   1_565 S
C921   C922    1.539   .     S
C921   H952    1.109   .     S
C921   H953    1.105   .     S
C922   H951    1.109   .     S
C922   H949    1.104   .     S
C923   H947    1.111   .     S
C923   H946    1.109   .     S
C923   H948    1.111   .     S
C923   C594    1.528   1_565 S
C924   H959    1.106   .     S
C924   H960    1.111   .     S
C925   H961    1.070   .     S
C926   C927    1.524   .     S
C926   C596    1.547   1_565 S
C926   H875    1.104   1_655 S
C926   H876    1.111   1_655 S
C927   H956    1.111   .     S
C927   H954    1.104   .     S
C928   H968    1.106   .     S
C928   H967    1.110   .     S
C928   C601    1.547   1_565 S
C929   C930    1.527   .     S
C930   H963    1.110   .     S
C930   H962    1.109   .     S
C930   H964    1.106   .     S
C931   H969    1.071   .     S
C931   C835    1.404   1_655 S
C933   C604    1.327   1_565 S
C933   H643    1.088   1_565 S
C934   O983    1.292   .     A
C934   O981    1.296   .     A
C935   O984    1.301   .     A
C935   O982    1.294   .     A
Cu937  N976    2.023   .     S
Cu937  Cu938   2.692   .     S
Cu937  O977    1.947   .     S
Cu937  O984    1.949   .     S
Cu937  O980    1.943   .     S
Cu937  O981    1.976   .     S
Cu938  O979    1.943   .     S
Cu938  O978    1.947   .     S
Cu938  O982    1.976   .     S
Cu938  O983    1.949   .     S
Cu938  N975    2.023   .     S
H955   C1419   1.111   .     S
H965   C847    1.106   1_655 S
H966   C847    1.108   1_655 S
H970   C604    1.087   1_565 S
H972   N1467   1.029   .     S
N976   N1467   1.322   .     S
N976   H1465   1.027   .     S
C985   O1061   1.287   .     A
C985   O1059   1.290   .     A
C985   C1014   1.424   .     S
C986   C997    1.412   .     A
C986   C988    1.400   .     A
C986   C1003   1.534   .     S
C987   C1017   1.463   .     S
C987   C1018   1.410   .     A
C987   C989    1.398   .     A
C988   C990    1.397   .     A
C988   C1016   1.446   .     S
C989   H1021   1.078   .     S
C989   C991    1.404   .     A
C990   H1032   1.082   .     S
C990   C992    1.406   .     A
C991   C998    1.424   .     A
C991   C993    1.421   .     A
C992   C999    1.423   .     A
C992   C994    1.421   .     A
C993   C995    1.418   .     A
C993   C1076   1.413   .     S
C994   C997    1.418   .     A
C994   C1075   1.413   1_455 S
C995   C1018   1.420   .     A
C995   C1013   1.402   .     A
C996   O1062   1.285   .     A
C996   O1060   1.293   .     A
C996   C1015   1.424   .     S
C997   C1007   1.395   .     A
C998   C1006   1.527   .     S
C998   C1089   1.394   .     S
C999   C1010   1.535   .     S
C999   C1095   1.404   1_455 S
C1000  C1018   1.538   .     S
C1000  C1001   1.547   .     S
C1000  H1027   1.100   .     S
C1000  H1026   1.111   .     S
C1001  H1024   1.108   .     S
C1001  C1002   1.526   .     S
C1001  H1025   1.088   .     S
C1002  H1023   1.110   .     S
C1002  H1022   1.098   .     S
C1002  H1220   1.110   .     S
C1003  C1004   1.539   .     S
C1003  H1034   1.109   .     S
C1003  H1035   1.105   .     S
C1004  H1033   1.109   .     S
C1004  H1031   1.104   .     S
C1004  C1333   1.528   1_545 S
C1005  H1029   1.111   .     S
C1005  H1028   1.109   .     S
C1005  H1030   1.111   .     S
C1005  C1168   1.528   .     S
C1006  H1041   1.106   .     S
C1006  H1042   1.111   .     S
C1006  C1336   1.547   1_545 S
C1007  H1043   1.070   .     S
C1007  C1080   1.394   1_455 S
C1008  C1009   1.524   .     S
C1008  C1170   1.547   .     S
C1008  H1121   1.104   .     S
C1008  H1122   1.111   .     S
C1009  H1038   1.111   .     S
C1009  H1036   1.104   .     S
C1010  H1050   1.106   .     S
C1010  H1049   1.110   .     S
C1010  C1175   1.547   .     S
C1011  C1012   1.527   .     S
C1011  C1338   1.547   1_545 S
C1011  H1129   1.106   1_455 S
C1011  H1130   1.108   1_455 S
C1012  H1045   1.110   .     S
C1012  H1044   1.109   .     S
C1012  H1046   1.106   .     S
C1013  H1051   1.071   .     S
C1013  C1081   1.404   .     S
C1014  C1343   1.327   1_545 S
C1014  H1380   1.087   1_545 S
C1015  C1178   1.327   .     S
C1015  H1217   1.088   .     S
C1016  O1065   1.292   .     A
C1016  O1063   1.296   .     A
C1017  O1066   1.301   .     A
C1017  O1064   1.294   .     A
Cu1019 N1058   2.023   .     S
Cu1019 Cu1020  2.692   .     S
Cu1019 O1059   1.947   .     S
Cu1019 O1066   1.949   .     S
Cu1019 O1062   1.943   .     S
Cu1019 O1063   1.976   .     S
Cu1020 O1061   1.943   .     S
Cu1020 O1060   1.947   .     S
Cu1020 O1064   1.976   .     S
Cu1020 O1065   1.949   .     S
Cu1020 N1057   2.023   .     S
H1037  C25     1.111   1_556 S
H1039  C1090   1.104   1_455 S
H1040  C1090   1.111   1_455 S
H1047  C1093   1.106   .     S
H1048  C1093   1.108   .     S
H1052  C1178   1.087   .     S
H1053  C1343   1.088   1_545 S
H1054  N73     1.029   1_556 S
H1056  C1330   1.110   1_545 S
N1058  N73     1.322   1_556 S
N1058  H71     1.027   1_556 S
C1067  O1143   1.287   .     A
C1067  O1141   1.290   .     A
C1067  C1096   1.424   .     S
C1068  C1079   1.412   .     A
C1068  C1070   1.400   .     A
C1068  C1085   1.534   .     S
C1069  C1099   1.463   .     S
C1069  C1100   1.410   .     A
C1069  C1071   1.398   .     A
C1070  C1072   1.397   .     A
C1070  C1098   1.446   .     S
C1071  H1103   1.078   .     S
C1071  C1073   1.404   .     A
C1072  H1114   1.082   .     S
C1072  C1074   1.406   .     A
C1073  C1080   1.424   .     A
C1073  C1075   1.421   .     A
C1074  C1081   1.423   .     A
C1074  C1076   1.421   .     A
C1075  C1077   1.418   .     A
C1075  C994    1.413   1_655 S
C1076  C1079   1.418   .     A
C1077  C1100   1.420   .     A
C1077  C1095   1.402   .     A
C1078  O1144   1.285   .     A
C1078  O1142   1.293   .     A
C1078  C1097   1.424   .     S
C1079  C1089   1.395   .     A
C1080  C1088   1.527   .     S
C1080  C1007   1.394   1_655 S
C1081  C1092   1.535   .     S
C1082  C1100   1.538   .     S
C1082  C1083   1.547   .     S
C1082  H1109   1.100   .     S
C1082  H1108   1.111   .     S
C1083  H1106   1.108   .     S
C1083  C1084   1.526   .     S
C1083  H1107   1.088   .     S
C1084  H1105   1.110   .     S
C1084  H1104   1.098   .     S
C1084  H1302   1.110   .     S
C1085  C1086   1.539   .     S
C1085  H1116   1.109   .     S
C1085  H1117   1.105   .     S
C1086  H1115   1.109   .     S
C1086  H1113   1.104   .     S
C1086  C1415   1.528   1_545 S
C1087  H1111   1.111   .     S
C1087  H1110   1.109   .     S
C1087  H1112   1.111   .     S
C1087  C1250   1.528   .     S
C1088  H1123   1.106   .     S
C1088  H1124   1.111   .     S
C1088  C1418   1.547   1_545 S
C1089  H1125   1.070   .     S
C1090  C1091   1.524   .     S
C1090  C1252   1.547   .     S
C1090  H1039   1.104   1_655 S
C1090  H1040   1.111   1_655 S
C1091  H1120   1.111   .     S
C1091  H1118   1.104   .     S
C1092  H1132   1.106   .     S
C1092  H1131   1.110   .     S
C1092  C1257   1.547   .     S
C1093  C1094   1.527   .     S
C1093  C1420   1.547   1_545 S
C1094  H1127   1.110   .     S
C1094  H1126   1.109   .     S
C1094  H1128   1.106   .     S
C1095  H1133   1.071   .     S
C1095  C999    1.404   1_655 S
C1096  C1425   1.327   1_545 S
C1096  H1462   1.087   1_545 S
C1097  C1260   1.327   .     S
C1097  H1299   1.088   .     S
C1098  O1147   1.292   .     A
C1098  O1145   1.296   .     A
C1099  O1148   1.301   .     A
C1099  O1146   1.294   .     A
Cu1101 N1140   2.023   .     S
Cu1101 Cu1102  2.692   .     S
Cu1101 O1141   1.947   .     S
Cu1101 O1148   1.949   .     S
Cu1101 O1144   1.943   .     S
Cu1101 O1145   1.976   .     S
Cu1102 O1143   1.943   .     S
Cu1102 O1142   1.947   .     S
Cu1102 O1146   1.976   .     S
Cu1102 O1147   1.949   .     S
Cu1102 N1139   2.023   .     S
H1119  C107    1.111   1_556 S
H1129  C1011   1.106   1_655 S
H1130  C1011   1.108   1_655 S
H1134  C1260   1.087   .     S
H1135  C1425   1.088   1_545 S
H1136  N155    1.029   1_556 S
H1138  C1412   1.110   1_545 S
N1140  N155    1.322   1_556 S
N1140  H153    1.027   1_556 S
C1149  O1225   1.287   .     A
C1149  O1223   1.290   .     A
C1149  C1178   1.424   .     S
C1150  C1161   1.412   .     A
C1150  C1152   1.400   .     A
C1150  C1167   1.534   .     S
C1151  C1181   1.463   .     S
C1151  C1182   1.410   .     A
C1151  C1153   1.398   .     A
C1152  C1154   1.397   .     A
C1152  C1180   1.446   .     S
C1153  H1185   1.078   .     S
C1153  C1155   1.404   .     A
C1154  H1196   1.082   .     S
C1154  C1156   1.406   .     A
C1155  C1162   1.424   .     A
C1155  C1157   1.421   .     A
C1156  C1163   1.423   .     A
C1156  C1158   1.421   .     A
C1157  C1159   1.418   .     A
C1157  C1240   1.413   .     S
C1158  C1161   1.418   .     A
C1158  C1239   1.413   1_455 S
C1159  C1182   1.420   .     A
C1159  C1177   1.402   .     A
C1160  O1226   1.285   .     A
C1160  O1224   1.293   .     A
C1160  C1179   1.424   .     S
C1161  C1171   1.395   .     A
C1162  C1170   1.527   .     S
C1162  C1253   1.394   .     S
C1163  C1174   1.535   .     S
C1163  C1259   1.404   1_455 S
C1164  C1182   1.538   .     S
C1164  C1165   1.547   .     S
C1164  H1191   1.100   .     S
C1164  H1190   1.111   .     S
C1165  H1188   1.108   .     S
C1165  C1166   1.526   .     S
C1165  H1189   1.088   .     S
C1166  H1187   1.110   .     S
C1166  H1186   1.098   .     S
C1166  H1384   1.110   .     S
C1167  C1168   1.539   .     S
C1167  H1198   1.109   .     S
C1167  H1199   1.105   .     S
C1168  H1197   1.109   .     S
C1168  H1195   1.104   .     S
C1169  H1193   1.111   .     S
C1169  H1192   1.109   .     S
C1169  H1194   1.111   .     S
C1169  C1332   1.528   .     S
C1170  H1205   1.106   .     S
C1170  H1206   1.111   .     S
C1171  H1207   1.070   .     S
C1171  C1244   1.394   1_455 S
C1172  C1173   1.524   .     S
C1172  C1334   1.547   .     S
C1172  H1285   1.104   .     S
C1172  H1286   1.111   .     S
C1173  H1202   1.111   .     S
C1173  H1200   1.104   .     S
C1174  H1214   1.106   .     S
C1174  H1213   1.110   .     S
C1174  C1339   1.547   .     S
C1175  C1176   1.527   .     S
C1175  H1293   1.106   1_455 S
C1175  H1294   1.108   1_455 S
C1176  H1209   1.110   .     S
C1176  H1208   1.109   .     S
C1176  H1210   1.106   .     S
C1177  H1215   1.071   .     S
C1177  C1245   1.404   .     S
C1179  C1342   1.327   .     S
C1179  H1381   1.088   .     S
C1180  O1229   1.292   .     A
C1180  O1227   1.296   .     A
C1181  O1230   1.301   .     A
C1181  O1228   1.294   .     A
Cu1183 N1222   2.023   .     S
Cu1183 Cu1184  2.692   .     S
Cu1183 O1223   1.947   .     S
Cu1183 O1230   1.949   .     S
Cu1183 O1226   1.943   .     S
Cu1183 O1227   1.976   .     S
Cu1184 O1225   1.943   .     S
Cu1184 O1224   1.947   .     S
Cu1184 O1228   1.976   .     S
Cu1184 O1229   1.949   .     S
Cu1184 N1221   2.023   .     S
H1201  C189    1.111   1_556 S
H1203  C1254   1.104   1_455 S
H1204  C1254   1.111   1_455 S
H1211  C1257   1.106   .     S
H1212  C1257   1.108   .     S
H1216  C1342   1.087   .     S
H1218  N237    1.029   1_556 S
N1222  N237    1.322   1_556 S
N1222  H235    1.027   1_556 S
C1231  O1307   1.287   .     A
C1231  O1305   1.290   .     A
C1231  C1260   1.424   .     S
C1232  C1243   1.412   .     A
C1232  C1234   1.400   .     A
C1232  C1249   1.534   .     S
C1233  C1263   1.463   .     S
C1233  C1264   1.410   .     A
C1233  C1235   1.398   .     A
C1234  C1236   1.397   .     A
C1234  C1262   1.446   .     S
C1235  H1267   1.078   .     S
C1235  C1237   1.404   .     A
C1236  H1278   1.082   .     S
C1236  C1238   1.406   .     A
C1237  C1244   1.424   .     A
C1237  C1239   1.421   .     A
C1238  C1245   1.423   .     A
C1238  C1240   1.421   .     A
C1239  C1241   1.418   .     A
C1239  C1158   1.413   1_655 S
C1240  C1243   1.418   .     A
C1241  C1264   1.420   .     A
C1241  C1259   1.402   .     A
C1242  O1308   1.285   .     A
C1242  O1306   1.293   .     A
C1242  C1261   1.424   .     S
C1243  C1253   1.395   .     A
C1244  C1252   1.527   .     S
C1244  C1171   1.394   1_655 S
C1245  C1256   1.535   .     S
C1246  C1264   1.538   .     S
C1246  C1247   1.547   .     S
C1246  H1273   1.100   .     S
C1246  H1272   1.111   .     S
C1247  H1270   1.108   .     S
C1247  C1248   1.526   .     S
C1247  H1271   1.088   .     S
C1248  H1269   1.110   .     S
C1248  H1268   1.098   .     S
C1248  H1466   1.110   .     S
C1249  C1250   1.539   .     S
C1249  H1280   1.109   .     S
C1249  H1281   1.105   .     S
C1250  H1279   1.109   .     S
C1250  H1277   1.104   .     S
C1251  H1275   1.111   .     S
C1251  H1274   1.109   .     S
C1251  H1276   1.111   .     S
C1251  C1414   1.528   .     S
C1252  H1287   1.106   .     S
C1252  H1288   1.111   .     S
C1253  H1289   1.070   .     S
C1254  C1255   1.524   .     S
C1254  C1416   1.547   .     S
C1254  H1203   1.104   1_655 S
C1254  H1204   1.111   1_655 S
C1255  H1284   1.111   .     S
C1255  H1282   1.104   .     S
C1256  H1296   1.106   .     S
C1256  H1295   1.110   .     S
C1256  C1421   1.547   .     S
C1257  C1258   1.527   .     S
C1258  H1291   1.110   .     S
C1258  H1290   1.109   .     S
C1258  H1292   1.106   .     S
C1259  H1297   1.071   .     S
C1259  C1163   1.404   1_655 S
C1261  C1424   1.327   .     S
C1261  H1463   1.088   .     S
C1262  O1311   1.292   .     A
C1262  O1309   1.296   .     A
C1263  O1312   1.301   .     A
C1263  O1310   1.294   .     A
Cu1265 N1304   2.023   .     S
Cu1265 Cu1266  2.692   .     S
Cu1265 O1305   1.947   .     S
Cu1265 O1312   1.949   .     S
Cu1265 O1308   1.943   .     S
Cu1265 O1309   1.976   .     S
Cu1266 O1307   1.943   .     S
Cu1266 O1306   1.947   .     S
Cu1266 O1310   1.976   .     S
Cu1266 O1311   1.949   .     S
Cu1266 N1303   2.023   .     S
H1283  C271    1.111   1_556 S
H1293  C1175   1.106   1_655 S
H1294  C1175   1.108   1_655 S
H1298  C1424   1.087   .     S
H1300  N319    1.029   1_556 S
N1304  N319    1.322   1_556 S
N1304  H317    1.027   1_556 S
C1313  O1389   1.287   .     A
C1313  O1387   1.290   .     A
C1313  C1342   1.424   .     S
C1314  C1325   1.412   .     A
C1314  C1316   1.400   .     A
C1314  C1331   1.534   .     S
C1315  C1345   1.463   .     S
C1315  C1346   1.410   .     A
C1315  C1317   1.398   .     A
C1316  C1318   1.397   .     A
C1316  C1344   1.446   .     S
C1317  H1349   1.078   .     S
C1317  C1319   1.404   .     A
C1318  H1360   1.082   .     S
C1318  C1320   1.406   .     A
C1319  C1326   1.424   .     A
C1319  C1321   1.421   .     A
C1320  C1327   1.423   .     A
C1320  C1322   1.421   .     A
C1321  C1323   1.418   .     A
C1321  C1404   1.413   .     S
C1322  C1325   1.418   .     A
C1322  C1403   1.413   1_455 S
C1323  C1346   1.420   .     A
C1323  C1341   1.402   .     A
C1324  O1390   1.285   .     A
C1324  O1388   1.293   .     A
C1324  C1343   1.424   .     S
C1325  C1335   1.395   .     A
C1326  C1334   1.527   .     S
C1326  C1417   1.394   .     S
C1327  C1338   1.535   .     S
C1327  C1423   1.404   1_455 S
C1328  C1346   1.538   .     S
C1328  C1329   1.547   .     S
C1328  H1355   1.100   .     S
C1328  H1354   1.111   .     S
C1329  H1352   1.108   .     S
C1329  C1330   1.526   .     S
C1329  H1353   1.088   .     S
C1330  H1351   1.110   .     S
C1330  H1350   1.098   .     S
C1330  H1056   1.110   1_565 S
C1331  C1332   1.539   .     S
C1331  H1362   1.109   .     S
C1331  H1363   1.105   .     S
C1332  H1361   1.109   .     S
C1332  H1359   1.104   .     S
C1333  H1357   1.111   .     S
C1333  H1356   1.109   .     S
C1333  H1358   1.111   .     S
C1333  C1004   1.528   1_565 S
C1334  H1369   1.106   .     S
C1334  H1370   1.111   .     S
C1335  H1371   1.070   .     S
C1335  C1408   1.394   1_455 S
C1336  C1337   1.524   .     S
C1336  C1006   1.547   1_565 S
C1336  H1449   1.104   .     S
C1336  H1450   1.111   .     S
C1337  H1366   1.111   .     S
C1337  H1364   1.104   .     S
C1338  H1378   1.106   .     S
C1338  H1377   1.110   .     S
C1338  C1011   1.547   1_565 S
C1339  C1340   1.527   .     S
C1339  H1457   1.106   1_455 S
C1339  H1458   1.108   1_455 S
C1340  H1373   1.110   .     S
C1340  H1372   1.109   .     S
C1340  H1374   1.106   .     S
C1341  H1379   1.071   .     S
C1341  C1409   1.404   .     S
C1343  C1014   1.327   1_565 S
C1343  H1053   1.088   1_565 S
C1344  O1393   1.292   .     A
C1344  O1391   1.296   .     A
C1345  O1394   1.301   .     A
C1345  O1392   1.294   .     A
Cu1347 N1386   2.023   .     S
Cu1347 Cu1348  2.692   .     S
Cu1347 O1387   1.947   .     S
Cu1347 O1394   1.949   .     S
Cu1347 O1390   1.943   .     S
Cu1347 O1391   1.976   .     S
Cu1348 O1389   1.943   .     S
Cu1348 O1388   1.947   .     S
Cu1348 O1392   1.976   .     S
Cu1348 O1393   1.949   .     S
Cu1348 N1385   2.023   .     S
H1365  C353    1.111   1_556 S
H1367  C1418   1.104   1_455 S
H1368  C1418   1.111   1_455 S
H1375  C1421   1.106   .     S
H1376  C1421   1.108   .     S
H1380  C1014   1.087   1_565 S
H1382  N401    1.029   1_556 S
N1386  N401    1.322   1_556 S
N1386  H399    1.027   1_556 S
C1395  O1471   1.287   .     A
C1395  O1469   1.290   .     A
C1395  C1424   1.424   .     S
C1396  C1407   1.412   .     A
C1396  C1398   1.400   .     A
C1396  C1413   1.534   .     S
C1397  C1427   1.463   .     S
C1397  C1428   1.410   .     A
C1397  C1399   1.398   .     A
C1398  C1400   1.397   .     A
C1398  C1426   1.446   .     S
C1399  H1431   1.078   .     S
C1399  C1401   1.404   .     A
C1400  H1442   1.082   .     S
C1400  C1402   1.406   .     A
C1401  C1408   1.424   .     A
C1401  C1403   1.421   .     A
C1402  C1409   1.423   .     A
C1402  C1404   1.421   .     A
C1403  C1405   1.418   .     A
C1403  C1322   1.413   1_655 S
C1404  C1407   1.418   .     A
C1405  C1428   1.420   .     A
C1405  C1423   1.402   .     A
C1406  O1472   1.285   .     A
C1406  O1470   1.293   .     A
C1406  C1425   1.424   .     S
C1407  C1417   1.395   .     A
C1408  C1416   1.527   .     S
C1408  C1335   1.394   1_655 S
C1409  C1420   1.535   .     S
C1410  C1428   1.538   .     S
C1410  C1411   1.547   .     S
C1410  H1437   1.100   .     S
C1410  H1436   1.111   .     S
C1411  H1434   1.108   .     S
C1411  C1412   1.526   .     S
C1411  H1435   1.088   .     S
C1412  H1433   1.110   .     S
C1412  H1432   1.098   .     S
C1412  H1138   1.110   1_565 S
C1413  C1414   1.539   .     S
C1413  H1444   1.109   .     S
C1413  H1445   1.105   .     S
C1414  H1443   1.109   .     S
C1414  H1441   1.104   .     S
C1415  H1439   1.111   .     S
C1415  H1438   1.109   .     S
C1415  H1440   1.111   .     S
C1415  C1086   1.528   1_565 S
C1416  H1451   1.106   .     S
C1416  H1452   1.111   .     S
C1417  H1453   1.070   .     S
C1418  C1419   1.524   .     S
C1418  C1088   1.547   1_565 S
C1418  H1367   1.104   1_655 S
C1418  H1368   1.111   1_655 S
C1419  H1448   1.111   .     S
C1419  H1446   1.104   .     S
C1420  H1460   1.106   .     S
C1420  H1459   1.110   .     S
C1420  C1093   1.547   1_565 S
C1421  C1422   1.527   .     S
C1422  H1455   1.110   .     S
C1422  H1454   1.109   .     S
C1422  H1456   1.106   .     S
C1423  H1461   1.071   .     S
C1423  C1327   1.404   1_655 S
C1425  C1096   1.327   1_565 S
C1425  H1135   1.088   1_565 S
C1426  O1475   1.292   .     A
C1426  O1473   1.296   .     A
C1427  O1476   1.301   .     A
C1427  O1474   1.294   .     A
Cu1429 N1468   2.023   .     S
Cu1429 Cu1430  2.692   .     S
Cu1429 O1469   1.947   .     S
Cu1429 O1476   1.949   .     S
Cu1429 O1472   1.943   .     S
Cu1429 O1473   1.976   .     S
Cu1430 O1471   1.943   .     S
Cu1430 O1470   1.947   .     S
Cu1430 O1474   1.976   .     S
Cu1430 O1475   1.949   .     S
Cu1430 N1467   2.023   .     S
H1447  C435    1.111   1_556 S
H1457  C1339   1.106   1_655 S
H1458  C1339   1.108   1_655 S
H1462  C1096   1.087   1_565 S
H1464  N483    1.029   1_556 S
N1468  N483    1.322   1_556 S
N1468  H481    1.027   1_556 S
