data_str_m3_o1_o10_pcu_sym.99
_audit_creation_date              2020-01-03
_audit_creation_method            'Materials Studio'
_symmetry_space_group_name_H-M    'P1'
_symmetry_Int_Tables_number       1
_symmetry_cell_setting            triclinic
loop_
_symmetry_equiv_pos_as_xyz
  x,y,z
_cell_length_a                    25.9444
_cell_length_b                    32.0826
_cell_length_c                    29.5534
_cell_angle_alpha                 89.8452
_cell_angle_beta                  98.5065
_cell_angle_gamma                 90.2533
loop_
_atom_site_label
_atom_site_type_symbol
_atom_site_fract_x
_atom_site_fract_y
_atom_site_fract_z
_atom_site_U_iso_or_equiv
_atom_site_adp_type
_atom_site_occupancy
C1     C     0.16709   0.08667   0.16679   0.00000  Uiso   1.00
C2     C     0.16625   0.24666   0.16654   0.00000  Uiso   1.00
C3     C     0.06720   0.16663   0.15483   0.00000  Uiso   1.00
C4     C     0.26614   0.16670   0.17851   0.00000  Uiso   1.00
C5     C     0.01253   0.16607   0.14836   0.00000  Uiso   1.00
C6     C     0.32081   0.16726   0.18497   0.00000  Uiso   1.00
C7     C     0.14384   0.02173   0.12774   0.00000  Uiso   1.00
C8     C     0.18949   0.31161   0.20559   0.00000  Uiso   1.00
C9     C     0.14315   0.31232   0.12737   0.00000  Uiso   1.00
C10    C     0.19018   0.02101   0.20596   0.00000  Uiso   1.00
C11    C     0.16613   0.29079   0.16639   0.00000  Uiso   1.00
C12    C     0.16721   0.04254   0.16695   0.00000  Uiso   1.00
C13    C     0.19864   0.19301   0.02803   0.00000  Uiso   1.00
C14    C     0.13469   0.14033   0.30530   0.00000  Uiso   1.00
C15    C     0.19866   0.19297   0.31342   0.00000  Uiso   1.00
C16    C     0.13468   0.14036   0.01991   0.00000  Uiso   1.00
H17    H     0.12551   0.03850   0.09778   0.00000  Uiso   1.00
H18    H     0.20783   0.29483   0.23556   0.00000  Uiso   1.00
N19    N     0.16665   0.16666   0.28573   0.00000  Uiso   1.00
N20    N     0.16668   0.16668   0.04760   0.00000  Uiso   1.00
O21    O     0.16666   0.10558   0.20487   0.00000  Uiso   1.00
O22    O     0.16667   0.22775   0.12846   0.00000  Uiso   1.00
O23    O     0.16666   0.10559   0.12843   0.00000  Uiso   1.00
O24    O     0.16667   0.22774   0.20490   0.00000  Uiso   1.00
O25    O     0.09058   0.16666   0.19595   0.00000  Uiso   1.00
O26    O     0.24275   0.16667   0.13739   0.00000  Uiso   1.00
O27    O     0.09058   0.16667   0.11950   0.00000  Uiso   1.00
O28    O     0.24275   0.16666   0.21383   0.00000  Uiso   1.00
Zn29   Zn    0.16667   0.16666   0.21771   0.00000  Uiso   1.00
Zn30   Zn    0.16667   0.16667   0.11563   0.00000  Uiso   1.00
F31    F     0.32132   0.16387   0.10427   0.00000  Uiso   1.00
F32    F     0.01201   0.16946   0.22907   0.00000  Uiso   1.00
F33    F     0.11912   0.29222   0.08958   0.00000  Uiso   1.00
F34    F     0.21422   0.04111   0.24375   0.00000  Uiso   1.00
F35    F     0.23063   0.21947   0.05475   0.00000  Uiso   1.00
F36    F     0.10271   0.11386   0.27858   0.00000  Uiso   1.00
F37    F     0.23079   0.21929   0.29483   0.00000  Uiso   1.00
F38    F     0.10254   0.11405   0.03850   0.00000  Uiso   1.00
C39    C     0.50042   0.08667   0.16679   0.00000  Uiso   1.00
C40    C     0.49958   0.24666   0.16654   0.00000  Uiso   1.00
C41    C     0.40053   0.16663   0.15483   0.00000  Uiso   1.00
C42    C     0.59947   0.16670   0.17851   0.00000  Uiso   1.00
C43    C     0.34586   0.16607   0.14836   0.00000  Uiso   1.00
C44    C     0.65414   0.16726   0.18497   0.00000  Uiso   1.00
C45    C     0.47717   0.02173   0.12774   0.00000  Uiso   1.00
C46    C     0.52283   0.31161   0.20559   0.00000  Uiso   1.00
C47    C     0.47649   0.31232   0.12737   0.00000  Uiso   1.00
C48    C     0.52351   0.02101   0.20596   0.00000  Uiso   1.00
C49    C     0.49946   0.29079   0.16639   0.00000  Uiso   1.00
C50    C     0.50054   0.04254   0.16695   0.00000  Uiso   1.00
C51    C     0.53197   0.19301   0.02803   0.00000  Uiso   1.00
C52    C     0.46803   0.14033   0.30530   0.00000  Uiso   1.00
C53    C     0.53199   0.19297   0.31342   0.00000  Uiso   1.00
C54    C     0.46801   0.14036   0.01991   0.00000  Uiso   1.00
H55    H     0.45884   0.03850   0.09778   0.00000  Uiso   1.00
H56    H     0.54116   0.29483   0.23556   0.00000  Uiso   1.00
N57    N     0.49999   0.16666   0.28573   0.00000  Uiso   1.00
N58    N     0.50001   0.16668   0.04760   0.00000  Uiso   1.00
O59    O     0.50000   0.10558   0.20487   0.00000  Uiso   1.00
O60    O     0.50000   0.22775   0.12846   0.00000  Uiso   1.00
O61    O     0.50000   0.10559   0.12843   0.00000  Uiso   1.00
O62    O     0.50000   0.22774   0.20490   0.00000  Uiso   1.00
O63    O     0.42392   0.16666   0.19595   0.00000  Uiso   1.00
O64    O     0.57608   0.16667   0.13739   0.00000  Uiso   1.00
O65    O     0.42392   0.16667   0.11950   0.00000  Uiso   1.00
O66    O     0.57608   0.16666   0.21383   0.00000  Uiso   1.00
Zn67   Zn    0.50000   0.16666   0.21771   0.00000  Uiso   1.00
Zn68   Zn    0.50000   0.16667   0.11563   0.00000  Uiso   1.00
F69    F     0.65466   0.16387   0.10427   0.00000  Uiso   1.00
F70    F     0.34535   0.16946   0.22907   0.00000  Uiso   1.00
F71    F     0.45245   0.29222   0.08958   0.00000  Uiso   1.00
F72    F     0.54755   0.04111   0.24375   0.00000  Uiso   1.00
F73    F     0.56396   0.21947   0.05475   0.00000  Uiso   1.00
F74    F     0.43604   0.11386   0.27858   0.00000  Uiso   1.00
F75    F     0.56413   0.21929   0.29483   0.00000  Uiso   1.00
F76    F     0.43587   0.11405   0.03850   0.00000  Uiso   1.00
C77    C     0.83375   0.08667   0.16679   0.00000  Uiso   1.00
C78    C     0.83291   0.24666   0.16654   0.00000  Uiso   1.00
C79    C     0.73386   0.16663   0.15483   0.00000  Uiso   1.00
C80    C     0.93280   0.16670   0.17851   0.00000  Uiso   1.00
C81    C     0.67919   0.16607   0.14836   0.00000  Uiso   1.00
C82    C     0.98747   0.16726   0.18497   0.00000  Uiso   1.00
C83    C     0.81051   0.02173   0.12774   0.00000  Uiso   1.00
C84    C     0.85616   0.31161   0.20559   0.00000  Uiso   1.00
C85    C     0.80982   0.31232   0.12737   0.00000  Uiso   1.00
C86    C     0.85685   0.02101   0.20596   0.00000  Uiso   1.00
C87    C     0.83279   0.29079   0.16639   0.00000  Uiso   1.00
C88    C     0.83387   0.04254   0.16695   0.00000  Uiso   1.00
C89    C     0.86531   0.19301   0.02803   0.00000  Uiso   1.00
C90    C     0.80136   0.14033   0.30530   0.00000  Uiso   1.00
C91    C     0.86532   0.19297   0.31342   0.00000  Uiso   1.00
C92    C     0.80134   0.14036   0.01991   0.00000  Uiso   1.00
H93    H     0.79217   0.03850   0.09778   0.00000  Uiso   1.00
H94    H     0.87450   0.29483   0.23556   0.00000  Uiso   1.00
N95    N     0.83332   0.16666   0.28573   0.00000  Uiso   1.00
N96    N     0.83335   0.16668   0.04760   0.00000  Uiso   1.00
O97    O     0.83333   0.10558   0.20487   0.00000  Uiso   1.00
O98    O     0.83334   0.22775   0.12846   0.00000  Uiso   1.00
O99    O     0.83333   0.10559   0.12843   0.00000  Uiso   1.00
O100   O     0.83334   0.22774   0.20490   0.00000  Uiso   1.00
O101   O     0.75725   0.16666   0.19595   0.00000  Uiso   1.00
O102   O     0.90942   0.16667   0.13739   0.00000  Uiso   1.00
O103   O     0.75725   0.16667   0.11950   0.00000  Uiso   1.00
O104   O     0.90942   0.16666   0.21383   0.00000  Uiso   1.00
Zn105  Zn    0.83333   0.16666   0.21771   0.00000  Uiso   1.00
Zn106  Zn    0.83333   0.16667   0.11563   0.00000  Uiso   1.00
F107   F     0.98799   0.16387   0.10427   0.00000  Uiso   1.00
F108   F     0.67868   0.16946   0.22907   0.00000  Uiso   1.00
F109   F     0.78578   0.29222   0.08958   0.00000  Uiso   1.00
F110   F     0.88088   0.04111   0.24375   0.00000  Uiso   1.00
F111   F     0.89729   0.21947   0.05475   0.00000  Uiso   1.00
F112   F     0.76937   0.11386   0.27858   0.00000  Uiso   1.00
F113   F     0.89746   0.21929   0.29483   0.00000  Uiso   1.00
F114   F     0.76921   0.11405   0.03850   0.00000  Uiso   1.00
C115   C     0.16709   0.42001   0.16679   0.00000  Uiso   1.00
C116   C     0.16625   0.57999   0.16654   0.00000  Uiso   1.00
C117   C     0.06720   0.49996   0.15483   0.00000  Uiso   1.00
C118   C     0.26614   0.50004   0.17851   0.00000  Uiso   1.00
C119   C     0.01253   0.49940   0.14836   0.00000  Uiso   1.00
C120   C     0.32081   0.50060   0.18497   0.00000  Uiso   1.00
C121   C     0.14384   0.35506   0.12774   0.00000  Uiso   1.00
C122   C     0.18949   0.64494   0.20559   0.00000  Uiso   1.00
C123   C     0.14315   0.64566   0.12737   0.00000  Uiso   1.00
C124   C     0.19018   0.35434   0.20596   0.00000  Uiso   1.00
C125   C     0.16613   0.62412   0.16639   0.00000  Uiso   1.00
C126   C     0.16721   0.37588   0.16695   0.00000  Uiso   1.00
C127   C     0.19864   0.52634   0.02803   0.00000  Uiso   1.00
C128   C     0.13469   0.47366   0.30530   0.00000  Uiso   1.00
C129   C     0.19866   0.52630   0.31342   0.00000  Uiso   1.00
C130   C     0.13468   0.47370   0.01991   0.00000  Uiso   1.00
H131   H     0.12551   0.37183   0.09778   0.00000  Uiso   1.00
H132   H     0.20783   0.62817   0.23556   0.00000  Uiso   1.00
N133   N     0.16665   0.49999   0.28573   0.00000  Uiso   1.00
N134   N     0.16668   0.50001   0.04760   0.00000  Uiso   1.00
O135   O     0.16666   0.43892   0.20487   0.00000  Uiso   1.00
O136   O     0.16667   0.56108   0.12846   0.00000  Uiso   1.00
O137   O     0.16666   0.43893   0.12843   0.00000  Uiso   1.00
O138   O     0.16667   0.56107   0.20490   0.00000  Uiso   1.00
O139   O     0.09058   0.50000   0.19595   0.00000  Uiso   1.00
O140   O     0.24275   0.50000   0.13739   0.00000  Uiso   1.00
O141   O     0.09058   0.50000   0.11950   0.00000  Uiso   1.00
O142   O     0.24275   0.50000   0.21383   0.00000  Uiso   1.00
Zn143  Zn    0.16667   0.49999   0.21771   0.00000  Uiso   1.00
Zn144  Zn    0.16667   0.50001   0.11563   0.00000  Uiso   1.00
F145   F     0.32132   0.49721   0.10427   0.00000  Uiso   1.00
F146   F     0.01201   0.50279   0.22907   0.00000  Uiso   1.00
F147   F     0.11912   0.62556   0.08958   0.00000  Uiso   1.00
F148   F     0.21422   0.37444   0.24375   0.00000  Uiso   1.00
F149   F     0.23063   0.55280   0.05475   0.00000  Uiso   1.00
F150   F     0.10271   0.44720   0.27858   0.00000  Uiso   1.00
F151   F     0.23079   0.55262   0.29483   0.00000  Uiso   1.00
F152   F     0.10254   0.44738   0.03850   0.00000  Uiso   1.00
C153   C     0.50042   0.42001   0.16679   0.00000  Uiso   1.00
C154   C     0.49958   0.57999   0.16654   0.00000  Uiso   1.00
C155   C     0.40053   0.49996   0.15483   0.00000  Uiso   1.00
C156   C     0.59947   0.50004   0.17851   0.00000  Uiso   1.00
C157   C     0.34586   0.49940   0.14836   0.00000  Uiso   1.00
C158   C     0.65414   0.50060   0.18497   0.00000  Uiso   1.00
C159   C     0.47717   0.35506   0.12774   0.00000  Uiso   1.00
C160   C     0.52283   0.64494   0.20559   0.00000  Uiso   1.00
C161   C     0.47649   0.64566   0.12737   0.00000  Uiso   1.00
C162   C     0.52351   0.35434   0.20596   0.00000  Uiso   1.00
C163   C     0.49946   0.62412   0.16639   0.00000  Uiso   1.00
C164   C     0.50054   0.37588   0.16695   0.00000  Uiso   1.00
C165   C     0.53197   0.52634   0.02803   0.00000  Uiso   1.00
C166   C     0.46803   0.47366   0.30530   0.00000  Uiso   1.00
C167   C     0.53199   0.52630   0.31342   0.00000  Uiso   1.00
C168   C     0.46801   0.47370   0.01991   0.00000  Uiso   1.00
H169   H     0.45884   0.37183   0.09778   0.00000  Uiso   1.00
H170   H     0.54116   0.62817   0.23556   0.00000  Uiso   1.00
N171   N     0.49999   0.49999   0.28573   0.00000  Uiso   1.00
N172   N     0.50001   0.50001   0.04760   0.00000  Uiso   1.00
O173   O     0.50000   0.43892   0.20487   0.00000  Uiso   1.00
O174   O     0.50000   0.56108   0.12846   0.00000  Uiso   1.00
O175   O     0.50000   0.43893   0.12843   0.00000  Uiso   1.00
O176   O     0.50000   0.56107   0.20490   0.00000  Uiso   1.00
O177   O     0.42392   0.50000   0.19595   0.00000  Uiso   1.00
O178   O     0.57608   0.50000   0.13739   0.00000  Uiso   1.00
O179   O     0.42392   0.50000   0.11950   0.00000  Uiso   1.00
O180   O     0.57608   0.50000   0.21383   0.00000  Uiso   1.00
Zn181  Zn    0.50000   0.49999   0.21771   0.00000  Uiso   1.00
Zn182  Zn    0.50000   0.50001   0.11563   0.00000  Uiso   1.00
F183   F     0.65466   0.49721   0.10427   0.00000  Uiso   1.00
F184   F     0.34535   0.50279   0.22907   0.00000  Uiso   1.00
F185   F     0.45245   0.62556   0.08958   0.00000  Uiso   1.00
F186   F     0.54755   0.37444   0.24375   0.00000  Uiso   1.00
F187   F     0.56396   0.55280   0.05475   0.00000  Uiso   1.00
F188   F     0.43604   0.44720   0.27858   0.00000  Uiso   1.00
F189   F     0.56413   0.55262   0.29483   0.00000  Uiso   1.00
F190   F     0.43587   0.44738   0.03850   0.00000  Uiso   1.00
C191   C     0.83375   0.42001   0.16679   0.00000  Uiso   1.00
C192   C     0.83291   0.57999   0.16654   0.00000  Uiso   1.00
C193   C     0.73386   0.49996   0.15483   0.00000  Uiso   1.00
C194   C     0.93280   0.50004   0.17851   0.00000  Uiso   1.00
C195   C     0.67919   0.49940   0.14836   0.00000  Uiso   1.00
C196   C     0.98747   0.50060   0.18497   0.00000  Uiso   1.00
C197   C     0.81051   0.35506   0.12774   0.00000  Uiso   1.00
C198   C     0.85616   0.64494   0.20559   0.00000  Uiso   1.00
C199   C     0.80982   0.64566   0.12737   0.00000  Uiso   1.00
C200   C     0.85685   0.35434   0.20596   0.00000  Uiso   1.00
C201   C     0.83279   0.62412   0.16639   0.00000  Uiso   1.00
C202   C     0.83387   0.37588   0.16695   0.00000  Uiso   1.00
C203   C     0.86531   0.52634   0.02803   0.00000  Uiso   1.00
C204   C     0.80136   0.47366   0.30530   0.00000  Uiso   1.00
C205   C     0.86532   0.52630   0.31342   0.00000  Uiso   1.00
C206   C     0.80134   0.47370   0.01991   0.00000  Uiso   1.00
H207   H     0.79217   0.37183   0.09778   0.00000  Uiso   1.00
H208   H     0.87450   0.62817   0.23556   0.00000  Uiso   1.00
N209   N     0.83332   0.49999   0.28573   0.00000  Uiso   1.00
N210   N     0.83335   0.50001   0.04760   0.00000  Uiso   1.00
O211   O     0.83333   0.43892   0.20487   0.00000  Uiso   1.00
O212   O     0.83334   0.56108   0.12846   0.00000  Uiso   1.00
O213   O     0.83333   0.43893   0.12843   0.00000  Uiso   1.00
O214   O     0.83334   0.56107   0.20490   0.00000  Uiso   1.00
O215   O     0.75725   0.50000   0.19595   0.00000  Uiso   1.00
O216   O     0.90942   0.50000   0.13739   0.00000  Uiso   1.00
O217   O     0.75725   0.50000   0.11950   0.00000  Uiso   1.00
O218   O     0.90942   0.50000   0.21383   0.00000  Uiso   1.00
Zn219  Zn    0.83333   0.49999   0.21771   0.00000  Uiso   1.00
Zn220  Zn    0.83333   0.50001   0.11563   0.00000  Uiso   1.00
F221   F     0.98799   0.49721   0.10427   0.00000  Uiso   1.00
F222   F     0.67868   0.50279   0.22907   0.00000  Uiso   1.00
F223   F     0.78578   0.62556   0.08958   0.00000  Uiso   1.00
F224   F     0.88088   0.37444   0.24375   0.00000  Uiso   1.00
F225   F     0.89729   0.55280   0.05475   0.00000  Uiso   1.00
F226   F     0.76937   0.44720   0.27858   0.00000  Uiso   1.00
F227   F     0.89746   0.55262   0.29483   0.00000  Uiso   1.00
F228   F     0.76921   0.44738   0.03850   0.00000  Uiso   1.00
C229   C     0.16709   0.75334   0.16679   0.00000  Uiso   1.00
C230   C     0.16625   0.91333   0.16654   0.00000  Uiso   1.00
C231   C     0.06720   0.83330   0.15483   0.00000  Uiso   1.00
C232   C     0.26614   0.83337   0.17851   0.00000  Uiso   1.00
C233   C     0.01253   0.83274   0.14836   0.00000  Uiso   1.00
C234   C     0.32081   0.83393   0.18497   0.00000  Uiso   1.00
C235   C     0.14384   0.68839   0.12774   0.00000  Uiso   1.00
C236   C     0.18949   0.97828   0.20559   0.00000  Uiso   1.00
C237   C     0.14315   0.97899   0.12737   0.00000  Uiso   1.00
C238   C     0.19018   0.68768   0.20596   0.00000  Uiso   1.00
C239   C     0.16613   0.95746   0.16639   0.00000  Uiso   1.00
C240   C     0.16721   0.70921   0.16695   0.00000  Uiso   1.00
C241   C     0.19864   0.85967   0.02803   0.00000  Uiso   1.00
C242   C     0.13469   0.80699   0.30530   0.00000  Uiso   1.00
C243   C     0.19866   0.85964   0.31342   0.00000  Uiso   1.00
C244   C     0.13468   0.80703   0.01991   0.00000  Uiso   1.00
H245   H     0.12551   0.70517   0.09778   0.00000  Uiso   1.00
H246   H     0.20783   0.96150   0.23556   0.00000  Uiso   1.00
N247   N     0.16665   0.83332   0.28573   0.00000  Uiso   1.00
N248   N     0.16668   0.83334   0.04760   0.00000  Uiso   1.00
O249   O     0.16666   0.77225   0.20487   0.00000  Uiso   1.00
O250   O     0.16667   0.89442   0.12846   0.00000  Uiso   1.00
O251   O     0.16666   0.77226   0.12843   0.00000  Uiso   1.00
O252   O     0.16667   0.89441   0.20490   0.00000  Uiso   1.00
O253   O     0.09058   0.83333   0.19595   0.00000  Uiso   1.00
O254   O     0.24275   0.83334   0.13739   0.00000  Uiso   1.00
O255   O     0.09058   0.83334   0.11950   0.00000  Uiso   1.00
O256   O     0.24275   0.83333   0.21383   0.00000  Uiso   1.00
Zn257  Zn    0.16667   0.83333   0.21771   0.00000  Uiso   1.00
Zn258  Zn    0.16667   0.83334   0.11563   0.00000  Uiso   1.00
F259   F     0.32132   0.83054   0.10427   0.00000  Uiso   1.00
F260   F     0.01201   0.83613   0.22907   0.00000  Uiso   1.00
F261   F     0.11912   0.95889   0.08958   0.00000  Uiso   1.00
F262   F     0.21422   0.70778   0.24375   0.00000  Uiso   1.00
F263   F     0.23063   0.88614   0.05475   0.00000  Uiso   1.00
F264   F     0.10271   0.78053   0.27858   0.00000  Uiso   1.00
F265   F     0.23079   0.88595   0.29483   0.00000  Uiso   1.00
F266   F     0.10254   0.78071   0.03850   0.00000  Uiso   1.00
C267   C     0.50042   0.75334   0.16679   0.00000  Uiso   1.00
C268   C     0.49958   0.91333   0.16654   0.00000  Uiso   1.00
C269   C     0.40053   0.83330   0.15483   0.00000  Uiso   1.00
C270   C     0.59947   0.83337   0.17851   0.00000  Uiso   1.00
C271   C     0.34586   0.83274   0.14836   0.00000  Uiso   1.00
C272   C     0.65414   0.83393   0.18497   0.00000  Uiso   1.00
C273   C     0.47717   0.68839   0.12774   0.00000  Uiso   1.00
C274   C     0.52283   0.97828   0.20559   0.00000  Uiso   1.00
C275   C     0.47649   0.97899   0.12737   0.00000  Uiso   1.00
C276   C     0.52351   0.68768   0.20596   0.00000  Uiso   1.00
C277   C     0.49946   0.95746   0.16639   0.00000  Uiso   1.00
C278   C     0.50054   0.70921   0.16695   0.00000  Uiso   1.00
C279   C     0.53197   0.85967   0.02803   0.00000  Uiso   1.00
C280   C     0.46803   0.80699   0.30530   0.00000  Uiso   1.00
C281   C     0.53199   0.85964   0.31342   0.00000  Uiso   1.00
C282   C     0.46801   0.80703   0.01991   0.00000  Uiso   1.00
H283   H     0.45884   0.70517   0.09778   0.00000  Uiso   1.00
H284   H     0.54116   0.96150   0.23556   0.00000  Uiso   1.00
N285   N     0.49999   0.83332   0.28573   0.00000  Uiso   1.00
N286   N     0.50001   0.83334   0.04760   0.00000  Uiso   1.00
O287   O     0.50000   0.77225   0.20487   0.00000  Uiso   1.00
O288   O     0.50000   0.89442   0.12846   0.00000  Uiso   1.00
O289   O     0.50000   0.77226   0.12843   0.00000  Uiso   1.00
O290   O     0.50000   0.89441   0.20490   0.00000  Uiso   1.00
O291   O     0.42392   0.83333   0.19595   0.00000  Uiso   1.00
O292   O     0.57608   0.83334   0.13739   0.00000  Uiso   1.00
O293   O     0.42392   0.83334   0.11950   0.00000  Uiso   1.00
O294   O     0.57608   0.83333   0.21383   0.00000  Uiso   1.00
Zn295  Zn    0.50000   0.83333   0.21771   0.00000  Uiso   1.00
Zn296  Zn    0.50000   0.83334   0.11563   0.00000  Uiso   1.00
F297   F     0.65466   0.83054   0.10427   0.00000  Uiso   1.00
F298   F     0.34535   0.83613   0.22907   0.00000  Uiso   1.00
F299   F     0.45245   0.95889   0.08958   0.00000  Uiso   1.00
F300   F     0.54755   0.70778   0.24375   0.00000  Uiso   1.00
F301   F     0.56396   0.88614   0.05475   0.00000  Uiso   1.00
F302   F     0.43604   0.78053   0.27858   0.00000  Uiso   1.00
F303   F     0.56413   0.88595   0.29483   0.00000  Uiso   1.00
F304   F     0.43587   0.78071   0.03850   0.00000  Uiso   1.00
C305   C     0.83375   0.75334   0.16679   0.00000  Uiso   1.00
C306   C     0.83291   0.91333   0.16654   0.00000  Uiso   1.00
C307   C     0.73386   0.83330   0.15483   0.00000  Uiso   1.00
C308   C     0.93280   0.83337   0.17851   0.00000  Uiso   1.00
C309   C     0.67919   0.83274   0.14836   0.00000  Uiso   1.00
C310   C     0.98747   0.83393   0.18497   0.00000  Uiso   1.00
C311   C     0.81051   0.68839   0.12774   0.00000  Uiso   1.00
C312   C     0.85616   0.97828   0.20559   0.00000  Uiso   1.00
C313   C     0.80982   0.97899   0.12737   0.00000  Uiso   1.00
C314   C     0.85685   0.68768   0.20596   0.00000  Uiso   1.00
C315   C     0.83279   0.95746   0.16639   0.00000  Uiso   1.00
C316   C     0.83387   0.70921   0.16695   0.00000  Uiso   1.00
C317   C     0.86531   0.85967   0.02803   0.00000  Uiso   1.00
C318   C     0.80136   0.80699   0.30530   0.00000  Uiso   1.00
C319   C     0.86532   0.85964   0.31342   0.00000  Uiso   1.00
C320   C     0.80134   0.80703   0.01991   0.00000  Uiso   1.00
H321   H     0.79217   0.70517   0.09778   0.00000  Uiso   1.00
H322   H     0.87450   0.96150   0.23556   0.00000  Uiso   1.00
N323   N     0.83332   0.83332   0.28573   0.00000  Uiso   1.00
N324   N     0.83335   0.83334   0.04760   0.00000  Uiso   1.00
O325   O     0.83333   0.77225   0.20487   0.00000  Uiso   1.00
O326   O     0.83334   0.89442   0.12846   0.00000  Uiso   1.00
O327   O     0.83333   0.77226   0.12843   0.00000  Uiso   1.00
O328   O     0.83334   0.89441   0.20490   0.00000  Uiso   1.00
O329   O     0.75725   0.83333   0.19595   0.00000  Uiso   1.00
O330   O     0.90942   0.83334   0.13739   0.00000  Uiso   1.00
O331   O     0.75725   0.83334   0.11950   0.00000  Uiso   1.00
O332   O     0.90942   0.83333   0.21383   0.00000  Uiso   1.00
Zn333  Zn    0.83333   0.83333   0.21771   0.00000  Uiso   1.00
Zn334  Zn    0.83333   0.83334   0.11563   0.00000  Uiso   1.00
F335   F     0.98799   0.83054   0.10427   0.00000  Uiso   1.00
F336   F     0.67868   0.83613   0.22907   0.00000  Uiso   1.00
F337   F     0.78578   0.95889   0.08958   0.00000  Uiso   1.00
F338   F     0.88088   0.70778   0.24375   0.00000  Uiso   1.00
F339   F     0.89729   0.88614   0.05475   0.00000  Uiso   1.00
F340   F     0.76937   0.78053   0.27858   0.00000  Uiso   1.00
F341   F     0.89746   0.88595   0.29483   0.00000  Uiso   1.00
F342   F     0.76921   0.78071   0.03850   0.00000  Uiso   1.00
C343   C     0.16709   0.08667   0.50012   0.00000  Uiso   1.00
C344   C     0.16625   0.24666   0.49988   0.00000  Uiso   1.00
C345   C     0.06720   0.16663   0.48816   0.00000  Uiso   1.00
C346   C     0.26614   0.16670   0.51184   0.00000  Uiso   1.00
C347   C     0.01253   0.16607   0.48170   0.00000  Uiso   1.00
C348   C     0.32081   0.16726   0.51830   0.00000  Uiso   1.00
C349   C     0.14384   0.02173   0.46108   0.00000  Uiso   1.00
C350   C     0.18949   0.31161   0.53892   0.00000  Uiso   1.00
C351   C     0.14315   0.31232   0.46070   0.00000  Uiso   1.00
C352   C     0.19018   0.02101   0.53930   0.00000  Uiso   1.00
C353   C     0.16613   0.29079   0.49972   0.00000  Uiso   1.00
C354   C     0.16721   0.04254   0.50028   0.00000  Uiso   1.00
C355   C     0.19864   0.19301   0.36137   0.00000  Uiso   1.00
C356   C     0.13469   0.14033   0.63863   0.00000  Uiso   1.00
C357   C     0.19866   0.19297   0.64675   0.00000  Uiso   1.00
C358   C     0.13468   0.14036   0.35325   0.00000  Uiso   1.00
H359   H     0.12551   0.03850   0.43111   0.00000  Uiso   1.00
H360   H     0.20783   0.29483   0.56889   0.00000  Uiso   1.00
N361   N     0.16665   0.16666   0.61907   0.00000  Uiso   1.00
N362   N     0.16668   0.16668   0.38093   0.00000  Uiso   1.00
O363   O     0.16666   0.10558   0.53821   0.00000  Uiso   1.00
O364   O     0.16667   0.22775   0.46179   0.00000  Uiso   1.00
O365   O     0.16666   0.10559   0.46176   0.00000  Uiso   1.00
O366   O     0.16667   0.22774   0.53824   0.00000  Uiso   1.00
O367   O     0.09058   0.16666   0.52928   0.00000  Uiso   1.00
O368   O     0.24275   0.16667   0.47072   0.00000  Uiso   1.00
O369   O     0.09058   0.16667   0.45284   0.00000  Uiso   1.00
O370   O     0.24275   0.16666   0.54716   0.00000  Uiso   1.00
Zn371  Zn    0.16667   0.16666   0.55104   0.00000  Uiso   1.00
Zn372  Zn    0.16667   0.16667   0.44896   0.00000  Uiso   1.00
F373   F     0.32132   0.16387   0.43760   0.00000  Uiso   1.00
F374   F     0.01201   0.16946   0.56240   0.00000  Uiso   1.00
F375   F     0.11912   0.29222   0.42291   0.00000  Uiso   1.00
F376   F     0.21422   0.04111   0.57709   0.00000  Uiso   1.00
F377   F     0.23063   0.21947   0.38809   0.00000  Uiso   1.00
F378   F     0.10271   0.11386   0.61191   0.00000  Uiso   1.00
F379   F     0.23079   0.21929   0.62816   0.00000  Uiso   1.00
F380   F     0.10254   0.11405   0.37184   0.00000  Uiso   1.00
C381   C     0.50042   0.08667   0.50012   0.00000  Uiso   1.00
C382   C     0.49958   0.24666   0.49988   0.00000  Uiso   1.00
C383   C     0.40053   0.16663   0.48816   0.00000  Uiso   1.00
C384   C     0.59947   0.16670   0.51184   0.00000  Uiso   1.00
C385   C     0.34586   0.16607   0.48170   0.00000  Uiso   1.00
C386   C     0.65414   0.16726   0.51830   0.00000  Uiso   1.00
C387   C     0.47717   0.02173   0.46108   0.00000  Uiso   1.00
C388   C     0.52283   0.31161   0.53892   0.00000  Uiso   1.00
C389   C     0.47649   0.31232   0.46070   0.00000  Uiso   1.00
C390   C     0.52351   0.02101   0.53930   0.00000  Uiso   1.00
C391   C     0.49946   0.29079   0.49972   0.00000  Uiso   1.00
C392   C     0.50054   0.04254   0.50028   0.00000  Uiso   1.00
C393   C     0.53197   0.19301   0.36137   0.00000  Uiso   1.00
C394   C     0.46803   0.14033   0.63863   0.00000  Uiso   1.00
C395   C     0.53199   0.19297   0.64675   0.00000  Uiso   1.00
C396   C     0.46801   0.14036   0.35325   0.00000  Uiso   1.00
H397   H     0.45884   0.03850   0.43111   0.00000  Uiso   1.00
H398   H     0.54116   0.29483   0.56889   0.00000  Uiso   1.00
N399   N     0.49999   0.16666   0.61907   0.00000  Uiso   1.00
N400   N     0.50001   0.16668   0.38093   0.00000  Uiso   1.00
O401   O     0.50000   0.10558   0.53821   0.00000  Uiso   1.00
O402   O     0.50000   0.22775   0.46179   0.00000  Uiso   1.00
O403   O     0.50000   0.10559   0.46176   0.00000  Uiso   1.00
O404   O     0.50000   0.22774   0.53824   0.00000  Uiso   1.00
O405   O     0.42392   0.16666   0.52928   0.00000  Uiso   1.00
O406   O     0.57608   0.16667   0.47072   0.00000  Uiso   1.00
O407   O     0.42392   0.16667   0.45284   0.00000  Uiso   1.00
O408   O     0.57608   0.16666   0.54716   0.00000  Uiso   1.00
Zn409  Zn    0.50000   0.16666   0.55104   0.00000  Uiso   1.00
Zn410  Zn    0.50000   0.16667   0.44896   0.00000  Uiso   1.00
F411   F     0.65466   0.16387   0.43760   0.00000  Uiso   1.00
F412   F     0.34535   0.16946   0.56240   0.00000  Uiso   1.00
F413   F     0.45245   0.29222   0.42291   0.00000  Uiso   1.00
F414   F     0.54755   0.04111   0.57709   0.00000  Uiso   1.00
F415   F     0.56396   0.21947   0.38809   0.00000  Uiso   1.00
F416   F     0.43604   0.11386   0.61191   0.00000  Uiso   1.00
F417   F     0.56413   0.21929   0.62816   0.00000  Uiso   1.00
F418   F     0.43587   0.11405   0.37184   0.00000  Uiso   1.00
C419   C     0.83375   0.08667   0.50012   0.00000  Uiso   1.00
C420   C     0.83291   0.24666   0.49988   0.00000  Uiso   1.00
C421   C     0.73386   0.16663   0.48816   0.00000  Uiso   1.00
C422   C     0.93280   0.16670   0.51184   0.00000  Uiso   1.00
C423   C     0.67919   0.16607   0.48170   0.00000  Uiso   1.00
C424   C     0.98747   0.16726   0.51830   0.00000  Uiso   1.00
C425   C     0.81051   0.02173   0.46108   0.00000  Uiso   1.00
C426   C     0.85616   0.31161   0.53892   0.00000  Uiso   1.00
C427   C     0.80982   0.31232   0.46070   0.00000  Uiso   1.00
C428   C     0.85685   0.02101   0.53930   0.00000  Uiso   1.00
C429   C     0.83279   0.29079   0.49972   0.00000  Uiso   1.00
C430   C     0.83387   0.04254   0.50028   0.00000  Uiso   1.00
C431   C     0.86531   0.19301   0.36137   0.00000  Uiso   1.00
C432   C     0.80136   0.14033   0.63863   0.00000  Uiso   1.00
C433   C     0.86532   0.19297   0.64675   0.00000  Uiso   1.00
C434   C     0.80134   0.14036   0.35325   0.00000  Uiso   1.00
H435   H     0.79217   0.03850   0.43111   0.00000  Uiso   1.00
H436   H     0.87450   0.29483   0.56889   0.00000  Uiso   1.00
N437   N     0.83332   0.16666   0.61907   0.00000  Uiso   1.00
N438   N     0.83335   0.16668   0.38093   0.00000  Uiso   1.00
O439   O     0.83333   0.10558   0.53821   0.00000  Uiso   1.00
O440   O     0.83334   0.22775   0.46179   0.00000  Uiso   1.00
O441   O     0.83333   0.10559   0.46176   0.00000  Uiso   1.00
O442   O     0.83334   0.22774   0.53824   0.00000  Uiso   1.00
O443   O     0.75725   0.16666   0.52928   0.00000  Uiso   1.00
O444   O     0.90942   0.16667   0.47072   0.00000  Uiso   1.00
O445   O     0.75725   0.16667   0.45284   0.00000  Uiso   1.00
O446   O     0.90942   0.16666   0.54716   0.00000  Uiso   1.00
Zn447  Zn    0.83333   0.16666   0.55104   0.00000  Uiso   1.00
Zn448  Zn    0.83333   0.16667   0.44896   0.00000  Uiso   1.00
F449   F     0.98799   0.16387   0.43760   0.00000  Uiso   1.00
F450   F     0.67868   0.16946   0.56240   0.00000  Uiso   1.00
F451   F     0.78578   0.29222   0.42291   0.00000  Uiso   1.00
F452   F     0.88088   0.04111   0.57709   0.00000  Uiso   1.00
F453   F     0.89729   0.21947   0.38809   0.00000  Uiso   1.00
F454   F     0.76937   0.11386   0.61191   0.00000  Uiso   1.00
F455   F     0.89746   0.21929   0.62816   0.00000  Uiso   1.00
F456   F     0.76921   0.11405   0.37184   0.00000  Uiso   1.00
C457   C     0.16709   0.42001   0.50012   0.00000  Uiso   1.00
C458   C     0.16625   0.57999   0.49988   0.00000  Uiso   1.00
C459   C     0.06720   0.49996   0.48816   0.00000  Uiso   1.00
C460   C     0.26614   0.50004   0.51184   0.00000  Uiso   1.00
C461   C     0.01253   0.49940   0.48170   0.00000  Uiso   1.00
C462   C     0.32081   0.50060   0.51830   0.00000  Uiso   1.00
C463   C     0.14384   0.35506   0.46108   0.00000  Uiso   1.00
C464   C     0.18949   0.64494   0.53892   0.00000  Uiso   1.00
C465   C     0.14315   0.64566   0.46070   0.00000  Uiso   1.00
C466   C     0.19018   0.35434   0.53930   0.00000  Uiso   1.00
C467   C     0.16613   0.62412   0.49972   0.00000  Uiso   1.00
C468   C     0.16721   0.37588   0.50028   0.00000  Uiso   1.00
C469   C     0.19864   0.52634   0.36137   0.00000  Uiso   1.00
C470   C     0.13469   0.47366   0.63863   0.00000  Uiso   1.00
C471   C     0.19866   0.52630   0.64675   0.00000  Uiso   1.00
C472   C     0.13468   0.47370   0.35325   0.00000  Uiso   1.00
H473   H     0.12551   0.37183   0.43111   0.00000  Uiso   1.00
H474   H     0.20783   0.62817   0.56889   0.00000  Uiso   1.00
N475   N     0.16665   0.49999   0.61907   0.00000  Uiso   1.00
N476   N     0.16668   0.50001   0.38093   0.00000  Uiso   1.00
O477   O     0.16666   0.43892   0.53821   0.00000  Uiso   1.00
O478   O     0.16667   0.56108   0.46179   0.00000  Uiso   1.00
O479   O     0.16666   0.43893   0.46176   0.00000  Uiso   1.00
O480   O     0.16667   0.56107   0.53824   0.00000  Uiso   1.00
O481   O     0.09058   0.50000   0.52928   0.00000  Uiso   1.00
O482   O     0.24275   0.50000   0.47072   0.00000  Uiso   1.00
O483   O     0.09058   0.50000   0.45284   0.00000  Uiso   1.00
O484   O     0.24275   0.50000   0.54716   0.00000  Uiso   1.00
Zn485  Zn    0.16667   0.49999   0.55104   0.00000  Uiso   1.00
Zn486  Zn    0.16667   0.50001   0.44896   0.00000  Uiso   1.00
F487   F     0.32132   0.49721   0.43760   0.00000  Uiso   1.00
F488   F     0.01201   0.50279   0.56240   0.00000  Uiso   1.00
F489   F     0.11912   0.62556   0.42291   0.00000  Uiso   1.00
F490   F     0.21422   0.37444   0.57709   0.00000  Uiso   1.00
F491   F     0.23063   0.55280   0.38809   0.00000  Uiso   1.00
F492   F     0.10271   0.44720   0.61191   0.00000  Uiso   1.00
F493   F     0.23079   0.55262   0.62816   0.00000  Uiso   1.00
F494   F     0.10254   0.44738   0.37184   0.00000  Uiso   1.00
C495   C     0.50042   0.42001   0.50012   0.00000  Uiso   1.00
C496   C     0.49958   0.57999   0.49988   0.00000  Uiso   1.00
C497   C     0.40053   0.49996   0.48816   0.00000  Uiso   1.00
C498   C     0.59947   0.50004   0.51184   0.00000  Uiso   1.00
C499   C     0.34586   0.49940   0.48170   0.00000  Uiso   1.00
C500   C     0.65414   0.50060   0.51830   0.00000  Uiso   1.00
C501   C     0.47717   0.35506   0.46108   0.00000  Uiso   1.00
C502   C     0.52283   0.64494   0.53892   0.00000  Uiso   1.00
C503   C     0.47649   0.64566   0.46070   0.00000  Uiso   1.00
C504   C     0.52351   0.35434   0.53930   0.00000  Uiso   1.00
C505   C     0.49946   0.62412   0.49972   0.00000  Uiso   1.00
C506   C     0.50054   0.37588   0.50028   0.00000  Uiso   1.00
C507   C     0.53197   0.52634   0.36137   0.00000  Uiso   1.00
C508   C     0.46803   0.47366   0.63863   0.00000  Uiso   1.00
C509   C     0.53199   0.52630   0.64675   0.00000  Uiso   1.00
C510   C     0.46801   0.47370   0.35325   0.00000  Uiso   1.00
H511   H     0.45884   0.37183   0.43111   0.00000  Uiso   1.00
H512   H     0.54116   0.62817   0.56889   0.00000  Uiso   1.00
N513   N     0.49999   0.49999   0.61907   0.00000  Uiso   1.00
N514   N     0.50001   0.50001   0.38093   0.00000  Uiso   1.00
O515   O     0.50000   0.43892   0.53821   0.00000  Uiso   1.00
O516   O     0.50000   0.56108   0.46179   0.00000  Uiso   1.00
O517   O     0.50000   0.43893   0.46176   0.00000  Uiso   1.00
O518   O     0.50000   0.56107   0.53824   0.00000  Uiso   1.00
O519   O     0.42392   0.50000   0.52928   0.00000  Uiso   1.00
O520   O     0.57608   0.50000   0.47072   0.00000  Uiso   1.00
O521   O     0.42392   0.50000   0.45284   0.00000  Uiso   1.00
O522   O     0.57608   0.50000   0.54716   0.00000  Uiso   1.00
Zn523  Zn    0.50000   0.49999   0.55104   0.00000  Uiso   1.00
Zn524  Zn    0.50000   0.50001   0.44896   0.00000  Uiso   1.00
F525   F     0.65466   0.49721   0.43760   0.00000  Uiso   1.00
F526   F     0.34535   0.50279   0.56240   0.00000  Uiso   1.00
F527   F     0.45245   0.62556   0.42291   0.00000  Uiso   1.00
F528   F     0.54755   0.37444   0.57709   0.00000  Uiso   1.00
F529   F     0.56396   0.55280   0.38809   0.00000  Uiso   1.00
F530   F     0.43604   0.44720   0.61191   0.00000  Uiso   1.00
F531   F     0.56413   0.55262   0.62816   0.00000  Uiso   1.00
F532   F     0.43587   0.44738   0.37184   0.00000  Uiso   1.00
C533   C     0.83375   0.42001   0.50012   0.00000  Uiso   1.00
C534   C     0.83291   0.57999   0.49988   0.00000  Uiso   1.00
C535   C     0.73386   0.49996   0.48816   0.00000  Uiso   1.00
C536   C     0.93280   0.50004   0.51184   0.00000  Uiso   1.00
C537   C     0.67919   0.49940   0.48170   0.00000  Uiso   1.00
C538   C     0.98747   0.50060   0.51830   0.00000  Uiso   1.00
C539   C     0.81051   0.35506   0.46108   0.00000  Uiso   1.00
C540   C     0.85616   0.64494   0.53892   0.00000  Uiso   1.00
C541   C     0.80982   0.64566   0.46070   0.00000  Uiso   1.00
C542   C     0.85685   0.35434   0.53930   0.00000  Uiso   1.00
C543   C     0.83279   0.62412   0.49972   0.00000  Uiso   1.00
C544   C     0.83387   0.37588   0.50028   0.00000  Uiso   1.00
C545   C     0.86531   0.52634   0.36137   0.00000  Uiso   1.00
C546   C     0.80136   0.47366   0.63863   0.00000  Uiso   1.00
C547   C     0.86532   0.52630   0.64675   0.00000  Uiso   1.00
C548   C     0.80134   0.47370   0.35325   0.00000  Uiso   1.00
H549   H     0.79217   0.37183   0.43111   0.00000  Uiso   1.00
H550   H     0.87450   0.62817   0.56889   0.00000  Uiso   1.00
N551   N     0.83332   0.49999   0.61907   0.00000  Uiso   1.00
N552   N     0.83335   0.50001   0.38093   0.00000  Uiso   1.00
O553   O     0.83333   0.43892   0.53821   0.00000  Uiso   1.00
O554   O     0.83334   0.56108   0.46179   0.00000  Uiso   1.00
O555   O     0.83333   0.43893   0.46176   0.00000  Uiso   1.00
O556   O     0.83334   0.56107   0.53824   0.00000  Uiso   1.00
O557   O     0.75725   0.50000   0.52928   0.00000  Uiso   1.00
O558   O     0.90942   0.50000   0.47072   0.00000  Uiso   1.00
O559   O     0.75725   0.50000   0.45284   0.00000  Uiso   1.00
O560   O     0.90942   0.50000   0.54716   0.00000  Uiso   1.00
Zn561  Zn    0.83333   0.49999   0.55104   0.00000  Uiso   1.00
Zn562  Zn    0.83333   0.50001   0.44896   0.00000  Uiso   1.00
F563   F     0.98799   0.49721   0.43760   0.00000  Uiso   1.00
F564   F     0.67868   0.50279   0.56240   0.00000  Uiso   1.00
F565   F     0.78578   0.62556   0.42291   0.00000  Uiso   1.00
F566   F     0.88088   0.37444   0.57709   0.00000  Uiso   1.00
F567   F     0.89729   0.55280   0.38809   0.00000  Uiso   1.00
F568   F     0.76937   0.44720   0.61191   0.00000  Uiso   1.00
F569   F     0.89746   0.55262   0.62816   0.00000  Uiso   1.00
F570   F     0.76921   0.44738   0.37184   0.00000  Uiso   1.00
C571   C     0.16709   0.75334   0.50012   0.00000  Uiso   1.00
C572   C     0.16625   0.91333   0.49988   0.00000  Uiso   1.00
C573   C     0.06720   0.83330   0.48816   0.00000  Uiso   1.00
C574   C     0.26614   0.83337   0.51184   0.00000  Uiso   1.00
C575   C     0.01253   0.83274   0.48170   0.00000  Uiso   1.00
C576   C     0.32081   0.83393   0.51830   0.00000  Uiso   1.00
C577   C     0.14384   0.68839   0.46108   0.00000  Uiso   1.00
C578   C     0.18949   0.97828   0.53892   0.00000  Uiso   1.00
C579   C     0.14315   0.97899   0.46070   0.00000  Uiso   1.00
C580   C     0.19018   0.68768   0.53930   0.00000  Uiso   1.00
C581   C     0.16613   0.95746   0.49972   0.00000  Uiso   1.00
C582   C     0.16721   0.70921   0.50028   0.00000  Uiso   1.00
C583   C     0.19864   0.85967   0.36137   0.00000  Uiso   1.00
C584   C     0.13469   0.80699   0.63863   0.00000  Uiso   1.00
C585   C     0.19866   0.85964   0.64675   0.00000  Uiso   1.00
C586   C     0.13468   0.80703   0.35325   0.00000  Uiso   1.00
H587   H     0.12551   0.70517   0.43111   0.00000  Uiso   1.00
H588   H     0.20783   0.96150   0.56889   0.00000  Uiso   1.00
N589   N     0.16665   0.83332   0.61907   0.00000  Uiso   1.00
N590   N     0.16668   0.83334   0.38093   0.00000  Uiso   1.00
O591   O     0.16666   0.77225   0.53821   0.00000  Uiso   1.00
O592   O     0.16667   0.89442   0.46179   0.00000  Uiso   1.00
O593   O     0.16666   0.77226   0.46176   0.00000  Uiso   1.00
O594   O     0.16667   0.89441   0.53824   0.00000  Uiso   1.00
O595   O     0.09058   0.83333   0.52928   0.00000  Uiso   1.00
O596   O     0.24275   0.83334   0.47072   0.00000  Uiso   1.00
O597   O     0.09058   0.83334   0.45284   0.00000  Uiso   1.00
O598   O     0.24275   0.83333   0.54716   0.00000  Uiso   1.00
Zn599  Zn    0.16667   0.83333   0.55104   0.00000  Uiso   1.00
Zn600  Zn    0.16667   0.83334   0.44896   0.00000  Uiso   1.00
F601   F     0.32132   0.83054   0.43760   0.00000  Uiso   1.00
F602   F     0.01201   0.83613   0.56240   0.00000  Uiso   1.00
F603   F     0.11912   0.95889   0.42291   0.00000  Uiso   1.00
F604   F     0.21422   0.70778   0.57709   0.00000  Uiso   1.00
F605   F     0.23063   0.88614   0.38809   0.00000  Uiso   1.00
F606   F     0.10271   0.78053   0.61191   0.00000  Uiso   1.00
F607   F     0.23079   0.88595   0.62816   0.00000  Uiso   1.00
F608   F     0.10254   0.78071   0.37184   0.00000  Uiso   1.00
C609   C     0.50042   0.75334   0.50012   0.00000  Uiso   1.00
C610   C     0.49958   0.91333   0.49988   0.00000  Uiso   1.00
C611   C     0.40053   0.83330   0.48816   0.00000  Uiso   1.00
C612   C     0.59947   0.83337   0.51184   0.00000  Uiso   1.00
C613   C     0.34586   0.83274   0.48170   0.00000  Uiso   1.00
C614   C     0.65414   0.83393   0.51830   0.00000  Uiso   1.00
C615   C     0.47717   0.68839   0.46108   0.00000  Uiso   1.00
C616   C     0.52283   0.97828   0.53892   0.00000  Uiso   1.00
C617   C     0.47649   0.97899   0.46070   0.00000  Uiso   1.00
C618   C     0.52351   0.68768   0.53930   0.00000  Uiso   1.00
C619   C     0.49946   0.95746   0.49972   0.00000  Uiso   1.00
C620   C     0.50054   0.70921   0.50028   0.00000  Uiso   1.00
C621   C     0.53197   0.85967   0.36137   0.00000  Uiso   1.00
C622   C     0.46803   0.80699   0.63863   0.00000  Uiso   1.00
C623   C     0.53199   0.85964   0.64675   0.00000  Uiso   1.00
C624   C     0.46801   0.80703   0.35325   0.00000  Uiso   1.00
H625   H     0.45884   0.70517   0.43111   0.00000  Uiso   1.00
H626   H     0.54116   0.96150   0.56889   0.00000  Uiso   1.00
N627   N     0.49999   0.83332   0.61907   0.00000  Uiso   1.00
N628   N     0.50001   0.83334   0.38093   0.00000  Uiso   1.00
O629   O     0.50000   0.77225   0.53821   0.00000  Uiso   1.00
O630   O     0.50000   0.89442   0.46179   0.00000  Uiso   1.00
O631   O     0.50000   0.77226   0.46176   0.00000  Uiso   1.00
O632   O     0.50000   0.89441   0.53824   0.00000  Uiso   1.00
O633   O     0.42392   0.83333   0.52928   0.00000  Uiso   1.00
O634   O     0.57608   0.83334   0.47072   0.00000  Uiso   1.00
O635   O     0.42392   0.83334   0.45284   0.00000  Uiso   1.00
O636   O     0.57608   0.83333   0.54716   0.00000  Uiso   1.00
Zn637  Zn    0.50000   0.83333   0.55104   0.00000  Uiso   1.00
Zn638  Zn    0.50000   0.83334   0.44896   0.00000  Uiso   1.00
F639   F     0.65466   0.83054   0.43760   0.00000  Uiso   1.00
F640   F     0.34535   0.83613   0.56240   0.00000  Uiso   1.00
F641   F     0.45245   0.95889   0.42291   0.00000  Uiso   1.00
F642   F     0.54755   0.70778   0.57709   0.00000  Uiso   1.00
F643   F     0.56396   0.88614   0.38809   0.00000  Uiso   1.00
F644   F     0.43604   0.78053   0.61191   0.00000  Uiso   1.00
F645   F     0.56413   0.88595   0.62816   0.00000  Uiso   1.00
F646   F     0.43587   0.78071   0.37184   0.00000  Uiso   1.00
C647   C     0.83375   0.75334   0.50012   0.00000  Uiso   1.00
C648   C     0.83291   0.91333   0.49988   0.00000  Uiso   1.00
C649   C     0.73386   0.83330   0.48816   0.00000  Uiso   1.00
C650   C     0.93280   0.83337   0.51184   0.00000  Uiso   1.00
C651   C     0.67919   0.83274   0.48170   0.00000  Uiso   1.00
C652   C     0.98747   0.83393   0.51830   0.00000  Uiso   1.00
C653   C     0.81051   0.68839   0.46108   0.00000  Uiso   1.00
C654   C     0.85616   0.97828   0.53892   0.00000  Uiso   1.00
C655   C     0.80982   0.97899   0.46070   0.00000  Uiso   1.00
C656   C     0.85685   0.68768   0.53930   0.00000  Uiso   1.00
C657   C     0.83279   0.95746   0.49972   0.00000  Uiso   1.00
C658   C     0.83387   0.70921   0.50028   0.00000  Uiso   1.00
C659   C     0.86531   0.85967   0.36137   0.00000  Uiso   1.00
C660   C     0.80136   0.80699   0.63863   0.00000  Uiso   1.00
C661   C     0.86532   0.85964   0.64675   0.00000  Uiso   1.00
C662   C     0.80134   0.80703   0.35325   0.00000  Uiso   1.00
H663   H     0.79217   0.70517   0.43111   0.00000  Uiso   1.00
H664   H     0.87450   0.96150   0.56889   0.00000  Uiso   1.00
N665   N     0.83332   0.83332   0.61907   0.00000  Uiso   1.00
N666   N     0.83335   0.83334   0.38093   0.00000  Uiso   1.00
O667   O     0.83333   0.77225   0.53821   0.00000  Uiso   1.00
O668   O     0.83334   0.89442   0.46179   0.00000  Uiso   1.00
O669   O     0.83333   0.77226   0.46176   0.00000  Uiso   1.00
O670   O     0.83334   0.89441   0.53824   0.00000  Uiso   1.00
O671   O     0.75725   0.83333   0.52928   0.00000  Uiso   1.00
O672   O     0.90942   0.83334   0.47072   0.00000  Uiso   1.00
O673   O     0.75725   0.83334   0.45284   0.00000  Uiso   1.00
O674   O     0.90942   0.83333   0.54716   0.00000  Uiso   1.00
Zn675  Zn    0.83333   0.83333   0.55104   0.00000  Uiso   1.00
Zn676  Zn    0.83333   0.83334   0.44896   0.00000  Uiso   1.00
F677   F     0.98799   0.83054   0.43760   0.00000  Uiso   1.00
F678   F     0.67868   0.83613   0.56240   0.00000  Uiso   1.00
F679   F     0.78578   0.95889   0.42291   0.00000  Uiso   1.00
F680   F     0.88088   0.70778   0.57709   0.00000  Uiso   1.00
F681   F     0.89729   0.88614   0.38809   0.00000  Uiso   1.00
F682   F     0.76937   0.78053   0.61191   0.00000  Uiso   1.00
F683   F     0.89746   0.88595   0.62816   0.00000  Uiso   1.00
F684   F     0.76921   0.78071   0.37184   0.00000  Uiso   1.00
C685   C     0.16709   0.08667   0.83346   0.00000  Uiso   1.00
C686   C     0.16625   0.24666   0.83321   0.00000  Uiso   1.00
C687   C     0.06720   0.16663   0.82149   0.00000  Uiso   1.00
C688   C     0.26614   0.16670   0.84517   0.00000  Uiso   1.00
C689   C     0.01253   0.16607   0.81503   0.00000  Uiso   1.00
C690   C     0.32081   0.16726   0.85163   0.00000  Uiso   1.00
C691   C     0.14384   0.02173   0.79441   0.00000  Uiso   1.00
C692   C     0.18949   0.31161   0.87226   0.00000  Uiso   1.00
C693   C     0.14315   0.31232   0.79404   0.00000  Uiso   1.00
C694   C     0.19018   0.02101   0.87263   0.00000  Uiso   1.00
C695   C     0.16613   0.29079   0.83305   0.00000  Uiso   1.00
C696   C     0.16721   0.04254   0.83361   0.00000  Uiso   1.00
C697   C     0.19864   0.19301   0.69470   0.00000  Uiso   1.00
C698   C     0.13469   0.14033   0.97197   0.00000  Uiso   1.00
C699   C     0.19866   0.19297   0.98009   0.00000  Uiso   1.00
C700   C     0.13468   0.14036   0.68658   0.00000  Uiso   1.00
H701   H     0.12551   0.03850   0.76444   0.00000  Uiso   1.00
H702   H     0.20783   0.29483   0.90222   0.00000  Uiso   1.00
N703   N     0.16665   0.16666   0.95240   0.00000  Uiso   1.00
N704   N     0.16668   0.16668   0.71427   0.00000  Uiso   1.00
O705   O     0.16666   0.10558   0.87154   0.00000  Uiso   1.00
O706   O     0.16667   0.22775   0.79513   0.00000  Uiso   1.00
O707   O     0.16666   0.10559   0.79510   0.00000  Uiso   1.00
O708   O     0.16667   0.22774   0.87157   0.00000  Uiso   1.00
O709   O     0.09058   0.16666   0.86261   0.00000  Uiso   1.00
O710   O     0.24275   0.16667   0.80405   0.00000  Uiso   1.00
O711   O     0.09058   0.16667   0.78617   0.00000  Uiso   1.00
O712   O     0.24275   0.16666   0.88050   0.00000  Uiso   1.00
Zn713  Zn    0.16667   0.16666   0.88437   0.00000  Uiso   1.00
Zn714  Zn    0.16667   0.16667   0.78229   0.00000  Uiso   1.00
F715   F     0.32132   0.16387   0.77093   0.00000  Uiso   1.00
F716   F     0.01201   0.16946   0.89573   0.00000  Uiso   1.00
F717   F     0.11912   0.29222   0.75625   0.00000  Uiso   1.00
F718   F     0.21422   0.04111   0.91042   0.00000  Uiso   1.00
F719   F     0.23063   0.21947   0.72142   0.00000  Uiso   1.00
F720   F     0.10271   0.11386   0.94525   0.00000  Uiso   1.00
F721   F     0.23079   0.21929   0.96149   0.00000  Uiso   1.00
F722   F     0.10254   0.11405   0.70517   0.00000  Uiso   1.00
C723   C     0.50042   0.08667   0.83346   0.00000  Uiso   1.00
C724   C     0.49958   0.24666   0.83321   0.00000  Uiso   1.00
C725   C     0.40053   0.16663   0.82149   0.00000  Uiso   1.00
C726   C     0.59947   0.16670   0.84517   0.00000  Uiso   1.00
C727   C     0.34586   0.16607   0.81503   0.00000  Uiso   1.00
C728   C     0.65414   0.16726   0.85163   0.00000  Uiso   1.00
C729   C     0.47717   0.02173   0.79441   0.00000  Uiso   1.00
C730   C     0.52283   0.31161   0.87226   0.00000  Uiso   1.00
C731   C     0.47649   0.31232   0.79404   0.00000  Uiso   1.00
C732   C     0.52351   0.02101   0.87263   0.00000  Uiso   1.00
C733   C     0.49946   0.29079   0.83305   0.00000  Uiso   1.00
C734   C     0.50054   0.04254   0.83361   0.00000  Uiso   1.00
C735   C     0.53197   0.19301   0.69470   0.00000  Uiso   1.00
C736   C     0.46803   0.14033   0.97197   0.00000  Uiso   1.00
C737   C     0.53199   0.19297   0.98009   0.00000  Uiso   1.00
C738   C     0.46801   0.14036   0.68658   0.00000  Uiso   1.00
H739   H     0.45884   0.03850   0.76444   0.00000  Uiso   1.00
H740   H     0.54116   0.29483   0.90222   0.00000  Uiso   1.00
N741   N     0.49999   0.16666   0.95240   0.00000  Uiso   1.00
N742   N     0.50001   0.16668   0.71427   0.00000  Uiso   1.00
O743   O     0.50000   0.10558   0.87154   0.00000  Uiso   1.00
O744   O     0.50000   0.22775   0.79513   0.00000  Uiso   1.00
O745   O     0.50000   0.10559   0.79510   0.00000  Uiso   1.00
O746   O     0.50000   0.22774   0.87157   0.00000  Uiso   1.00
O747   O     0.42392   0.16666   0.86261   0.00000  Uiso   1.00
O748   O     0.57608   0.16667   0.80405   0.00000  Uiso   1.00
O749   O     0.42392   0.16667   0.78617   0.00000  Uiso   1.00
O750   O     0.57608   0.16666   0.88050   0.00000  Uiso   1.00
Zn751  Zn    0.50000   0.16666   0.88437   0.00000  Uiso   1.00
Zn752  Zn    0.50000   0.16667   0.78229   0.00000  Uiso   1.00
F753   F     0.65466   0.16387   0.77093   0.00000  Uiso   1.00
F754   F     0.34535   0.16946   0.89573   0.00000  Uiso   1.00
F755   F     0.45245   0.29222   0.75625   0.00000  Uiso   1.00
F756   F     0.54755   0.04111   0.91042   0.00000  Uiso   1.00
F757   F     0.56396   0.21947   0.72142   0.00000  Uiso   1.00
F758   F     0.43604   0.11386   0.94525   0.00000  Uiso   1.00
F759   F     0.56413   0.21929   0.96149   0.00000  Uiso   1.00
F760   F     0.43587   0.11405   0.70517   0.00000  Uiso   1.00
C761   C     0.83375   0.08667   0.83346   0.00000  Uiso   1.00
C762   C     0.83291   0.24666   0.83321   0.00000  Uiso   1.00
C763   C     0.73386   0.16663   0.82149   0.00000  Uiso   1.00
C764   C     0.93280   0.16670   0.84517   0.00000  Uiso   1.00
C765   C     0.67919   0.16607   0.81503   0.00000  Uiso   1.00
C766   C     0.98747   0.16726   0.85163   0.00000  Uiso   1.00
C767   C     0.81051   0.02173   0.79441   0.00000  Uiso   1.00
C768   C     0.85616   0.31161   0.87226   0.00000  Uiso   1.00
C769   C     0.80982   0.31232   0.79404   0.00000  Uiso   1.00
C770   C     0.85685   0.02101   0.87263   0.00000  Uiso   1.00
C771   C     0.83279   0.29079   0.83305   0.00000  Uiso   1.00
C772   C     0.83387   0.04254   0.83361   0.00000  Uiso   1.00
C773   C     0.86531   0.19301   0.69470   0.00000  Uiso   1.00
C774   C     0.80136   0.14033   0.97197   0.00000  Uiso   1.00
C775   C     0.86532   0.19297   0.98009   0.00000  Uiso   1.00
C776   C     0.80134   0.14036   0.68658   0.00000  Uiso   1.00
H777   H     0.79217   0.03850   0.76444   0.00000  Uiso   1.00
H778   H     0.87450   0.29483   0.90222   0.00000  Uiso   1.00
N779   N     0.83332   0.16666   0.95240   0.00000  Uiso   1.00
N780   N     0.83335   0.16668   0.71427   0.00000  Uiso   1.00
O781   O     0.83333   0.10558   0.87154   0.00000  Uiso   1.00
O782   O     0.83334   0.22775   0.79513   0.00000  Uiso   1.00
O783   O     0.83333   0.10559   0.79510   0.00000  Uiso   1.00
O784   O     0.83334   0.22774   0.87157   0.00000  Uiso   1.00
O785   O     0.75725   0.16666   0.86261   0.00000  Uiso   1.00
O786   O     0.90942   0.16667   0.80405   0.00000  Uiso   1.00
O787   O     0.75725   0.16667   0.78617   0.00000  Uiso   1.00
O788   O     0.90942   0.16666   0.88050   0.00000  Uiso   1.00
Zn789  Zn    0.83333   0.16666   0.88437   0.00000  Uiso   1.00
Zn790  Zn    0.83333   0.16667   0.78229   0.00000  Uiso   1.00
F791   F     0.98799   0.16387   0.77093   0.00000  Uiso   1.00
F792   F     0.67868   0.16946   0.89573   0.00000  Uiso   1.00
F793   F     0.78578   0.29222   0.75625   0.00000  Uiso   1.00
F794   F     0.88088   0.04111   0.91042   0.00000  Uiso   1.00
F795   F     0.89729   0.21947   0.72142   0.00000  Uiso   1.00
F796   F     0.76937   0.11386   0.94525   0.00000  Uiso   1.00
F797   F     0.89746   0.21929   0.96149   0.00000  Uiso   1.00
F798   F     0.76921   0.11405   0.70517   0.00000  Uiso   1.00
C799   C     0.16709   0.42001   0.83346   0.00000  Uiso   1.00
C800   C     0.16625   0.57999   0.83321   0.00000  Uiso   1.00
C801   C     0.06720   0.49996   0.82149   0.00000  Uiso   1.00
C802   C     0.26614   0.50004   0.84517   0.00000  Uiso   1.00
C803   C     0.01253   0.49940   0.81503   0.00000  Uiso   1.00
C804   C     0.32081   0.50060   0.85163   0.00000  Uiso   1.00
C805   C     0.14384   0.35506   0.79441   0.00000  Uiso   1.00
C806   C     0.18949   0.64494   0.87226   0.00000  Uiso   1.00
C807   C     0.14315   0.64566   0.79404   0.00000  Uiso   1.00
C808   C     0.19018   0.35434   0.87263   0.00000  Uiso   1.00
C809   C     0.16613   0.62412   0.83305   0.00000  Uiso   1.00
C810   C     0.16721   0.37588   0.83361   0.00000  Uiso   1.00
C811   C     0.19864   0.52634   0.69470   0.00000  Uiso   1.00
C812   C     0.13469   0.47366   0.97197   0.00000  Uiso   1.00
C813   C     0.19866   0.52630   0.98009   0.00000  Uiso   1.00
C814   C     0.13468   0.47370   0.68658   0.00000  Uiso   1.00
H815   H     0.12551   0.37183   0.76444   0.00000  Uiso   1.00
H816   H     0.20783   0.62817   0.90222   0.00000  Uiso   1.00
N817   N     0.16665   0.49999   0.95240   0.00000  Uiso   1.00
N818   N     0.16668   0.50001   0.71427   0.00000  Uiso   1.00
O819   O     0.16666   0.43892   0.87154   0.00000  Uiso   1.00
O820   O     0.16667   0.56108   0.79513   0.00000  Uiso   1.00
O821   O     0.16666   0.43893   0.79510   0.00000  Uiso   1.00
O822   O     0.16667   0.56107   0.87157   0.00000  Uiso   1.00
O823   O     0.09058   0.50000   0.86261   0.00000  Uiso   1.00
O824   O     0.24275   0.50000   0.80405   0.00000  Uiso   1.00
O825   O     0.09058   0.50000   0.78617   0.00000  Uiso   1.00
O826   O     0.24275   0.50000   0.88050   0.00000  Uiso   1.00
Zn827  Zn    0.16667   0.49999   0.88437   0.00000  Uiso   1.00
Zn828  Zn    0.16667   0.50001   0.78229   0.00000  Uiso   1.00
F829   F     0.32132   0.49721   0.77093   0.00000  Uiso   1.00
F830   F     0.01201   0.50279   0.89573   0.00000  Uiso   1.00
F831   F     0.11912   0.62556   0.75625   0.00000  Uiso   1.00
F832   F     0.21422   0.37444   0.91042   0.00000  Uiso   1.00
F833   F     0.23063   0.55280   0.72142   0.00000  Uiso   1.00
F834   F     0.10271   0.44720   0.94525   0.00000  Uiso   1.00
F835   F     0.23079   0.55262   0.96149   0.00000  Uiso   1.00
F836   F     0.10254   0.44738   0.70517   0.00000  Uiso   1.00
C837   C     0.50042   0.42001   0.83346   0.00000  Uiso   1.00
C838   C     0.49958   0.57999   0.83321   0.00000  Uiso   1.00
C839   C     0.40053   0.49996   0.82149   0.00000  Uiso   1.00
C840   C     0.59947   0.50004   0.84517   0.00000  Uiso   1.00
C841   C     0.34586   0.49940   0.81503   0.00000  Uiso   1.00
C842   C     0.65414   0.50060   0.85163   0.00000  Uiso   1.00
C843   C     0.47717   0.35506   0.79441   0.00000  Uiso   1.00
C844   C     0.52283   0.64494   0.87226   0.00000  Uiso   1.00
C845   C     0.47649   0.64566   0.79404   0.00000  Uiso   1.00
C846   C     0.52351   0.35434   0.87263   0.00000  Uiso   1.00
C847   C     0.49946   0.62412   0.83305   0.00000  Uiso   1.00
C848   C     0.50054   0.37588   0.83361   0.00000  Uiso   1.00
C849   C     0.53197   0.52634   0.69470   0.00000  Uiso   1.00
C850   C     0.46803   0.47366   0.97197   0.00000  Uiso   1.00
C851   C     0.53199   0.52630   0.98009   0.00000  Uiso   1.00
C852   C     0.46801   0.47370   0.68658   0.00000  Uiso   1.00
H853   H     0.45884   0.37183   0.76444   0.00000  Uiso   1.00
H854   H     0.54116   0.62817   0.90222   0.00000  Uiso   1.00
N855   N     0.49999   0.49999   0.95240   0.00000  Uiso   1.00
N856   N     0.50001   0.50001   0.71427   0.00000  Uiso   1.00
O857   O     0.50000   0.43892   0.87154   0.00000  Uiso   1.00
O858   O     0.50000   0.56108   0.79513   0.00000  Uiso   1.00
O859   O     0.50000   0.43893   0.79510   0.00000  Uiso   1.00
O860   O     0.50000   0.56107   0.87157   0.00000  Uiso   1.00
O861   O     0.42392   0.50000   0.86261   0.00000  Uiso   1.00
O862   O     0.57608   0.50000   0.80405   0.00000  Uiso   1.00
O863   O     0.42392   0.50000   0.78617   0.00000  Uiso   1.00
O864   O     0.57608   0.50000   0.88050   0.00000  Uiso   1.00
Zn865  Zn    0.50000   0.49999   0.88437   0.00000  Uiso   1.00
Zn866  Zn    0.50000   0.50001   0.78229   0.00000  Uiso   1.00
F867   F     0.65466   0.49721   0.77093   0.00000  Uiso   1.00
F868   F     0.34535   0.50279   0.89573   0.00000  Uiso   1.00
F869   F     0.45245   0.62556   0.75625   0.00000  Uiso   1.00
F870   F     0.54755   0.37444   0.91042   0.00000  Uiso   1.00
F871   F     0.56396   0.55280   0.72142   0.00000  Uiso   1.00
F872   F     0.43604   0.44720   0.94525   0.00000  Uiso   1.00
F873   F     0.56413   0.55262   0.96149   0.00000  Uiso   1.00
F874   F     0.43587   0.44738   0.70517   0.00000  Uiso   1.00
C875   C     0.83375   0.42001   0.83346   0.00000  Uiso   1.00
C876   C     0.83291   0.57999   0.83321   0.00000  Uiso   1.00
C877   C     0.73386   0.49996   0.82149   0.00000  Uiso   1.00
C878   C     0.93280   0.50004   0.84517   0.00000  Uiso   1.00
C879   C     0.67919   0.49940   0.81503   0.00000  Uiso   1.00
C880   C     0.98747   0.50060   0.85163   0.00000  Uiso   1.00
C881   C     0.81051   0.35506   0.79441   0.00000  Uiso   1.00
C882   C     0.85616   0.64494   0.87226   0.00000  Uiso   1.00
C883   C     0.80982   0.64566   0.79404   0.00000  Uiso   1.00
C884   C     0.85685   0.35434   0.87263   0.00000  Uiso   1.00
C885   C     0.83279   0.62412   0.83305   0.00000  Uiso   1.00
C886   C     0.83387   0.37588   0.83361   0.00000  Uiso   1.00
C887   C     0.86531   0.52634   0.69470   0.00000  Uiso   1.00
C888   C     0.80136   0.47366   0.97197   0.00000  Uiso   1.00
C889   C     0.86532   0.52630   0.98009   0.00000  Uiso   1.00
C890   C     0.80134   0.47370   0.68658   0.00000  Uiso   1.00
H891   H     0.79217   0.37183   0.76444   0.00000  Uiso   1.00
H892   H     0.87450   0.62817   0.90222   0.00000  Uiso   1.00
N893   N     0.83332   0.49999   0.95240   0.00000  Uiso   1.00
N894   N     0.83335   0.50001   0.71427   0.00000  Uiso   1.00
O895   O     0.83333   0.43892   0.87154   0.00000  Uiso   1.00
O896   O     0.83334   0.56108   0.79513   0.00000  Uiso   1.00
O897   O     0.83333   0.43893   0.79510   0.00000  Uiso   1.00
O898   O     0.83334   0.56107   0.87157   0.00000  Uiso   1.00
O899   O     0.75725   0.50000   0.86261   0.00000  Uiso   1.00
O900   O     0.90942   0.50000   0.80405   0.00000  Uiso   1.00
O901   O     0.75725   0.50000   0.78617   0.00000  Uiso   1.00
O902   O     0.90942   0.50000   0.88050   0.00000  Uiso   1.00
Zn903  Zn    0.83333   0.49999   0.88437   0.00000  Uiso   1.00
Zn904  Zn    0.83333   0.50001   0.78229   0.00000  Uiso   1.00
F905   F     0.98799   0.49721   0.77093   0.00000  Uiso   1.00
F906   F     0.67868   0.50279   0.89573   0.00000  Uiso   1.00
F907   F     0.78578   0.62556   0.75625   0.00000  Uiso   1.00
F908   F     0.88088   0.37444   0.91042   0.00000  Uiso   1.00
F909   F     0.89729   0.55280   0.72142   0.00000  Uiso   1.00
F910   F     0.76937   0.44720   0.94525   0.00000  Uiso   1.00
F911   F     0.89746   0.55262   0.96149   0.00000  Uiso   1.00
F912   F     0.76921   0.44738   0.70517   0.00000  Uiso   1.00
C913   C     0.16709   0.75334   0.83346   0.00000  Uiso   1.00
C914   C     0.16625   0.91333   0.83321   0.00000  Uiso   1.00
C915   C     0.06720   0.83330   0.82149   0.00000  Uiso   1.00
C916   C     0.26614   0.83337   0.84517   0.00000  Uiso   1.00
C917   C     0.01253   0.83274   0.81503   0.00000  Uiso   1.00
C918   C     0.32081   0.83393   0.85163   0.00000  Uiso   1.00
C919   C     0.14384   0.68839   0.79441   0.00000  Uiso   1.00
C920   C     0.18949   0.97828   0.87226   0.00000  Uiso   1.00
C921   C     0.14315   0.97899   0.79404   0.00000  Uiso   1.00
C922   C     0.19018   0.68768   0.87263   0.00000  Uiso   1.00
C923   C     0.16613   0.95746   0.83305   0.00000  Uiso   1.00
C924   C     0.16721   0.70921   0.83361   0.00000  Uiso   1.00
C925   C     0.19864   0.85967   0.69470   0.00000  Uiso   1.00
C926   C     0.13469   0.80699   0.97197   0.00000  Uiso   1.00
C927   C     0.19866   0.85964   0.98009   0.00000  Uiso   1.00
C928   C     0.13468   0.80703   0.68658   0.00000  Uiso   1.00
H929   H     0.12551   0.70517   0.76444   0.00000  Uiso   1.00
H930   H     0.20783   0.96150   0.90222   0.00000  Uiso   1.00
N931   N     0.16665   0.83332   0.95240   0.00000  Uiso   1.00
N932   N     0.16668   0.83334   0.71427   0.00000  Uiso   1.00
O933   O     0.16666   0.77225   0.87154   0.00000  Uiso   1.00
O934   O     0.16667   0.89442   0.79513   0.00000  Uiso   1.00
O935   O     0.16666   0.77226   0.79510   0.00000  Uiso   1.00
O936   O     0.16667   0.89441   0.87157   0.00000  Uiso   1.00
O937   O     0.09058   0.83333   0.86261   0.00000  Uiso   1.00
O938   O     0.24275   0.83334   0.80405   0.00000  Uiso   1.00
O939   O     0.09058   0.83334   0.78617   0.00000  Uiso   1.00
O940   O     0.24275   0.83333   0.88050   0.00000  Uiso   1.00
Zn941  Zn    0.16667   0.83333   0.88437   0.00000  Uiso   1.00
Zn942  Zn    0.16667   0.83334   0.78229   0.00000  Uiso   1.00
F943   F     0.32132   0.83054   0.77093   0.00000  Uiso   1.00
F944   F     0.01201   0.83613   0.89573   0.00000  Uiso   1.00
F945   F     0.11912   0.95889   0.75625   0.00000  Uiso   1.00
F946   F     0.21422   0.70778   0.91042   0.00000  Uiso   1.00
F947   F     0.23063   0.88614   0.72142   0.00000  Uiso   1.00
F948   F     0.10271   0.78053   0.94525   0.00000  Uiso   1.00
F949   F     0.23079   0.88595   0.96149   0.00000  Uiso   1.00
F950   F     0.10254   0.78071   0.70517   0.00000  Uiso   1.00
C951   C     0.50042   0.75334   0.83346   0.00000  Uiso   1.00
C952   C     0.49958   0.91333   0.83321   0.00000  Uiso   1.00
C953   C     0.40053   0.83330   0.82149   0.00000  Uiso   1.00
C954   C     0.59947   0.83337   0.84517   0.00000  Uiso   1.00
C955   C     0.34586   0.83274   0.81503   0.00000  Uiso   1.00
C956   C     0.65414   0.83393   0.85163   0.00000  Uiso   1.00
C957   C     0.47717   0.68839   0.79441   0.00000  Uiso   1.00
C958   C     0.52283   0.97828   0.87226   0.00000  Uiso   1.00
C959   C     0.47649   0.97899   0.79404   0.00000  Uiso   1.00
C960   C     0.52351   0.68768   0.87263   0.00000  Uiso   1.00
C961   C     0.49946   0.95746   0.83305   0.00000  Uiso   1.00
C962   C     0.50054   0.70921   0.83361   0.00000  Uiso   1.00
C963   C     0.53197   0.85967   0.69470   0.00000  Uiso   1.00
C964   C     0.46803   0.80699   0.97197   0.00000  Uiso   1.00
C965   C     0.53199   0.85964   0.98009   0.00000  Uiso   1.00
C966   C     0.46801   0.80703   0.68658   0.00000  Uiso   1.00
H967   H     0.45884   0.70517   0.76444   0.00000  Uiso   1.00
H968   H     0.54116   0.96150   0.90222   0.00000  Uiso   1.00
N969   N     0.49999   0.83332   0.95240   0.00000  Uiso   1.00
N970   N     0.50001   0.83334   0.71427   0.00000  Uiso   1.00
O971   O     0.50000   0.77225   0.87154   0.00000  Uiso   1.00
O972   O     0.50000   0.89442   0.79513   0.00000  Uiso   1.00
O973   O     0.50000   0.77226   0.79510   0.00000  Uiso   1.00
O974   O     0.50000   0.89441   0.87157   0.00000  Uiso   1.00
O975   O     0.42392   0.83333   0.86261   0.00000  Uiso   1.00
O976   O     0.57608   0.83334   0.80405   0.00000  Uiso   1.00
O977   O     0.42392   0.83334   0.78617   0.00000  Uiso   1.00
O978   O     0.57608   0.83333   0.88050   0.00000  Uiso   1.00
Zn979  Zn    0.50000   0.83333   0.88437   0.00000  Uiso   1.00
Zn980  Zn    0.50000   0.83334   0.78229   0.00000  Uiso   1.00
F981   F     0.65466   0.83054   0.77093   0.00000  Uiso   1.00
F982   F     0.34535   0.83613   0.89573   0.00000  Uiso   1.00
F983   F     0.45245   0.95889   0.75625   0.00000  Uiso   1.00
F984   F     0.54755   0.70778   0.91042   0.00000  Uiso   1.00
F985   F     0.56396   0.88614   0.72142   0.00000  Uiso   1.00
F986   F     0.43604   0.78053   0.94525   0.00000  Uiso   1.00
F987   F     0.56413   0.88595   0.96149   0.00000  Uiso   1.00
F988   F     0.43587   0.78071   0.70517   0.00000  Uiso   1.00
C989   C     0.83375   0.75334   0.83346   0.00000  Uiso   1.00
C990   C     0.83291   0.91333   0.83321   0.00000  Uiso   1.00
C991   C     0.73386   0.83330   0.82149   0.00000  Uiso   1.00
C992   C     0.93280   0.83337   0.84517   0.00000  Uiso   1.00
C993   C     0.67919   0.83274   0.81503   0.00000  Uiso   1.00
C994   C     0.98747   0.83393   0.85163   0.00000  Uiso   1.00
C995   C     0.81051   0.68839   0.79441   0.00000  Uiso   1.00
C996   C     0.85616   0.97828   0.87226   0.00000  Uiso   1.00
C997   C     0.80982   0.97899   0.79404   0.00000  Uiso   1.00
C998   C     0.85685   0.68768   0.87263   0.00000  Uiso   1.00
C999   C     0.83279   0.95746   0.83305   0.00000  Uiso   1.00
C1000  C     0.83387   0.70921   0.83361   0.00000  Uiso   1.00
C1001  C     0.86531   0.85967   0.69470   0.00000  Uiso   1.00
C1002  C     0.80136   0.80699   0.97197   0.00000  Uiso   1.00
C1003  C     0.86532   0.85964   0.98009   0.00000  Uiso   1.00
C1004  C     0.80134   0.80703   0.68658   0.00000  Uiso   1.00
H1005  H     0.79217   0.70517   0.76444   0.00000  Uiso   1.00
H1006  H     0.87450   0.96150   0.90222   0.00000  Uiso   1.00
N1007  N     0.83332   0.83332   0.95240   0.00000  Uiso   1.00
N1008  N     0.83335   0.83334   0.71427   0.00000  Uiso   1.00
O1009  O     0.83333   0.77225   0.87154   0.00000  Uiso   1.00
O1010  O     0.83334   0.89442   0.79513   0.00000  Uiso   1.00
O1011  O     0.83333   0.77226   0.79510   0.00000  Uiso   1.00
O1012  O     0.83334   0.89441   0.87157   0.00000  Uiso   1.00
O1013  O     0.75725   0.83333   0.86261   0.00000  Uiso   1.00
O1014  O     0.90942   0.83334   0.80405   0.00000  Uiso   1.00
O1015  O     0.75725   0.83334   0.78617   0.00000  Uiso   1.00
O1016  O     0.90942   0.83333   0.88050   0.00000  Uiso   1.00
Zn1017 Zn    0.83333   0.83333   0.88437   0.00000  Uiso   1.00
Zn1018 Zn    0.83333   0.83334   0.78229   0.00000  Uiso   1.00
F1019  F     0.98799   0.83054   0.77093   0.00000  Uiso   1.00
F1020  F     0.67868   0.83613   0.89573   0.00000  Uiso   1.00
F1021  F     0.78578   0.95889   0.75625   0.00000  Uiso   1.00
F1022  F     0.88088   0.70778   0.91042   0.00000  Uiso   1.00
F1023  F     0.89729   0.88614   0.72142   0.00000  Uiso   1.00
F1024  F     0.76937   0.78053   0.94525   0.00000  Uiso   1.00
F1025  F     0.89746   0.88595   0.96149   0.00000  Uiso   1.00
F1026  F     0.76921   0.78071   0.70517   0.00000  Uiso   1.00
loop_
_geom_bond_atom_site_label_1
_geom_bond_atom_site_label_2
_geom_bond_distance
_geom_bond_site_symmetry_2
_ccdc_geom_bond_type
C1     O21     1.282   .     A
C1     C12     1.416   .     S
C1     O23     1.283   .     A
C2     O22     1.282   .     A
C2     C11     1.416   .     S
C2     O24     1.283   .     A
C3     O27     1.283   .     A
C3     O25     1.275   .     A
C3     C5      1.403   .     S
C4     O26     1.275   .     A
C4     O28     1.283   .     A
C4     C6      1.403   .     S
C5     C82     1.343   1_455 S
C5     F107    1.365   1_455 S
C6     C43     1.343   .     S
C6     F70     1.365   .     S
C7     C12     1.396   .     A
C7     H17     1.084   .     S
C7     C237    1.371   1_545 S
C8     C11     1.396   .     A
C8     H18     1.084   .     S
C8     C124    1.371   .     S
C9     C11     1.399   .     A
C9     F33     1.359   .     S
C9     C121    1.371   .     S
C10    F34     1.359   .     S
C10    C12     1.399   .     A
C10    C236    1.371   1_545 S
C13    N20     1.367   .     A
C13    F35     1.355   .     S
C13    C699    1.417   1_554 S
C14    F36     1.355   .     S
C14    N19     1.367   .     A
C14    C358    1.417   .     S
C15    N19     1.367   .     A
C15    F37     1.355   .     S
C15    C355    1.417   .     S
C16    N20     1.367   .     A
C16    F38     1.355   .     S
C16    C698    1.417   1_554 S
N19    Zn29    2.010   .     S
N20    Zn30    2.010   .     S
O21    Zn29    1.997   .     S
O22    Zn30    1.997   .     S
O23    Zn30    1.995   .     S
O24    Zn29    1.995   .     S
O25    Zn29    1.984   .     S
O26    Zn30    1.984   .     S
O27    Zn30    1.994   .     S
O28    Zn29    1.994   .     S
F31    C43     1.365   .     S
F32    C82     1.365   1_455 S
C39    O59     1.282   .     A
C39    C50     1.416   .     S
C39    O61     1.283   .     A
C40    O60     1.282   .     A
C40    C49     1.416   .     S
C40    O62     1.283   .     A
C41    O65     1.283   .     A
C41    O63     1.275   .     A
C41    C43     1.403   .     S
C42    O64     1.275   .     A
C42    O66     1.283   .     A
C42    C44     1.403   .     S
C44    C81     1.343   .     S
C44    F108    1.365   .     S
C45    C50     1.396   .     A
C45    H55     1.084   .     S
C45    C275    1.371   1_545 S
C46    C49     1.396   .     A
C46    H56     1.084   .     S
C46    C162    1.371   .     S
C47    C49     1.399   .     A
C47    F71     1.359   .     S
C47    C159    1.371   .     S
C48    F72     1.359   .     S
C48    C50     1.399   .     A
C48    C274    1.371   1_545 S
C51    N58     1.367   .     A
C51    F73     1.355   .     S
C51    C737    1.417   1_554 S
C52    F74     1.355   .     S
C52    N57     1.367   .     A
C52    C396    1.417   .     S
C53    N57     1.367   .     A
C53    F75     1.355   .     S
C53    C393    1.417   .     S
C54    N58     1.367   .     A
C54    F76     1.355   .     S
C54    C736    1.417   1_554 S
N57    Zn67    2.010   .     S
N58    Zn68    2.010   .     S
O59    Zn67    1.997   .     S
O60    Zn68    1.997   .     S
O61    Zn68    1.995   .     S
O62    Zn67    1.995   .     S
O63    Zn67    1.984   .     S
O64    Zn68    1.984   .     S
O65    Zn68    1.994   .     S
O66    Zn67    1.994   .     S
F69    C81     1.365   .     S
C77    O97     1.282   .     A
C77    C88     1.416   .     S
C77    O99     1.283   .     A
C78    O98     1.282   .     A
C78    C87     1.416   .     S
C78    O100    1.283   .     A
C79    O103    1.283   .     A
C79    O101    1.275   .     A
C79    C81     1.403   .     S
C80    O102    1.275   .     A
C80    O104    1.283   .     A
C80    C82     1.403   .     S
C82    C5      1.343   1_655 S
C82    F32     1.365   1_655 S
C83    C88     1.396   .     A
C83    H93     1.084   .     S
C83    C313    1.371   1_545 S
C84    C87     1.396   .     A
C84    H94     1.084   .     S
C84    C200    1.371   .     S
C85    C87     1.399   .     A
C85    F109    1.359   .     S
C85    C197    1.371   .     S
C86    F110    1.359   .     S
C86    C88     1.399   .     A
C86    C312    1.371   1_545 S
C89    N96     1.367   .     A
C89    F111    1.355   .     S
C89    C775    1.417   1_554 S
C90    F112    1.355   .     S
C90    N95     1.367   .     A
C90    C434    1.417   .     S
C91    N95     1.367   .     A
C91    F113    1.355   .     S
C91    C431    1.417   .     S
C92    N96     1.367   .     A
C92    F114    1.355   .     S
C92    C774    1.417   1_554 S
N95    Zn105   2.010   .     S
N96    Zn106   2.010   .     S
O97    Zn105   1.997   .     S
O98    Zn106   1.997   .     S
O99    Zn106   1.995   .     S
O100   Zn105   1.995   .     S
O101   Zn105   1.984   .     S
O102   Zn106   1.984   .     S
O103   Zn106   1.994   .     S
O104   Zn105   1.994   .     S
F107   C5      1.365   1_655 S
C115   O135    1.282   .     A
C115   C126    1.416   .     S
C115   O137    1.283   .     A
C116   O136    1.282   .     A
C116   C125    1.416   .     S
C116   O138    1.283   .     A
C117   O141    1.283   .     A
C117   O139    1.275   .     A
C117   C119    1.403   .     S
C118   O140    1.275   .     A
C118   O142    1.283   .     A
C118   C120    1.403   .     S
C119   C196    1.343   1_455 S
C119   F221    1.365   1_455 S
C120   C157    1.343   .     S
C120   F184    1.365   .     S
C121   C126    1.396   .     A
C121   H131    1.084   .     S
C122   C125    1.396   .     A
C122   H132    1.084   .     S
C122   C238    1.371   .     S
C123   C125    1.399   .     A
C123   F147    1.359   .     S
C123   C235    1.371   .     S
C124   F148    1.359   .     S
C124   C126    1.399   .     A
C127   N134    1.367   .     A
C127   F149    1.355   .     S
C127   C813    1.417   1_554 S
C128   F150    1.355   .     S
C128   N133    1.367   .     A
C128   C472    1.417   .     S
C129   N133    1.367   .     A
C129   F151    1.355   .     S
C129   C469    1.417   .     S
C130   N134    1.367   .     A
C130   F152    1.355   .     S
C130   C812    1.417   1_554 S
N133   Zn143   2.010   .     S
N134   Zn144   2.010   .     S
O135   Zn143   1.997   .     S
O136   Zn144   1.997   .     S
O137   Zn144   1.995   .     S
O138   Zn143   1.995   .     S
O139   Zn143   1.984   .     S
O140   Zn144   1.984   .     S
O141   Zn144   1.994   .     S
O142   Zn143   1.994   .     S
F145   C157    1.365   .     S
F146   C196    1.365   1_455 S
C153   O173    1.282   .     A
C153   C164    1.416   .     S
C153   O175    1.283   .     A
C154   O174    1.282   .     A
C154   C163    1.416   .     S
C154   O176    1.283   .     A
C155   O179    1.283   .     A
C155   O177    1.275   .     A
C155   C157    1.403   .     S
C156   O178    1.275   .     A
C156   O180    1.283   .     A
C156   C158    1.403   .     S
C158   C195    1.343   .     S
C158   F222    1.365   .     S
C159   C164    1.396   .     A
C159   H169    1.084   .     S
C160   C163    1.396   .     A
C160   H170    1.084   .     S
C160   C276    1.371   .     S
C161   C163    1.399   .     A
C161   F185    1.359   .     S
C161   C273    1.371   .     S
C162   F186    1.359   .     S
C162   C164    1.399   .     A
C165   N172    1.367   .     A
C165   F187    1.355   .     S
C165   C851    1.417   1_554 S
C166   F188    1.355   .     S
C166   N171    1.367   .     A
C166   C510    1.417   .     S
C167   N171    1.367   .     A
C167   F189    1.355   .     S
C167   C507    1.417   .     S
C168   N172    1.367   .     A
C168   F190    1.355   .     S
C168   C850    1.417   1_554 S
N171   Zn181   2.010   .     S
N172   Zn182   2.010   .     S
O173   Zn181   1.997   .     S
O174   Zn182   1.997   .     S
O175   Zn182   1.995   .     S
O176   Zn181   1.995   .     S
O177   Zn181   1.984   .     S
O178   Zn182   1.984   .     S
O179   Zn182   1.994   .     S
O180   Zn181   1.994   .     S
F183   C195    1.365   .     S
C191   O211    1.282   .     A
C191   C202    1.416   .     S
C191   O213    1.283   .     A
C192   O212    1.282   .     A
C192   C201    1.416   .     S
C192   O214    1.283   .     A
C193   O217    1.283   .     A
C193   O215    1.275   .     A
C193   C195    1.403   .     S
C194   O216    1.275   .     A
C194   O218    1.283   .     A
C194   C196    1.403   .     S
C196   C119    1.343   1_655 S
C196   F146    1.365   1_655 S
C197   C202    1.396   .     A
C197   H207    1.084   .     S
C198   C201    1.396   .     A
C198   H208    1.084   .     S
C198   C314    1.371   .     S
C199   C201    1.399   .     A
C199   F223    1.359   .     S
C199   C311    1.371   .     S
C200   F224    1.359   .     S
C200   C202    1.399   .     A
C203   N210    1.367   .     A
C203   F225    1.355   .     S
C203   C889    1.417   1_554 S
C204   F226    1.355   .     S
C204   N209    1.367   .     A
C204   C548    1.417   .     S
C205   N209    1.367   .     A
C205   F227    1.355   .     S
C205   C545    1.417   .     S
C206   N210    1.367   .     A
C206   F228    1.355   .     S
C206   C888    1.417   1_554 S
N209   Zn219   2.010   .     S
N210   Zn220   2.010   .     S
O211   Zn219   1.997   .     S
O212   Zn220   1.997   .     S
O213   Zn220   1.995   .     S
O214   Zn219   1.995   .     S
O215   Zn219   1.984   .     S
O216   Zn220   1.984   .     S
O217   Zn220   1.994   .     S
O218   Zn219   1.994   .     S
F221   C119    1.365   1_655 S
C229   O249    1.282   .     A
C229   C240    1.416   .     S
C229   O251    1.283   .     A
C230   O250    1.282   .     A
C230   C239    1.416   .     S
C230   O252    1.283   .     A
C231   O255    1.283   .     A
C231   O253    1.275   .     A
C231   C233    1.403   .     S
C232   O254    1.275   .     A
C232   O256    1.283   .     A
C232   C234    1.403   .     S
C233   C310    1.343   1_455 S
C233   F335    1.365   1_455 S
C234   C271    1.343   .     S
C234   F298    1.365   .     S
C235   C240    1.396   .     A
C235   H245    1.084   .     S
C236   C239    1.396   .     A
C236   H246    1.084   .     S
C236   C10     1.371   1_565 S
C237   C239    1.399   .     A
C237   F261    1.359   .     S
C237   C7      1.371   1_565 S
C238   F262    1.359   .     S
C238   C240    1.399   .     A
C241   N248    1.367   .     A
C241   F263    1.355   .     S
C241   C927    1.417   1_554 S
C242   F264    1.355   .     S
C242   N247    1.367   .     A
C242   C586    1.417   .     S
C243   N247    1.367   .     A
C243   F265    1.355   .     S
C243   C583    1.417   .     S
C244   N248    1.367   .     A
C244   F266    1.355   .     S
C244   C926    1.417   1_554 S
N247   Zn257   2.010   .     S
N248   Zn258   2.010   .     S
O249   Zn257   1.997   .     S
O250   Zn258   1.997   .     S
O251   Zn258   1.995   .     S
O252   Zn257   1.995   .     S
O253   Zn257   1.984   .     S
O254   Zn258   1.984   .     S
O255   Zn258   1.994   .     S
O256   Zn257   1.994   .     S
F259   C271    1.365   .     S
F260   C310    1.365   1_455 S
C267   O287    1.282   .     A
C267   C278    1.416   .     S
C267   O289    1.283   .     A
C268   O288    1.282   .     A
C268   C277    1.416   .     S
C268   O290    1.283   .     A
C269   O293    1.283   .     A
C269   O291    1.275   .     A
C269   C271    1.403   .     S
C270   O292    1.275   .     A
C270   O294    1.283   .     A
C270   C272    1.403   .     S
C272   C309    1.343   .     S
C272   F336    1.365   .     S
C273   C278    1.396   .     A
C273   H283    1.084   .     S
C274   C277    1.396   .     A
C274   H284    1.084   .     S
C274   C48     1.371   1_565 S
C275   C277    1.399   .     A
C275   F299    1.359   .     S
C275   C45     1.371   1_565 S
C276   F300    1.359   .     S
C276   C278    1.399   .     A
C279   N286    1.367   .     A
C279   F301    1.355   .     S
C279   C965    1.417   1_554 S
C280   F302    1.355   .     S
C280   N285    1.367   .     A
C280   C624    1.417   .     S
C281   N285    1.367   .     A
C281   F303    1.355   .     S
C281   C621    1.417   .     S
C282   N286    1.367   .     A
C282   F304    1.355   .     S
C282   C964    1.417   1_554 S
N285   Zn295   2.010   .     S
N286   Zn296   2.010   .     S
O287   Zn295   1.997   .     S
O288   Zn296   1.997   .     S
O289   Zn296   1.995   .     S
O290   Zn295   1.995   .     S
O291   Zn295   1.984   .     S
O292   Zn296   1.984   .     S
O293   Zn296   1.994   .     S
O294   Zn295   1.994   .     S
F297   C309    1.365   .     S
C305   O325    1.282   .     A
C305   C316    1.416   .     S
C305   O327    1.283   .     A
C306   O326    1.282   .     A
C306   C315    1.416   .     S
C306   O328    1.283   .     A
C307   O331    1.283   .     A
C307   O329    1.275   .     A
C307   C309    1.403   .     S
C308   O330    1.275   .     A
C308   O332    1.283   .     A
C308   C310    1.403   .     S
C310   C233    1.343   1_655 S
C310   F260    1.365   1_655 S
C311   C316    1.396   .     A
C311   H321    1.084   .     S
C312   C315    1.396   .     A
C312   H322    1.084   .     S
C312   C86     1.371   1_565 S
C313   C315    1.399   .     A
C313   F337    1.359   .     S
C313   C83     1.371   1_565 S
C314   F338    1.359   .     S
C314   C316    1.399   .     A
C317   N324    1.367   .     A
C317   F339    1.355   .     S
C317   C1003   1.417   1_554 S
C318   F340    1.355   .     S
C318   N323    1.367   .     A
C318   C662    1.417   .     S
C319   N323    1.367   .     A
C319   F341    1.355   .     S
C319   C659    1.417   .     S
C320   N324    1.367   .     A
C320   F342    1.355   .     S
C320   C1002   1.417   1_554 S
N323   Zn333   2.010   .     S
N324   Zn334   2.010   .     S
O325   Zn333   1.997   .     S
O326   Zn334   1.997   .     S
O327   Zn334   1.995   .     S
O328   Zn333   1.995   .     S
O329   Zn333   1.984   .     S
O330   Zn334   1.984   .     S
O331   Zn334   1.994   .     S
O332   Zn333   1.994   .     S
F335   C233    1.365   1_655 S
C343   O363    1.282   .     A
C343   C354    1.416   .     S
C343   O365    1.283   .     A
C344   O364    1.282   .     A
C344   C353    1.416   .     S
C344   O366    1.283   .     A
C345   O369    1.283   .     A
C345   O367    1.275   .     A
C345   C347    1.403   .     S
C346   O368    1.275   .     A
C346   O370    1.283   .     A
C346   C348    1.403   .     S
C347   C424    1.343   1_455 S
C347   F449    1.365   1_455 S
C348   C385    1.343   .     S
C348   F412    1.365   .     S
C349   C354    1.396   .     A
C349   H359    1.084   .     S
C349   C579    1.371   1_545 S
C350   C353    1.396   .     A
C350   H360    1.084   .     S
C350   C466    1.371   .     S
C351   C353    1.399   .     A
C351   F375    1.359   .     S
C351   C463    1.371   .     S
C352   F376    1.359   .     S
C352   C354    1.399   .     A
C352   C578    1.371   1_545 S
C355   N362    1.367   .     A
C355   F377    1.355   .     S
C356   F378    1.355   .     S
C356   N361    1.367   .     A
C356   C700    1.417   .     S
C357   N361    1.367   .     A
C357   F379    1.355   .     S
C357   C697    1.417   .     S
C358   N362    1.367   .     A
C358   F380    1.355   .     S
N361   Zn371   2.010   .     S
N362   Zn372   2.010   .     S
O363   Zn371   1.997   .     S
O364   Zn372   1.997   .     S
O365   Zn372   1.995   .     S
O366   Zn371   1.995   .     S
O367   Zn371   1.984   .     S
O368   Zn372   1.984   .     S
O369   Zn372   1.994   .     S
O370   Zn371   1.994   .     S
F373   C385    1.365   .     S
F374   C424    1.365   1_455 S
C381   O401    1.282   .     A
C381   C392    1.416   .     S
C381   O403    1.283   .     A
C382   O402    1.282   .     A
C382   C391    1.416   .     S
C382   O404    1.283   .     A
C383   O407    1.283   .     A
C383   O405    1.275   .     A
C383   C385    1.403   .     S
C384   O406    1.275   .     A
C384   O408    1.283   .     A
C384   C386    1.403   .     S
C386   C423    1.343   .     S
C386   F450    1.365   .     S
C387   C392    1.396   .     A
C387   H397    1.084   .     S
C387   C617    1.371   1_545 S
C388   C391    1.396   .     A
C388   H398    1.084   .     S
C388   C504    1.371   .     S
C389   C391    1.399   .     A
C389   F413    1.359   .     S
C389   C501    1.371   .     S
C390   F414    1.359   .     S
C390   C392    1.399   .     A
C390   C616    1.371   1_545 S
C393   N400    1.367   .     A
C393   F415    1.355   .     S
C394   F416    1.355   .     S
C394   N399    1.367   .     A
C394   C738    1.417   .     S
C395   N399    1.367   .     A
C395   F417    1.355   .     S
C395   C735    1.417   .     S
C396   N400    1.367   .     A
C396   F418    1.355   .     S
N399   Zn409   2.010   .     S
N400   Zn410   2.010   .     S
O401   Zn409   1.997   .     S
O402   Zn410   1.997   .     S
O403   Zn410   1.995   .     S
O404   Zn409   1.995   .     S
O405   Zn409   1.984   .     S
O406   Zn410   1.984   .     S
O407   Zn410   1.994   .     S
O408   Zn409   1.994   .     S
F411   C423    1.365   .     S
C419   O439    1.282   .     A
C419   C430    1.416   .     S
C419   O441    1.283   .     A
C420   O440    1.282   .     A
C420   C429    1.416   .     S
C420   O442    1.283   .     A
C421   O445    1.283   .     A
C421   O443    1.275   .     A
C421   C423    1.403   .     S
C422   O444    1.275   .     A
C422   O446    1.283   .     A
C422   C424    1.403   .     S
C424   C347    1.343   1_655 S
C424   F374    1.365   1_655 S
C425   C430    1.396   .     A
C425   H435    1.084   .     S
C425   C655    1.371   1_545 S
C426   C429    1.396   .     A
C426   H436    1.084   .     S
C426   C542    1.371   .     S
C427   C429    1.399   .     A
C427   F451    1.359   .     S
C427   C539    1.371   .     S
C428   F452    1.359   .     S
C428   C430    1.399   .     A
C428   C654    1.371   1_545 S
C431   N438    1.367   .     A
C431   F453    1.355   .     S
C432   F454    1.355   .     S
C432   N437    1.367   .     A
C432   C776    1.417   .     S
C433   N437    1.367   .     A
C433   F455    1.355   .     S
C433   C773    1.417   .     S
C434   N438    1.367   .     A
C434   F456    1.355   .     S
N437   Zn447   2.010   .     S
N438   Zn448   2.010   .     S
O439   Zn447   1.997   .     S
O440   Zn448   1.997   .     S
O441   Zn448   1.995   .     S
O442   Zn447   1.995   .     S
O443   Zn447   1.984   .     S
O444   Zn448   1.984   .     S
O445   Zn448   1.994   .     S
O446   Zn447   1.994   .     S
F449   C347    1.365   1_655 S
C457   O477    1.282   .     A
C457   C468    1.416   .     S
C457   O479    1.283   .     A
C458   O478    1.282   .     A
C458   C467    1.416   .     S
C458   O480    1.283   .     A
C459   O483    1.283   .     A
C459   O481    1.275   .     A
C459   C461    1.403   .     S
C460   O482    1.275   .     A
C460   O484    1.283   .     A
C460   C462    1.403   .     S
C461   C538    1.343   1_455 S
C461   F563    1.365   1_455 S
C462   C499    1.343   .     S
C462   F526    1.365   .     S
C463   C468    1.396   .     A
C463   H473    1.084   .     S
C464   C467    1.396   .     A
C464   H474    1.084   .     S
C464   C580    1.371   .     S
C465   C467    1.399   .     A
C465   F489    1.359   .     S
C465   C577    1.371   .     S
C466   F490    1.359   .     S
C466   C468    1.399   .     A
C469   N476    1.367   .     A
C469   F491    1.355   .     S
C470   F492    1.355   .     S
C470   N475    1.367   .     A
C470   C814    1.417   .     S
C471   N475    1.367   .     A
C471   F493    1.355   .     S
C471   C811    1.417   .     S
C472   N476    1.367   .     A
C472   F494    1.355   .     S
N475   Zn485   2.010   .     S
N476   Zn486   2.010   .     S
O477   Zn485   1.997   .     S
O478   Zn486   1.997   .     S
O479   Zn486   1.995   .     S
O480   Zn485   1.995   .     S
O481   Zn485   1.984   .     S
O482   Zn486   1.984   .     S
O483   Zn486   1.994   .     S
O484   Zn485   1.994   .     S
F487   C499    1.365   .     S
F488   C538    1.365   1_455 S
C495   O515    1.282   .     A
C495   C506    1.416   .     S
C495   O517    1.283   .     A
C496   O516    1.282   .     A
C496   C505    1.416   .     S
C496   O518    1.283   .     A
C497   O521    1.283   .     A
C497   O519    1.275   .     A
C497   C499    1.403   .     S
C498   O520    1.275   .     A
C498   O522    1.283   .     A
C498   C500    1.403   .     S
C500   C537    1.343   .     S
C500   F564    1.365   .     S
C501   C506    1.396   .     A
C501   H511    1.084   .     S
C502   C505    1.396   .     A
C502   H512    1.084   .     S
C502   C618    1.371   .     S
C503   C505    1.399   .     A
C503   F527    1.359   .     S
C503   C615    1.371   .     S
C504   F528    1.359   .     S
C504   C506    1.399   .     A
C507   N514    1.367   .     A
C507   F529    1.355   .     S
C508   F530    1.355   .     S
C508   N513    1.367   .     A
C508   C852    1.417   .     S
C509   N513    1.367   .     A
C509   F531    1.355   .     S
C509   C849    1.417   .     S
C510   N514    1.367   .     A
C510   F532    1.355   .     S
N513   Zn523   2.010   .     S
N514   Zn524   2.010   .     S
O515   Zn523   1.997   .     S
O516   Zn524   1.997   .     S
O517   Zn524   1.995   .     S
O518   Zn523   1.995   .     S
O519   Zn523   1.984   .     S
O520   Zn524   1.984   .     S
O521   Zn524   1.994   .     S
O522   Zn523   1.994   .     S
F525   C537    1.365   .     S
C533   O553    1.282   .     A
C533   C544    1.416   .     S
C533   O555    1.283   .     A
C534   O554    1.282   .     A
C534   C543    1.416   .     S
C534   O556    1.283   .     A
C535   O559    1.283   .     A
C535   O557    1.275   .     A
C535   C537    1.403   .     S
C536   O558    1.275   .     A
C536   O560    1.283   .     A
C536   C538    1.403   .     S
C538   C461    1.343   1_655 S
C538   F488    1.365   1_655 S
C539   C544    1.396   .     A
C539   H549    1.084   .     S
C540   C543    1.396   .     A
C540   H550    1.084   .     S
C540   C656    1.371   .     S
C541   C543    1.399   .     A
C541   F565    1.359   .     S
C541   C653    1.371   .     S
C542   F566    1.359   .     S
C542   C544    1.399   .     A
C545   N552    1.367   .     A
C545   F567    1.355   .     S
C546   F568    1.355   .     S
C546   N551    1.367   .     A
C546   C890    1.417   .     S
C547   N551    1.367   .     A
C547   F569    1.355   .     S
C547   C887    1.417   .     S
C548   N552    1.367   .     A
C548   F570    1.355   .     S
N551   Zn561   2.010   .     S
N552   Zn562   2.010   .     S
O553   Zn561   1.997   .     S
O554   Zn562   1.997   .     S
O555   Zn562   1.995   .     S
O556   Zn561   1.995   .     S
O557   Zn561   1.984   .     S
O558   Zn562   1.984   .     S
O559   Zn562   1.994   .     S
O560   Zn561   1.994   .     S
F563   C461    1.365   1_655 S
C571   O591    1.282   .     A
C571   C582    1.416   .     S
C571   O593    1.283   .     A
C572   O592    1.282   .     A
C572   C581    1.416   .     S
C572   O594    1.283   .     A
C573   O597    1.283   .     A
C573   O595    1.275   .     A
C573   C575    1.403   .     S
C574   O596    1.275   .     A
C574   O598    1.283   .     A
C574   C576    1.403   .     S
C575   C652    1.343   1_455 S
C575   F677    1.365   1_455 S
C576   C613    1.343   .     S
C576   F640    1.365   .     S
C577   C582    1.396   .     A
C577   H587    1.084   .     S
C578   C581    1.396   .     A
C578   H588    1.084   .     S
C578   C352    1.371   1_565 S
C579   C581    1.399   .     A
C579   F603    1.359   .     S
C579   C349    1.371   1_565 S
C580   F604    1.359   .     S
C580   C582    1.399   .     A
C583   N590    1.367   .     A
C583   F605    1.355   .     S
C584   F606    1.355   .     S
C584   N589    1.367   .     A
C584   C928    1.417   .     S
C585   N589    1.367   .     A
C585   F607    1.355   .     S
C585   C925    1.417   .     S
C586   N590    1.367   .     A
C586   F608    1.355   .     S
N589   Zn599   2.010   .     S
N590   Zn600   2.010   .     S
O591   Zn599   1.997   .     S
O592   Zn600   1.997   .     S
O593   Zn600   1.995   .     S
O594   Zn599   1.995   .     S
O595   Zn599   1.984   .     S
O596   Zn600   1.984   .     S
O597   Zn600   1.994   .     S
O598   Zn599   1.994   .     S
F601   C613    1.365   .     S
F602   C652    1.365   1_455 S
C609   O629    1.282   .     A
C609   C620    1.416   .     S
C609   O631    1.283   .     A
C610   O630    1.282   .     A
C610   C619    1.416   .     S
C610   O632    1.283   .     A
C611   O635    1.283   .     A
C611   O633    1.275   .     A
C611   C613    1.403   .     S
C612   O634    1.275   .     A
C612   O636    1.283   .     A
C612   C614    1.403   .     S
C614   C651    1.343   .     S
C614   F678    1.365   .     S
C615   C620    1.396   .     A
C615   H625    1.084   .     S
C616   C619    1.396   .     A
C616   H626    1.084   .     S
C616   C390    1.371   1_565 S
C617   C619    1.399   .     A
C617   F641    1.359   .     S
C617   C387    1.371   1_565 S
C618   F642    1.359   .     S
C618   C620    1.399   .     A
C621   N628    1.367   .     A
C621   F643    1.355   .     S
C622   F644    1.355   .     S
C622   N627    1.367   .     A
C622   C966    1.417   .     S
C623   N627    1.367   .     A
C623   F645    1.355   .     S
C623   C963    1.417   .     S
C624   N628    1.367   .     A
C624   F646    1.355   .     S
N627   Zn637   2.010   .     S
N628   Zn638   2.010   .     S
O629   Zn637   1.997   .     S
O630   Zn638   1.997   .     S
O631   Zn638   1.995   .     S
O632   Zn637   1.995   .     S
O633   Zn637   1.984   .     S
O634   Zn638   1.984   .     S
O635   Zn638   1.994   .     S
O636   Zn637   1.994   .     S
F639   C651    1.365   .     S
C647   O667    1.282   .     A
C647   C658    1.416   .     S
C647   O669    1.283   .     A
C648   O668    1.282   .     A
C648   C657    1.416   .     S
C648   O670    1.283   .     A
C649   O673    1.283   .     A
C649   O671    1.275   .     A
C649   C651    1.403   .     S
C650   O672    1.275   .     A
C650   O674    1.283   .     A
C650   C652    1.403   .     S
C652   C575    1.343   1_655 S
C652   F602    1.365   1_655 S
C653   C658    1.396   .     A
C653   H663    1.084   .     S
C654   C657    1.396   .     A
C654   H664    1.084   .     S
C654   C428    1.371   1_565 S
C655   C657    1.399   .     A
C655   F679    1.359   .     S
C655   C425    1.371   1_565 S
C656   F680    1.359   .     S
C656   C658    1.399   .     A
C659   N666    1.367   .     A
C659   F681    1.355   .     S
C660   F682    1.355   .     S
C660   N665    1.367   .     A
C660   C1004   1.417   .     S
C661   N665    1.367   .     A
C661   F683    1.355   .     S
C661   C1001   1.417   .     S
C662   N666    1.367   .     A
C662   F684    1.355   .     S
N665   Zn675   2.010   .     S
N666   Zn676   2.010   .     S
O667   Zn675   1.997   .     S
O668   Zn676   1.997   .     S
O669   Zn676   1.995   .     S
O670   Zn675   1.995   .     S
O671   Zn675   1.984   .     S
O672   Zn676   1.984   .     S
O673   Zn676   1.994   .     S
O674   Zn675   1.994   .     S
F677   C575    1.365   1_655 S
C685   O705    1.282   .     A
C685   C696    1.416   .     S
C685   O707    1.283   .     A
C686   O706    1.282   .     A
C686   C695    1.416   .     S
C686   O708    1.283   .     A
C687   O711    1.283   .     A
C687   O709    1.275   .     A
C687   C689    1.403   .     S
C688   O710    1.275   .     A
C688   O712    1.283   .     A
C688   C690    1.403   .     S
C689   C766    1.343   1_455 S
C689   F791    1.365   1_455 S
C690   C727    1.343   .     S
C690   F754    1.365   .     S
C691   C696    1.396   .     A
C691   H701    1.084   .     S
C691   C921    1.371   1_545 S
C692   C695    1.396   .     A
C692   H702    1.084   .     S
C692   C808    1.371   .     S
C693   C695    1.399   .     A
C693   F717    1.359   .     S
C693   C805    1.371   .     S
C694   F718    1.359   .     S
C694   C696    1.399   .     A
C694   C920    1.371   1_545 S
C697   N704    1.367   .     A
C697   F719    1.355   .     S
C698   F720    1.355   .     S
C698   N703    1.367   .     A
C698   C16     1.417   1_556 S
C699   N703    1.367   .     A
C699   F721    1.355   .     S
C699   C13     1.417   1_556 S
C700   N704    1.367   .     A
C700   F722    1.355   .     S
N703   Zn713   2.010   .     S
N704   Zn714   2.010   .     S
O705   Zn713   1.997   .     S
O706   Zn714   1.997   .     S
O707   Zn714   1.995   .     S
O708   Zn713   1.995   .     S
O709   Zn713   1.984   .     S
O710   Zn714   1.984   .     S
O711   Zn714   1.994   .     S
O712   Zn713   1.994   .     S
F715   C727    1.365   .     S
F716   C766    1.365   1_455 S
C723   O743    1.282   .     A
C723   C734    1.416   .     S
C723   O745    1.283   .     A
C724   O744    1.282   .     A
C724   C733    1.416   .     S
C724   O746    1.283   .     A
C725   O749    1.283   .     A
C725   O747    1.275   .     A
C725   C727    1.403   .     S
C726   O748    1.275   .     A
C726   O750    1.283   .     A
C726   C728    1.403   .     S
C728   C765    1.343   .     S
C728   F792    1.365   .     S
C729   C734    1.396   .     A
C729   H739    1.084   .     S
C729   C959    1.371   1_545 S
C730   C733    1.396   .     A
C730   H740    1.084   .     S
C730   C846    1.371   .     S
C731   C733    1.399   .     A
C731   F755    1.359   .     S
C731   C843    1.371   .     S
C732   F756    1.359   .     S
C732   C734    1.399   .     A
C732   C958    1.371   1_545 S
C735   N742    1.367   .     A
C735   F757    1.355   .     S
C736   F758    1.355   .     S
C736   N741    1.367   .     A
C736   C54     1.417   1_556 S
C737   N741    1.367   .     A
C737   F759    1.355   .     S
C737   C51     1.417   1_556 S
C738   N742    1.367   .     A
C738   F760    1.355   .     S
N741   Zn751   2.010   .     S
N742   Zn752   2.010   .     S
O743   Zn751   1.997   .     S
O744   Zn752   1.997   .     S
O745   Zn752   1.995   .     S
O746   Zn751   1.995   .     S
O747   Zn751   1.984   .     S
O748   Zn752   1.984   .     S
O749   Zn752   1.994   .     S
O750   Zn751   1.994   .     S
F753   C765    1.365   .     S
C761   O781    1.282   .     A
C761   C772    1.416   .     S
C761   O783    1.283   .     A
C762   O782    1.282   .     A
C762   C771    1.416   .     S
C762   O784    1.283   .     A
C763   O787    1.283   .     A
C763   O785    1.275   .     A
C763   C765    1.403   .     S
C764   O786    1.275   .     A
C764   O788    1.283   .     A
C764   C766    1.403   .     S
C766   C689    1.343   1_655 S
C766   F716    1.365   1_655 S
C767   C772    1.396   .     A
C767   H777    1.084   .     S
C767   C997    1.371   1_545 S
C768   C771    1.396   .     A
C768   H778    1.084   .     S
C768   C884    1.371   .     S
C769   C771    1.399   .     A
C769   F793    1.359   .     S
C769   C881    1.371   .     S
C770   F794    1.359   .     S
C770   C772    1.399   .     A
C770   C996    1.371   1_545 S
C773   N780    1.367   .     A
C773   F795    1.355   .     S
C774   F796    1.355   .     S
C774   N779    1.367   .     A
C774   C92     1.417   1_556 S
C775   N779    1.367   .     A
C775   F797    1.355   .     S
C775   C89     1.417   1_556 S
C776   N780    1.367   .     A
C776   F798    1.355   .     S
N779   Zn789   2.010   .     S
N780   Zn790   2.010   .     S
O781   Zn789   1.997   .     S
O782   Zn790   1.997   .     S
O783   Zn790   1.995   .     S
O784   Zn789   1.995   .     S
O785   Zn789   1.984   .     S
O786   Zn790   1.984   .     S
O787   Zn790   1.994   .     S
O788   Zn789   1.994   .     S
F791   C689    1.365   1_655 S
C799   O819    1.282   .     A
C799   C810    1.416   .     S
C799   O821    1.283   .     A
C800   O820    1.282   .     A
C800   C809    1.416   .     S
C800   O822    1.283   .     A
C801   O825    1.283   .     A
C801   O823    1.275   .     A
C801   C803    1.403   .     S
C802   O824    1.275   .     A
C802   O826    1.283   .     A
C802   C804    1.403   .     S
C803   C880    1.343   1_455 S
C803   F905    1.365   1_455 S
C804   C841    1.343   .     S
C804   F868    1.365   .     S
C805   C810    1.396   .     A
C805   H815    1.084   .     S
C806   C809    1.396   .     A
C806   H816    1.084   .     S
C806   C922    1.371   .     S
C807   C809    1.399   .     A
C807   F831    1.359   .     S
C807   C919    1.371   .     S
C808   F832    1.359   .     S
C808   C810    1.399   .     A
C811   N818    1.367   .     A
C811   F833    1.355   .     S
C812   F834    1.355   .     S
C812   N817    1.367   .     A
C812   C130    1.417   1_556 S
C813   N817    1.367   .     A
C813   F835    1.355   .     S
C813   C127    1.417   1_556 S
C814   N818    1.367   .     A
C814   F836    1.355   .     S
N817   Zn827   2.010   .     S
N818   Zn828   2.010   .     S
O819   Zn827   1.997   .     S
O820   Zn828   1.997   .     S
O821   Zn828   1.995   .     S
O822   Zn827   1.995   .     S
O823   Zn827   1.984   .     S
O824   Zn828   1.984   .     S
O825   Zn828   1.994   .     S
O826   Zn827   1.994   .     S
F829   C841    1.365   .     S
F830   C880    1.365   1_455 S
C837   O857    1.282   .     A
C837   C848    1.416   .     S
C837   O859    1.283   .     A
C838   O858    1.282   .     A
C838   C847    1.416   .     S
C838   O860    1.283   .     A
C839   O863    1.283   .     A
C839   O861    1.275   .     A
C839   C841    1.403   .     S
C840   O862    1.275   .     A
C840   O864    1.283   .     A
C840   C842    1.403   .     S
C842   C879    1.343   .     S
C842   F906    1.365   .     S
C843   C848    1.396   .     A
C843   H853    1.084   .     S
C844   C847    1.396   .     A
C844   H854    1.084   .     S
C844   C960    1.371   .     S
C845   C847    1.399   .     A
C845   F869    1.359   .     S
C845   C957    1.371   .     S
C846   F870    1.359   .     S
C846   C848    1.399   .     A
C849   N856    1.367   .     A
C849   F871    1.355   .     S
C850   F872    1.355   .     S
C850   N855    1.367   .     A
C850   C168    1.417   1_556 S
C851   N855    1.367   .     A
C851   F873    1.355   .     S
C851   C165    1.417   1_556 S
C852   N856    1.367   .     A
C852   F874    1.355   .     S
N855   Zn865   2.010   .     S
N856   Zn866   2.010   .     S
O857   Zn865   1.997   .     S
O858   Zn866   1.997   .     S
O859   Zn866   1.995   .     S
O860   Zn865   1.995   .     S
O861   Zn865   1.984   .     S
O862   Zn866   1.984   .     S
O863   Zn866   1.994   .     S
O864   Zn865   1.994   .     S
F867   C879    1.365   .     S
C875   O895    1.282   .     A
C875   C886    1.416   .     S
C875   O897    1.283   .     A
C876   O896    1.282   .     A
C876   C885    1.416   .     S
C876   O898    1.283   .     A
C877   O901    1.283   .     A
C877   O899    1.275   .     A
C877   C879    1.403   .     S
C878   O900    1.275   .     A
C878   O902    1.283   .     A
C878   C880    1.403   .     S
C880   C803    1.343   1_655 S
C880   F830    1.365   1_655 S
C881   C886    1.396   .     A
C881   H891    1.084   .     S
C882   C885    1.396   .     A
C882   H892    1.084   .     S
C882   C998    1.371   .     S
C883   C885    1.399   .     A
C883   F907    1.359   .     S
C883   C995    1.371   .     S
C884   F908    1.359   .     S
C884   C886    1.399   .     A
C887   N894    1.367   .     A
C887   F909    1.355   .     S
C888   F910    1.355   .     S
C888   N893    1.367   .     A
C888   C206    1.417   1_556 S
C889   N893    1.367   .     A
C889   F911    1.355   .     S
C889   C203    1.417   1_556 S
C890   N894    1.367   .     A
C890   F912    1.355   .     S
N893   Zn903   2.010   .     S
N894   Zn904   2.010   .     S
O895   Zn903   1.997   .     S
O896   Zn904   1.997   .     S
O897   Zn904   1.995   .     S
O898   Zn903   1.995   .     S
O899   Zn903   1.984   .     S
O900   Zn904   1.984   .     S
O901   Zn904   1.994   .     S
O902   Zn903   1.994   .     S
F905   C803    1.365   1_655 S
C913   O933    1.282   .     A
C913   C924    1.416   .     S
C913   O935    1.283   .     A
C914   O934    1.282   .     A
C914   C923    1.416   .     S
C914   O936    1.283   .     A
C915   O939    1.283   .     A
C915   O937    1.275   .     A
C915   C917    1.403   .     S
C916   O938    1.275   .     A
C916   O940    1.283   .     A
C916   C918    1.403   .     S
C917   C994    1.343   1_455 S
C917   F1019   1.365   1_455 S
C918   C955    1.343   .     S
C918   F982    1.365   .     S
C919   C924    1.396   .     A
C919   H929    1.084   .     S
C920   C923    1.396   .     A
C920   H930    1.084   .     S
C920   C694    1.371   1_565 S
C921   C923    1.399   .     A
C921   F945    1.359   .     S
C921   C691    1.371   1_565 S
C922   F946    1.359   .     S
C922   C924    1.399   .     A
C925   N932    1.367   .     A
C925   F947    1.355   .     S
C926   F948    1.355   .     S
C926   N931    1.367   .     A
C926   C244    1.417   1_556 S
C927   N931    1.367   .     A
C927   F949    1.355   .     S
C927   C241    1.417   1_556 S
C928   N932    1.367   .     A
C928   F950    1.355   .     S
N931   Zn941   2.010   .     S
N932   Zn942   2.010   .     S
O933   Zn941   1.997   .     S
O934   Zn942   1.997   .     S
O935   Zn942   1.995   .     S
O936   Zn941   1.995   .     S
O937   Zn941   1.984   .     S
O938   Zn942   1.984   .     S
O939   Zn942   1.994   .     S
O940   Zn941   1.994   .     S
F943   C955    1.365   .     S
F944   C994    1.365   1_455 S
C951   O971    1.282   .     A
C951   C962    1.416   .     S
C951   O973    1.283   .     A
C952   O972    1.282   .     A
C952   C961    1.416   .     S
C952   O974    1.283   .     A
C953   O977    1.283   .     A
C953   O975    1.275   .     A
C953   C955    1.403   .     S
C954   O976    1.275   .     A
C954   O978    1.283   .     A
C954   C956    1.403   .     S
C956   C993    1.343   .     S
C956   F1020   1.365   .     S
C957   C962    1.396   .     A
C957   H967    1.084   .     S
C958   C961    1.396   .     A
C958   H968    1.084   .     S
C958   C732    1.371   1_565 S
C959   C961    1.399   .     A
C959   F983    1.359   .     S
C959   C729    1.371   1_565 S
C960   F984    1.359   .     S
C960   C962    1.399   .     A
C963   N970    1.367   .     A
C963   F985    1.355   .     S
C964   F986    1.355   .     S
C964   N969    1.367   .     A
C964   C282    1.417   1_556 S
C965   N969    1.367   .     A
C965   F987    1.355   .     S
C965   C279    1.417   1_556 S
C966   N970    1.367   .     A
C966   F988    1.355   .     S
N969   Zn979   2.010   .     S
N970   Zn980   2.010   .     S
O971   Zn979   1.997   .     S
O972   Zn980   1.997   .     S
O973   Zn980   1.995   .     S
O974   Zn979   1.995   .     S
O975   Zn979   1.984   .     S
O976   Zn980   1.984   .     S
O977   Zn980   1.994   .     S
O978   Zn979   1.994   .     S
F981   C993    1.365   .     S
C989   O1009   1.282   .     A
C989   C1000   1.416   .     S
C989   O1011   1.283   .     A
C990   O1010   1.282   .     A
C990   C999    1.416   .     S
C990   O1012   1.283   .     A
C991   O1015   1.283   .     A
C991   O1013   1.275   .     A
C991   C993    1.403   .     S
C992   O1014   1.275   .     A
C992   O1016   1.283   .     A
C992   C994    1.403   .     S
C994   C917    1.343   1_655 S
C994   F944    1.365   1_655 S
C995   C1000   1.396   .     A
C995   H1005   1.084   .     S
C996   C999    1.396   .     A
C996   H1006   1.084   .     S
C996   C770    1.371   1_565 S
C997   C999    1.399   .     A
C997   F1021   1.359   .     S
C997   C767    1.371   1_565 S
C998   F1022   1.359   .     S
C998   C1000   1.399   .     A
C1001  N1008   1.367   .     A
C1001  F1023   1.355   .     S
C1002  F1024   1.355   .     S
C1002  N1007   1.367   .     A
C1002  C320    1.417   1_556 S
C1003  N1007   1.367   .     A
C1003  F1025   1.355   .     S
C1003  C317    1.417   1_556 S
C1004  N1008   1.367   .     A
C1004  F1026   1.355   .     S
N1007  Zn1017  2.010   .     S
N1008  Zn1018  2.010   .     S
O1009  Zn1017  1.997   .     S
O1010  Zn1018  1.997   .     S
O1011  Zn1018  1.995   .     S
O1012  Zn1017  1.995   .     S
O1013  Zn1017  1.984   .     S
O1014  Zn1018  1.984   .     S
O1015  Zn1018  1.994   .     S
O1016  Zn1017  1.994   .     S
F1019  C917    1.365   1_655 S
