data_str_m3_o2_o5_pcu_sym.124
_audit_creation_date              2020-01-03
_audit_creation_method            'Materials Studio'
_symmetry_space_group_name_H-M    'P1'
_symmetry_Int_Tables_number       1
_symmetry_cell_setting            triclinic
loop_
_symmetry_equiv_pos_as_xyz
  x,y,z
_cell_length_a                    29.2314
_cell_length_b                    28.3592
_cell_length_c                    26.7370
_cell_angle_alpha                 90.0513
_cell_angle_beta                  90.6599
_cell_angle_gamma                 90.1138
loop_
_atom_site_label
_atom_site_type_symbol
_atom_site_fract_x
_atom_site_fract_y
_atom_site_fract_z
_atom_site_U_iso_or_equiv
_atom_site_adp_type
_atom_site_occupancy
C1     C     0.16328   0.24993   0.16472   0.00000  Uiso   1.00
C2     C     0.33676   0.25006   0.16542   0.00000  Uiso   1.00
C3     C     0.22734   0.10217   0.12983   0.00000  Uiso   1.00
C4     C     0.28657   0.39786   0.18593   0.00000  Uiso   1.00
C5     C     0.27272   0.10235   0.20350   0.00000  Uiso   1.00
C6     C     0.21346   0.39771   0.14738   0.00000  Uiso   1.00
C7     C     0.22705   0.05256   0.12903   0.00000  Uiso   1.00
C8     C     0.28736   0.44747   0.18615   0.00000  Uiso   1.00
C9     C     0.27305   0.05274   0.20430   0.00000  Uiso   1.00
C10    C     0.21271   0.44731   0.14719   0.00000  Uiso   1.00
C11    C     0.24997   0.24998   0.07284   0.00000  Uiso   1.00
C12    C     0.25005   0.25001   0.26049   0.00000  Uiso   1.00
C13    C     0.25005   0.02671   0.16667   0.00000  Uiso   1.00
C14    C     0.25004   0.47334   0.16668   0.00000  Uiso   1.00
C15    C     0.25001   0.24997   0.02178   0.00000  Uiso   1.00
C16    C     0.25004   0.25001   0.31155   0.00000  Uiso   1.00
C17    C     0.05320   0.28028   0.10122   0.00000  Uiso   1.00
C18    C     0.44523   0.21864   0.10249   0.00000  Uiso   1.00
C19    C     0.45800   0.29002   0.15209   0.00000  Uiso   1.00
C20    C     0.04152   0.21057   0.15329   0.00000  Uiso   1.00
C21    C     0.09787   0.28369   0.11918   0.00000  Uiso   1.00
C22    C     0.40145   0.21512   0.12173   0.00000  Uiso   1.00
C23    C     0.41210   0.28890   0.16611   0.00000  Uiso   1.00
C24    C     0.08793   0.21155   0.16637   0.00000  Uiso   1.00
C25    C     0.11513   0.24946   0.15185   0.00000  Uiso   1.00
C26    C     0.38476   0.25035   0.15308   0.00000  Uiso   1.00
C27    C     0.02406   0.24593   0.12136   0.00000  Uiso   1.00
C28    C     0.47478   0.25378   0.12114   0.00000  Uiso   1.00
H29    H     0.20949   0.12147   0.10072   0.00000  Uiso   1.00
H30    H     0.31546   0.37862   0.20111   0.00000  Uiso   1.00
H31    H     0.29058   0.12180   0.23258   0.00000  Uiso   1.00
H32    H     0.18458   0.37836   0.13217   0.00000  Uiso   1.00
H33    H     0.11964   0.31187   0.10594   0.00000  Uiso   1.00
H34    H     0.37970   0.18610   0.10992   0.00000  Uiso   1.00
H35    H     0.39800   0.31725   0.18812   0.00000  Uiso   1.00
H36    H     0.10252   0.18380   0.18919   0.00000  Uiso   1.00
H37    H     0.20942   0.03476   0.09861   0.00000  Uiso   1.00
H38    H     0.31739   0.46526   0.20088   0.00000  Uiso   1.00
H39    H     0.29071   0.03508   0.23471   0.00000  Uiso   1.00
H40    H     0.18269   0.46498   0.13246   0.00000  Uiso   1.00
N41    N     0.25000   0.12624   0.16667   0.00000  Uiso   1.00
N42    N     0.25000   0.37377   0.16667   0.00000  Uiso   1.00
O43    O     0.18453   0.28974   0.16667   0.00000  Uiso   1.00
O44    O     0.31547   0.21026   0.16666   0.00000  Uiso   1.00
O45    O     0.31547   0.28974   0.16666   0.00000  Uiso   1.00
O46    O     0.18453   0.21026   0.16667   0.00000  Uiso   1.00
O47    O     0.25000   0.28973   0.09511   0.00000  Uiso   1.00
O48    O     0.25000   0.21027   0.23822   0.00000  Uiso   1.00
O49    O     0.25000   0.28973   0.23822   0.00000  Uiso   1.00
O50    O     0.25000   0.21027   0.09511   0.00000  Uiso   1.00
Zn51   Zn    0.25000   0.30307   0.16667   0.00000  Uiso   1.00
Zn52   Zn    0.25000   0.19693   0.16667   0.00000  Uiso   1.00
O53    O     0.03782   0.31112   0.06471   0.00000  Uiso   1.00
C54    C     0.04321   0.28956   0.01719   0.00000  Uiso   1.00
H55    H     0.01421   0.30077   0.32620   0.00000  Uiso   1.00
H56    H     0.04151   0.25017   0.01832   0.00000  Uiso   1.00
C57    C     0.08783   0.30577   0.32608   0.00000  Uiso   1.00
H58    H     0.08422   0.34300   0.31374   0.00000  Uiso   1.00
H59    H     0.11671   0.30394   0.01989   0.00000  Uiso   1.00
C60    C     0.09988   0.27493   0.28135   0.00000  Uiso   1.00
H61    H     0.10743   0.23838   0.29383   0.00000  Uiso   1.00
H62    H     0.13068   0.28938   0.26285   0.00000  Uiso   1.00
H63    H     0.07125   0.27391   0.25385   0.00000  Uiso   1.00
O64    O     0.45976   0.18603   0.06765   0.00000  Uiso   1.00
C65    C     0.44858   0.20265   0.01893   0.00000  Uiso   1.00
H66    H     0.47157   0.18465   0.32570   0.00000  Uiso   1.00
H67    H     0.45516   0.24117   0.01459   0.00000  Uiso   1.00
C68    C     0.39865   0.19136   0.00425   0.00000  Uiso   1.00
H69    H     0.39083   0.15394   0.01309   0.00000  Uiso   1.00
H70    H     0.37523   0.21428   0.02576   0.00000  Uiso   1.00
C71    C     0.38905   0.20020   0.28214   0.00000  Uiso   1.00
H72    H     0.40131   0.23575   0.27102   0.00000  Uiso   1.00
H73    H     0.35164   0.19812   0.27476   0.00000  Uiso   1.00
H74    H     0.40585   0.17292   0.25909   0.00000  Uiso   1.00
O75    O     0.48647   0.32736   0.16555   0.00000  Uiso   1.00
C76    C     0.48790   0.33452   0.21800   0.00000  Uiso   1.00
H77    H     0.02438   0.33469   0.22976   0.00000  Uiso   1.00
H78    H     0.47089   0.30623   0.24016   0.00000  Uiso   1.00
C79    C     0.46795   0.38287   0.23076   0.00000  Uiso   1.00
H80    H     0.48784   0.41074   0.21144   0.00000  Uiso   1.00
H81    H     0.43190   0.38515   0.21755   0.00000  Uiso   1.00
C82    C     0.46967   0.39203   0.28701   0.00000  Uiso   1.00
H83    H     0.44937   0.36498   0.30708   0.00000  Uiso   1.00
H84    H     0.45506   0.42730   0.29505   0.00000  Uiso   1.00
H85    H     0.00560   0.39125   0.30097   0.00000  Uiso   1.00
O86    O     0.01300   0.17416   0.16854   0.00000  Uiso   1.00
C87    C     0.01517   0.16679   0.22091   0.00000  Uiso   1.00
H88    H     0.47979   0.16865   0.23496   0.00000  Uiso   1.00
H89    H     0.03494   0.19402   0.24221   0.00000  Uiso   1.00
C90    C     0.03395   0.11749   0.23192   0.00000  Uiso   1.00
H91    H     0.01238   0.09074   0.21235   0.00000  Uiso   1.00
H92    H     0.06934   0.11441   0.21770   0.00000  Uiso   1.00
C93    C     0.03429   0.10700   0.28789   0.00000  Uiso   1.00
H94    H     0.05467   0.13399   0.30851   0.00000  Uiso   1.00
H95    H     0.04984   0.07186   0.29468   0.00000  Uiso   1.00
H96    H     0.49880   0.10653   0.30226   0.00000  Uiso   1.00
C97    C     0.66328   0.24993   0.16472   0.00000  Uiso   1.00
C98    C     0.83676   0.25006   0.16542   0.00000  Uiso   1.00
C99    C     0.72734   0.10217   0.12983   0.00000  Uiso   1.00
C100   C     0.78657   0.39786   0.18593   0.00000  Uiso   1.00
C101   C     0.77272   0.10235   0.20350   0.00000  Uiso   1.00
C102   C     0.71346   0.39771   0.14738   0.00000  Uiso   1.00
C103   C     0.72705   0.05256   0.12903   0.00000  Uiso   1.00
C104   C     0.78736   0.44747   0.18615   0.00000  Uiso   1.00
C105   C     0.77305   0.05274   0.20430   0.00000  Uiso   1.00
C106   C     0.71271   0.44731   0.14719   0.00000  Uiso   1.00
C107   C     0.74997   0.24998   0.07284   0.00000  Uiso   1.00
C108   C     0.75005   0.25001   0.26049   0.00000  Uiso   1.00
C109   C     0.75005   0.02671   0.16667   0.00000  Uiso   1.00
C110   C     0.75004   0.47334   0.16668   0.00000  Uiso   1.00
C111   C     0.75001   0.24997   0.02178   0.00000  Uiso   1.00
C112   C     0.75004   0.25001   0.31155   0.00000  Uiso   1.00
C113   C     0.55320   0.28028   0.10122   0.00000  Uiso   1.00
C114   C     0.94523   0.21864   0.10249   0.00000  Uiso   1.00
C115   C     0.95800   0.29002   0.15209   0.00000  Uiso   1.00
C116   C     0.54152   0.21057   0.15329   0.00000  Uiso   1.00
C117   C     0.59787   0.28369   0.11918   0.00000  Uiso   1.00
C118   C     0.90145   0.21512   0.12173   0.00000  Uiso   1.00
C119   C     0.91210   0.28890   0.16611   0.00000  Uiso   1.00
C120   C     0.58793   0.21155   0.16637   0.00000  Uiso   1.00
C121   C     0.61513   0.24946   0.15185   0.00000  Uiso   1.00
C122   C     0.88476   0.25035   0.15308   0.00000  Uiso   1.00
C123   C     0.52406   0.24593   0.12136   0.00000  Uiso   1.00
C124   C     0.97478   0.25378   0.12114   0.00000  Uiso   1.00
H125   H     0.70949   0.12147   0.10072   0.00000  Uiso   1.00
H126   H     0.81546   0.37862   0.20111   0.00000  Uiso   1.00
H127   H     0.79058   0.12180   0.23258   0.00000  Uiso   1.00
H128   H     0.68458   0.37836   0.13217   0.00000  Uiso   1.00
H129   H     0.61964   0.31187   0.10594   0.00000  Uiso   1.00
H130   H     0.87970   0.18610   0.10992   0.00000  Uiso   1.00
H131   H     0.89800   0.31725   0.18812   0.00000  Uiso   1.00
H132   H     0.60252   0.18380   0.18919   0.00000  Uiso   1.00
H133   H     0.70942   0.03476   0.09861   0.00000  Uiso   1.00
H134   H     0.81739   0.46526   0.20088   0.00000  Uiso   1.00
H135   H     0.79071   0.03508   0.23471   0.00000  Uiso   1.00
H136   H     0.68269   0.46498   0.13246   0.00000  Uiso   1.00
N137   N     0.75000   0.12624   0.16667   0.00000  Uiso   1.00
N138   N     0.75000   0.37377   0.16667   0.00000  Uiso   1.00
O139   O     0.68453   0.28974   0.16667   0.00000  Uiso   1.00
O140   O     0.81547   0.21026   0.16666   0.00000  Uiso   1.00
O141   O     0.81547   0.28974   0.16666   0.00000  Uiso   1.00
O142   O     0.68453   0.21026   0.16667   0.00000  Uiso   1.00
O143   O     0.75000   0.28973   0.09511   0.00000  Uiso   1.00
O144   O     0.75000   0.21027   0.23822   0.00000  Uiso   1.00
O145   O     0.75000   0.28973   0.23822   0.00000  Uiso   1.00
O146   O     0.75000   0.21027   0.09511   0.00000  Uiso   1.00
Zn147  Zn    0.75000   0.30307   0.16667   0.00000  Uiso   1.00
Zn148  Zn    0.75000   0.19693   0.16667   0.00000  Uiso   1.00
O149   O     0.53782   0.31112   0.06471   0.00000  Uiso   1.00
C150   C     0.54321   0.28956   0.01719   0.00000  Uiso   1.00
H151   H     0.51421   0.30077   0.32620   0.00000  Uiso   1.00
H152   H     0.54151   0.25017   0.01832   0.00000  Uiso   1.00
C153   C     0.58783   0.30577   0.32608   0.00000  Uiso   1.00
H154   H     0.58422   0.34300   0.31374   0.00000  Uiso   1.00
H155   H     0.61671   0.30394   0.01989   0.00000  Uiso   1.00
C156   C     0.59988   0.27493   0.28135   0.00000  Uiso   1.00
H157   H     0.60743   0.23838   0.29383   0.00000  Uiso   1.00
H158   H     0.63068   0.28938   0.26285   0.00000  Uiso   1.00
H159   H     0.57125   0.27391   0.25385   0.00000  Uiso   1.00
O160   O     0.95976   0.18603   0.06765   0.00000  Uiso   1.00
C161   C     0.94858   0.20265   0.01893   0.00000  Uiso   1.00
H162   H     0.97157   0.18465   0.32570   0.00000  Uiso   1.00
H163   H     0.95516   0.24117   0.01459   0.00000  Uiso   1.00
C164   C     0.89865   0.19136   0.00425   0.00000  Uiso   1.00
H165   H     0.89083   0.15394   0.01309   0.00000  Uiso   1.00
H166   H     0.87523   0.21428   0.02576   0.00000  Uiso   1.00
C167   C     0.88905   0.20020   0.28214   0.00000  Uiso   1.00
H168   H     0.90131   0.23575   0.27102   0.00000  Uiso   1.00
H169   H     0.85164   0.19812   0.27476   0.00000  Uiso   1.00
H170   H     0.90585   0.17292   0.25909   0.00000  Uiso   1.00
O171   O     0.98647   0.32736   0.16555   0.00000  Uiso   1.00
C172   C     0.98790   0.33452   0.21800   0.00000  Uiso   1.00
H173   H     0.52438   0.33469   0.22976   0.00000  Uiso   1.00
H174   H     0.97089   0.30623   0.24016   0.00000  Uiso   1.00
C175   C     0.96795   0.38287   0.23076   0.00000  Uiso   1.00
H176   H     0.98784   0.41074   0.21144   0.00000  Uiso   1.00
H177   H     0.93190   0.38515   0.21755   0.00000  Uiso   1.00
C178   C     0.96967   0.39203   0.28701   0.00000  Uiso   1.00
H179   H     0.94937   0.36498   0.30708   0.00000  Uiso   1.00
H180   H     0.95506   0.42730   0.29505   0.00000  Uiso   1.00
H181   H     0.50560   0.39125   0.30097   0.00000  Uiso   1.00
O182   O     0.51300   0.17416   0.16854   0.00000  Uiso   1.00
C183   C     0.51517   0.16679   0.22091   0.00000  Uiso   1.00
H184   H     0.97979   0.16865   0.23496   0.00000  Uiso   1.00
H185   H     0.53494   0.19402   0.24221   0.00000  Uiso   1.00
C186   C     0.53395   0.11749   0.23192   0.00000  Uiso   1.00
H187   H     0.51238   0.09074   0.21235   0.00000  Uiso   1.00
H188   H     0.56934   0.11441   0.21770   0.00000  Uiso   1.00
C189   C     0.53429   0.10700   0.28789   0.00000  Uiso   1.00
H190   H     0.55467   0.13399   0.30851   0.00000  Uiso   1.00
H191   H     0.54984   0.07186   0.29468   0.00000  Uiso   1.00
H192   H     0.99880   0.10653   0.30226   0.00000  Uiso   1.00
C193   C     0.16328   0.74993   0.16472   0.00000  Uiso   1.00
C194   C     0.33676   0.75006   0.16542   0.00000  Uiso   1.00
C195   C     0.22734   0.60217   0.12983   0.00000  Uiso   1.00
C196   C     0.28657   0.89786   0.18593   0.00000  Uiso   1.00
C197   C     0.27272   0.60235   0.20350   0.00000  Uiso   1.00
C198   C     0.21346   0.89771   0.14738   0.00000  Uiso   1.00
C199   C     0.22705   0.55256   0.12903   0.00000  Uiso   1.00
C200   C     0.28736   0.94747   0.18615   0.00000  Uiso   1.00
C201   C     0.27305   0.55274   0.20430   0.00000  Uiso   1.00
C202   C     0.21271   0.94731   0.14719   0.00000  Uiso   1.00
C203   C     0.24997   0.74998   0.07284   0.00000  Uiso   1.00
C204   C     0.25005   0.75001   0.26049   0.00000  Uiso   1.00
C205   C     0.25005   0.52671   0.16667   0.00000  Uiso   1.00
C206   C     0.25004   0.97334   0.16668   0.00000  Uiso   1.00
C207   C     0.25001   0.74997   0.02178   0.00000  Uiso   1.00
C208   C     0.25004   0.75001   0.31155   0.00000  Uiso   1.00
C209   C     0.05320   0.78028   0.10122   0.00000  Uiso   1.00
C210   C     0.44523   0.71864   0.10249   0.00000  Uiso   1.00
C211   C     0.45800   0.79002   0.15209   0.00000  Uiso   1.00
C212   C     0.04152   0.71057   0.15329   0.00000  Uiso   1.00
C213   C     0.09787   0.78369   0.11918   0.00000  Uiso   1.00
C214   C     0.40145   0.71512   0.12173   0.00000  Uiso   1.00
C215   C     0.41210   0.78890   0.16611   0.00000  Uiso   1.00
C216   C     0.08793   0.71155   0.16637   0.00000  Uiso   1.00
C217   C     0.11513   0.74946   0.15185   0.00000  Uiso   1.00
C218   C     0.38476   0.75035   0.15308   0.00000  Uiso   1.00
C219   C     0.02406   0.74593   0.12136   0.00000  Uiso   1.00
C220   C     0.47478   0.75378   0.12114   0.00000  Uiso   1.00
H221   H     0.20949   0.62147   0.10072   0.00000  Uiso   1.00
H222   H     0.31546   0.87862   0.20111   0.00000  Uiso   1.00
H223   H     0.29058   0.62180   0.23258   0.00000  Uiso   1.00
H224   H     0.18458   0.87836   0.13217   0.00000  Uiso   1.00
H225   H     0.11964   0.81187   0.10594   0.00000  Uiso   1.00
H226   H     0.37970   0.68610   0.10992   0.00000  Uiso   1.00
H227   H     0.39800   0.81725   0.18812   0.00000  Uiso   1.00
H228   H     0.10252   0.68380   0.18919   0.00000  Uiso   1.00
H229   H     0.20942   0.53476   0.09861   0.00000  Uiso   1.00
H230   H     0.31739   0.96526   0.20088   0.00000  Uiso   1.00
H231   H     0.29071   0.53508   0.23471   0.00000  Uiso   1.00
H232   H     0.18269   0.96498   0.13246   0.00000  Uiso   1.00
N233   N     0.25000   0.62624   0.16667   0.00000  Uiso   1.00
N234   N     0.25000   0.87377   0.16667   0.00000  Uiso   1.00
O235   O     0.18453   0.78974   0.16667   0.00000  Uiso   1.00
O236   O     0.31547   0.71026   0.16666   0.00000  Uiso   1.00
O237   O     0.31547   0.78974   0.16666   0.00000  Uiso   1.00
O238   O     0.18453   0.71026   0.16667   0.00000  Uiso   1.00
O239   O     0.25000   0.78973   0.09511   0.00000  Uiso   1.00
O240   O     0.25000   0.71027   0.23822   0.00000  Uiso   1.00
O241   O     0.25000   0.78973   0.23822   0.00000  Uiso   1.00
O242   O     0.25000   0.71027   0.09511   0.00000  Uiso   1.00
Zn243  Zn    0.25000   0.80307   0.16667   0.00000  Uiso   1.00
Zn244  Zn    0.25000   0.69693   0.16667   0.00000  Uiso   1.00
O245   O     0.03782   0.81112   0.06471   0.00000  Uiso   1.00
C246   C     0.04321   0.78956   0.01719   0.00000  Uiso   1.00
H247   H     0.01421   0.80077   0.32620   0.00000  Uiso   1.00
H248   H     0.04151   0.75017   0.01832   0.00000  Uiso   1.00
C249   C     0.08783   0.80577   0.32608   0.00000  Uiso   1.00
H250   H     0.08422   0.84300   0.31374   0.00000  Uiso   1.00
H251   H     0.11671   0.80394   0.01989   0.00000  Uiso   1.00
C252   C     0.09988   0.77493   0.28135   0.00000  Uiso   1.00
H253   H     0.10743   0.73838   0.29383   0.00000  Uiso   1.00
H254   H     0.13068   0.78938   0.26285   0.00000  Uiso   1.00
H255   H     0.07125   0.77391   0.25385   0.00000  Uiso   1.00
O256   O     0.45976   0.68603   0.06765   0.00000  Uiso   1.00
C257   C     0.44858   0.70265   0.01893   0.00000  Uiso   1.00
H258   H     0.47157   0.68465   0.32570   0.00000  Uiso   1.00
H259   H     0.45516   0.74117   0.01459   0.00000  Uiso   1.00
C260   C     0.39865   0.69136   0.00425   0.00000  Uiso   1.00
H261   H     0.39083   0.65394   0.01309   0.00000  Uiso   1.00
H262   H     0.37523   0.71428   0.02576   0.00000  Uiso   1.00
C263   C     0.38905   0.70020   0.28214   0.00000  Uiso   1.00
H264   H     0.40131   0.73575   0.27102   0.00000  Uiso   1.00
H265   H     0.35164   0.69812   0.27476   0.00000  Uiso   1.00
H266   H     0.40585   0.67292   0.25909   0.00000  Uiso   1.00
O267   O     0.48647   0.82736   0.16555   0.00000  Uiso   1.00
C268   C     0.48790   0.83452   0.21800   0.00000  Uiso   1.00
H269   H     0.02438   0.83469   0.22976   0.00000  Uiso   1.00
H270   H     0.47089   0.80623   0.24016   0.00000  Uiso   1.00
C271   C     0.46795   0.88287   0.23076   0.00000  Uiso   1.00
H272   H     0.48784   0.91074   0.21144   0.00000  Uiso   1.00
H273   H     0.43190   0.88515   0.21755   0.00000  Uiso   1.00
C274   C     0.46967   0.89203   0.28701   0.00000  Uiso   1.00
H275   H     0.44937   0.86498   0.30708   0.00000  Uiso   1.00
H276   H     0.45506   0.92730   0.29505   0.00000  Uiso   1.00
H277   H     0.00560   0.89125   0.30097   0.00000  Uiso   1.00
O278   O     0.01300   0.67416   0.16854   0.00000  Uiso   1.00
C279   C     0.01517   0.66679   0.22091   0.00000  Uiso   1.00
H280   H     0.47979   0.66865   0.23496   0.00000  Uiso   1.00
H281   H     0.03494   0.69402   0.24221   0.00000  Uiso   1.00
C282   C     0.03395   0.61749   0.23192   0.00000  Uiso   1.00
H283   H     0.01238   0.59074   0.21235   0.00000  Uiso   1.00
H284   H     0.06934   0.61441   0.21770   0.00000  Uiso   1.00
C285   C     0.03429   0.60700   0.28789   0.00000  Uiso   1.00
H286   H     0.05467   0.63399   0.30851   0.00000  Uiso   1.00
H287   H     0.04984   0.57186   0.29468   0.00000  Uiso   1.00
H288   H     0.49880   0.60653   0.30226   0.00000  Uiso   1.00
C289   C     0.66328   0.74993   0.16472   0.00000  Uiso   1.00
C290   C     0.83676   0.75006   0.16542   0.00000  Uiso   1.00
C291   C     0.72734   0.60217   0.12983   0.00000  Uiso   1.00
C292   C     0.78657   0.89786   0.18593   0.00000  Uiso   1.00
C293   C     0.77272   0.60235   0.20350   0.00000  Uiso   1.00
C294   C     0.71346   0.89771   0.14738   0.00000  Uiso   1.00
C295   C     0.72705   0.55256   0.12903   0.00000  Uiso   1.00
C296   C     0.78736   0.94747   0.18615   0.00000  Uiso   1.00
C297   C     0.77305   0.55274   0.20430   0.00000  Uiso   1.00
C298   C     0.71271   0.94731   0.14719   0.00000  Uiso   1.00
C299   C     0.74997   0.74998   0.07284   0.00000  Uiso   1.00
C300   C     0.75005   0.75001   0.26049   0.00000  Uiso   1.00
C301   C     0.75005   0.52671   0.16667   0.00000  Uiso   1.00
C302   C     0.75004   0.97334   0.16668   0.00000  Uiso   1.00
C303   C     0.75001   0.74997   0.02178   0.00000  Uiso   1.00
C304   C     0.75004   0.75001   0.31155   0.00000  Uiso   1.00
C305   C     0.55320   0.78028   0.10122   0.00000  Uiso   1.00
C306   C     0.94523   0.71864   0.10249   0.00000  Uiso   1.00
C307   C     0.95800   0.79002   0.15209   0.00000  Uiso   1.00
C308   C     0.54152   0.71057   0.15329   0.00000  Uiso   1.00
C309   C     0.59787   0.78369   0.11918   0.00000  Uiso   1.00
C310   C     0.90145   0.71512   0.12173   0.00000  Uiso   1.00
C311   C     0.91210   0.78890   0.16611   0.00000  Uiso   1.00
C312   C     0.58793   0.71155   0.16637   0.00000  Uiso   1.00
C313   C     0.61513   0.74946   0.15185   0.00000  Uiso   1.00
C314   C     0.88476   0.75035   0.15308   0.00000  Uiso   1.00
C315   C     0.52406   0.74593   0.12136   0.00000  Uiso   1.00
C316   C     0.97478   0.75378   0.12114   0.00000  Uiso   1.00
H317   H     0.70949   0.62147   0.10072   0.00000  Uiso   1.00
H318   H     0.81546   0.87862   0.20111   0.00000  Uiso   1.00
H319   H     0.79058   0.62180   0.23258   0.00000  Uiso   1.00
H320   H     0.68458   0.87836   0.13217   0.00000  Uiso   1.00
H321   H     0.61964   0.81187   0.10594   0.00000  Uiso   1.00
H322   H     0.87970   0.68610   0.10992   0.00000  Uiso   1.00
H323   H     0.89800   0.81725   0.18812   0.00000  Uiso   1.00
H324   H     0.60252   0.68380   0.18919   0.00000  Uiso   1.00
H325   H     0.70942   0.53476   0.09861   0.00000  Uiso   1.00
H326   H     0.81739   0.96526   0.20088   0.00000  Uiso   1.00
H327   H     0.79071   0.53508   0.23471   0.00000  Uiso   1.00
H328   H     0.68269   0.96498   0.13246   0.00000  Uiso   1.00
N329   N     0.75000   0.62624   0.16667   0.00000  Uiso   1.00
N330   N     0.75000   0.87377   0.16667   0.00000  Uiso   1.00
O331   O     0.68453   0.78974   0.16667   0.00000  Uiso   1.00
O332   O     0.81547   0.71026   0.16666   0.00000  Uiso   1.00
O333   O     0.81547   0.78974   0.16666   0.00000  Uiso   1.00
O334   O     0.68453   0.71026   0.16667   0.00000  Uiso   1.00
O335   O     0.75000   0.78973   0.09511   0.00000  Uiso   1.00
O336   O     0.75000   0.71027   0.23822   0.00000  Uiso   1.00
O337   O     0.75000   0.78973   0.23822   0.00000  Uiso   1.00
O338   O     0.75000   0.71027   0.09511   0.00000  Uiso   1.00
Zn339  Zn    0.75000   0.80307   0.16667   0.00000  Uiso   1.00
Zn340  Zn    0.75000   0.69693   0.16667   0.00000  Uiso   1.00
O341   O     0.53782   0.81112   0.06471   0.00000  Uiso   1.00
C342   C     0.54321   0.78956   0.01719   0.00000  Uiso   1.00
H343   H     0.51421   0.80077   0.32620   0.00000  Uiso   1.00
H344   H     0.54151   0.75017   0.01832   0.00000  Uiso   1.00
C345   C     0.58783   0.80577   0.32608   0.00000  Uiso   1.00
H346   H     0.58422   0.84300   0.31374   0.00000  Uiso   1.00
H347   H     0.61671   0.80394   0.01989   0.00000  Uiso   1.00
C348   C     0.59988   0.77493   0.28135   0.00000  Uiso   1.00
H349   H     0.60743   0.73838   0.29383   0.00000  Uiso   1.00
H350   H     0.63068   0.78938   0.26285   0.00000  Uiso   1.00
H351   H     0.57125   0.77391   0.25385   0.00000  Uiso   1.00
O352   O     0.95976   0.68603   0.06765   0.00000  Uiso   1.00
C353   C     0.94858   0.70265   0.01893   0.00000  Uiso   1.00
H354   H     0.97157   0.68465   0.32570   0.00000  Uiso   1.00
H355   H     0.95516   0.74117   0.01459   0.00000  Uiso   1.00
C356   C     0.89865   0.69136   0.00425   0.00000  Uiso   1.00
H357   H     0.89083   0.65394   0.01309   0.00000  Uiso   1.00
H358   H     0.87523   0.71428   0.02576   0.00000  Uiso   1.00
C359   C     0.88905   0.70020   0.28214   0.00000  Uiso   1.00
H360   H     0.90131   0.73575   0.27102   0.00000  Uiso   1.00
H361   H     0.85164   0.69812   0.27476   0.00000  Uiso   1.00
H362   H     0.90585   0.67292   0.25909   0.00000  Uiso   1.00
O363   O     0.98647   0.82736   0.16555   0.00000  Uiso   1.00
C364   C     0.98790   0.83452   0.21800   0.00000  Uiso   1.00
H365   H     0.52438   0.83469   0.22976   0.00000  Uiso   1.00
H366   H     0.97089   0.80623   0.24016   0.00000  Uiso   1.00
C367   C     0.96795   0.88287   0.23076   0.00000  Uiso   1.00
H368   H     0.98784   0.91074   0.21144   0.00000  Uiso   1.00
H369   H     0.93190   0.88515   0.21755   0.00000  Uiso   1.00
C370   C     0.96967   0.89203   0.28701   0.00000  Uiso   1.00
H371   H     0.94937   0.86498   0.30708   0.00000  Uiso   1.00
H372   H     0.95506   0.92730   0.29505   0.00000  Uiso   1.00
H373   H     0.50560   0.89125   0.30097   0.00000  Uiso   1.00
O374   O     0.51300   0.67416   0.16854   0.00000  Uiso   1.00
C375   C     0.51517   0.66679   0.22091   0.00000  Uiso   1.00
H376   H     0.97979   0.66865   0.23496   0.00000  Uiso   1.00
H377   H     0.53494   0.69402   0.24221   0.00000  Uiso   1.00
C378   C     0.53395   0.61749   0.23192   0.00000  Uiso   1.00
H379   H     0.51238   0.59074   0.21235   0.00000  Uiso   1.00
H380   H     0.56934   0.61441   0.21770   0.00000  Uiso   1.00
C381   C     0.53429   0.60700   0.28789   0.00000  Uiso   1.00
H382   H     0.55467   0.63399   0.30851   0.00000  Uiso   1.00
H383   H     0.54984   0.57186   0.29468   0.00000  Uiso   1.00
H384   H     0.99880   0.60653   0.30226   0.00000  Uiso   1.00
C385   C     0.16328   0.24993   0.49806   0.00000  Uiso   1.00
C386   C     0.33676   0.25006   0.49875   0.00000  Uiso   1.00
C387   C     0.22734   0.10217   0.46316   0.00000  Uiso   1.00
C388   C     0.28657   0.39786   0.51927   0.00000  Uiso   1.00
C389   C     0.27272   0.10235   0.53683   0.00000  Uiso   1.00
C390   C     0.21346   0.39771   0.48072   0.00000  Uiso   1.00
C391   C     0.22705   0.05256   0.46236   0.00000  Uiso   1.00
C392   C     0.28736   0.44747   0.51949   0.00000  Uiso   1.00
C393   C     0.27305   0.05274   0.53763   0.00000  Uiso   1.00
C394   C     0.21271   0.44731   0.48052   0.00000  Uiso   1.00
C395   C     0.24997   0.24998   0.40617   0.00000  Uiso   1.00
C396   C     0.25005   0.25001   0.59382   0.00000  Uiso   1.00
C397   C     0.25005   0.02671   0.50000   0.00000  Uiso   1.00
C398   C     0.25004   0.47334   0.50001   0.00000  Uiso   1.00
C399   C     0.25001   0.24997   0.35511   0.00000  Uiso   1.00
C400   C     0.25004   0.25001   0.64488   0.00000  Uiso   1.00
C401   C     0.05320   0.28028   0.43456   0.00000  Uiso   1.00
C402   C     0.44523   0.21864   0.43582   0.00000  Uiso   1.00
C403   C     0.45800   0.29002   0.48542   0.00000  Uiso   1.00
C404   C     0.04152   0.21057   0.48663   0.00000  Uiso   1.00
C405   C     0.09787   0.28369   0.45252   0.00000  Uiso   1.00
C406   C     0.40145   0.21512   0.45506   0.00000  Uiso   1.00
C407   C     0.41210   0.28890   0.49944   0.00000  Uiso   1.00
C408   C     0.08793   0.21155   0.49970   0.00000  Uiso   1.00
C409   C     0.11513   0.24946   0.48518   0.00000  Uiso   1.00
C410   C     0.38476   0.25035   0.48642   0.00000  Uiso   1.00
C411   C     0.02406   0.24593   0.45469   0.00000  Uiso   1.00
C412   C     0.47478   0.25378   0.45447   0.00000  Uiso   1.00
H413   H     0.20949   0.12147   0.43405   0.00000  Uiso   1.00
H414   H     0.31546   0.37862   0.53444   0.00000  Uiso   1.00
H415   H     0.29058   0.12180   0.56591   0.00000  Uiso   1.00
H416   H     0.18458   0.37836   0.46550   0.00000  Uiso   1.00
H417   H     0.11964   0.31187   0.43928   0.00000  Uiso   1.00
H418   H     0.37970   0.18610   0.44325   0.00000  Uiso   1.00
H419   H     0.39800   0.31725   0.52146   0.00000  Uiso   1.00
H420   H     0.10252   0.18380   0.52253   0.00000  Uiso   1.00
H421   H     0.20942   0.03476   0.43194   0.00000  Uiso   1.00
H422   H     0.31739   0.46526   0.53421   0.00000  Uiso   1.00
H423   H     0.29071   0.03508   0.56804   0.00000  Uiso   1.00
H424   H     0.18269   0.46498   0.46579   0.00000  Uiso   1.00
N425   N     0.25000   0.12624   0.50000   0.00000  Uiso   1.00
N426   N     0.25000   0.37377   0.50000   0.00000  Uiso   1.00
O427   O     0.18453   0.28974   0.50000   0.00000  Uiso   1.00
O428   O     0.31547   0.21026   0.50000   0.00000  Uiso   1.00
O429   O     0.31547   0.28974   0.50000   0.00000  Uiso   1.00
O430   O     0.18453   0.21026   0.50000   0.00000  Uiso   1.00
O431   O     0.25000   0.28973   0.42845   0.00000  Uiso   1.00
O432   O     0.25000   0.21027   0.57155   0.00000  Uiso   1.00
O433   O     0.25000   0.28973   0.57155   0.00000  Uiso   1.00
O434   O     0.25000   0.21027   0.42845   0.00000  Uiso   1.00
Zn435  Zn    0.25000   0.30307   0.50000   0.00000  Uiso   1.00
Zn436  Zn    0.25000   0.19693   0.50000   0.00000  Uiso   1.00
O437   O     0.03782   0.31112   0.39804   0.00000  Uiso   1.00
C438   C     0.04321   0.28956   0.35052   0.00000  Uiso   1.00
H439   H     0.01421   0.30077   0.65954   0.00000  Uiso   1.00
H440   H     0.04151   0.25017   0.35165   0.00000  Uiso   1.00
C441   C     0.08783   0.30577   0.65942   0.00000  Uiso   1.00
H442   H     0.08422   0.34300   0.64708   0.00000  Uiso   1.00
H443   H     0.11671   0.30394   0.35322   0.00000  Uiso   1.00
C444   C     0.09988   0.27493   0.61468   0.00000  Uiso   1.00
H445   H     0.10743   0.23838   0.62717   0.00000  Uiso   1.00
H446   H     0.13068   0.28938   0.59618   0.00000  Uiso   1.00
H447   H     0.07125   0.27391   0.58719   0.00000  Uiso   1.00
O448   O     0.45976   0.18603   0.40098   0.00000  Uiso   1.00
C449   C     0.44858   0.20265   0.35227   0.00000  Uiso   1.00
H450   H     0.47157   0.18465   0.65903   0.00000  Uiso   1.00
H451   H     0.45516   0.24117   0.34792   0.00000  Uiso   1.00
C452   C     0.39865   0.19136   0.33759   0.00000  Uiso   1.00
H453   H     0.39083   0.15394   0.34642   0.00000  Uiso   1.00
H454   H     0.37523   0.21428   0.35909   0.00000  Uiso   1.00
C455   C     0.38905   0.20020   0.61548   0.00000  Uiso   1.00
H456   H     0.40131   0.23575   0.60435   0.00000  Uiso   1.00
H457   H     0.35164   0.19812   0.60809   0.00000  Uiso   1.00
H458   H     0.40585   0.17292   0.59242   0.00000  Uiso   1.00
O459   O     0.48647   0.32736   0.49888   0.00000  Uiso   1.00
C460   C     0.48790   0.33452   0.55134   0.00000  Uiso   1.00
H461   H     0.02438   0.33469   0.56309   0.00000  Uiso   1.00
H462   H     0.47089   0.30623   0.57349   0.00000  Uiso   1.00
C463   C     0.46795   0.38287   0.56410   0.00000  Uiso   1.00
H464   H     0.48784   0.41074   0.54477   0.00000  Uiso   1.00
H465   H     0.43190   0.38515   0.55088   0.00000  Uiso   1.00
C466   C     0.46967   0.39203   0.62035   0.00000  Uiso   1.00
H467   H     0.44937   0.36498   0.64041   0.00000  Uiso   1.00
H468   H     0.45506   0.42730   0.62838   0.00000  Uiso   1.00
H469   H     0.00560   0.39125   0.63431   0.00000  Uiso   1.00
O470   O     0.01300   0.17416   0.50187   0.00000  Uiso   1.00
C471   C     0.01517   0.16679   0.55424   0.00000  Uiso   1.00
H472   H     0.47979   0.16865   0.56829   0.00000  Uiso   1.00
H473   H     0.03494   0.19402   0.57554   0.00000  Uiso   1.00
C474   C     0.03395   0.11749   0.56525   0.00000  Uiso   1.00
H475   H     0.01238   0.09074   0.54569   0.00000  Uiso   1.00
H476   H     0.06934   0.11441   0.55103   0.00000  Uiso   1.00
C477   C     0.03429   0.10700   0.62122   0.00000  Uiso   1.00
H478   H     0.05467   0.13399   0.64185   0.00000  Uiso   1.00
H479   H     0.04984   0.07186   0.62801   0.00000  Uiso   1.00
H480   H     0.49880   0.10653   0.63559   0.00000  Uiso   1.00
C481   C     0.66328   0.24993   0.49806   0.00000  Uiso   1.00
C482   C     0.83676   0.25006   0.49875   0.00000  Uiso   1.00
C483   C     0.72734   0.10217   0.46316   0.00000  Uiso   1.00
C484   C     0.78657   0.39786   0.51927   0.00000  Uiso   1.00
C485   C     0.77272   0.10235   0.53683   0.00000  Uiso   1.00
C486   C     0.71346   0.39771   0.48072   0.00000  Uiso   1.00
C487   C     0.72705   0.05256   0.46236   0.00000  Uiso   1.00
C488   C     0.78736   0.44747   0.51949   0.00000  Uiso   1.00
C489   C     0.77305   0.05274   0.53763   0.00000  Uiso   1.00
C490   C     0.71271   0.44731   0.48052   0.00000  Uiso   1.00
C491   C     0.74997   0.24998   0.40617   0.00000  Uiso   1.00
C492   C     0.75005   0.25001   0.59382   0.00000  Uiso   1.00
C493   C     0.75005   0.02671   0.50000   0.00000  Uiso   1.00
C494   C     0.75004   0.47334   0.50001   0.00000  Uiso   1.00
C495   C     0.75001   0.24997   0.35511   0.00000  Uiso   1.00
C496   C     0.75004   0.25001   0.64488   0.00000  Uiso   1.00
C497   C     0.55320   0.28028   0.43456   0.00000  Uiso   1.00
C498   C     0.94523   0.21864   0.43582   0.00000  Uiso   1.00
C499   C     0.95800   0.29002   0.48542   0.00000  Uiso   1.00
C500   C     0.54152   0.21057   0.48663   0.00000  Uiso   1.00
C501   C     0.59787   0.28369   0.45252   0.00000  Uiso   1.00
C502   C     0.90145   0.21512   0.45506   0.00000  Uiso   1.00
C503   C     0.91210   0.28890   0.49944   0.00000  Uiso   1.00
C504   C     0.58793   0.21155   0.49970   0.00000  Uiso   1.00
C505   C     0.61513   0.24946   0.48518   0.00000  Uiso   1.00
C506   C     0.88476   0.25035   0.48642   0.00000  Uiso   1.00
C507   C     0.52406   0.24593   0.45469   0.00000  Uiso   1.00
C508   C     0.97478   0.25378   0.45447   0.00000  Uiso   1.00
H509   H     0.70949   0.12147   0.43405   0.00000  Uiso   1.00
H510   H     0.81546   0.37862   0.53444   0.00000  Uiso   1.00
H511   H     0.79058   0.12180   0.56591   0.00000  Uiso   1.00
H512   H     0.68458   0.37836   0.46550   0.00000  Uiso   1.00
H513   H     0.61964   0.31187   0.43928   0.00000  Uiso   1.00
H514   H     0.87970   0.18610   0.44325   0.00000  Uiso   1.00
H515   H     0.89800   0.31725   0.52146   0.00000  Uiso   1.00
H516   H     0.60252   0.18380   0.52253   0.00000  Uiso   1.00
H517   H     0.70942   0.03476   0.43194   0.00000  Uiso   1.00
H518   H     0.81739   0.46526   0.53421   0.00000  Uiso   1.00
H519   H     0.79071   0.03508   0.56804   0.00000  Uiso   1.00
H520   H     0.68269   0.46498   0.46579   0.00000  Uiso   1.00
N521   N     0.75000   0.12624   0.50000   0.00000  Uiso   1.00
N522   N     0.75000   0.37377   0.50000   0.00000  Uiso   1.00
O523   O     0.68453   0.28974   0.50000   0.00000  Uiso   1.00
O524   O     0.81547   0.21026   0.50000   0.00000  Uiso   1.00
O525   O     0.81547   0.28974   0.50000   0.00000  Uiso   1.00
O526   O     0.68453   0.21026   0.50000   0.00000  Uiso   1.00
O527   O     0.75000   0.28973   0.42845   0.00000  Uiso   1.00
O528   O     0.75000   0.21027   0.57155   0.00000  Uiso   1.00
O529   O     0.75000   0.28973   0.57155   0.00000  Uiso   1.00
O530   O     0.75000   0.21027   0.42845   0.00000  Uiso   1.00
Zn531  Zn    0.75000   0.30307   0.50000   0.00000  Uiso   1.00
Zn532  Zn    0.75000   0.19693   0.50000   0.00000  Uiso   1.00
O533   O     0.53782   0.31112   0.39804   0.00000  Uiso   1.00
C534   C     0.54321   0.28956   0.35052   0.00000  Uiso   1.00
H535   H     0.51421   0.30077   0.65954   0.00000  Uiso   1.00
H536   H     0.54151   0.25017   0.35165   0.00000  Uiso   1.00
C537   C     0.58783   0.30577   0.65942   0.00000  Uiso   1.00
H538   H     0.58422   0.34300   0.64708   0.00000  Uiso   1.00
H539   H     0.61671   0.30394   0.35322   0.00000  Uiso   1.00
C540   C     0.59988   0.27493   0.61468   0.00000  Uiso   1.00
H541   H     0.60743   0.23838   0.62717   0.00000  Uiso   1.00
H542   H     0.63068   0.28938   0.59618   0.00000  Uiso   1.00
H543   H     0.57125   0.27391   0.58719   0.00000  Uiso   1.00
O544   O     0.95976   0.18603   0.40098   0.00000  Uiso   1.00
C545   C     0.94858   0.20265   0.35227   0.00000  Uiso   1.00
H546   H     0.97157   0.18465   0.65903   0.00000  Uiso   1.00
H547   H     0.95516   0.24117   0.34792   0.00000  Uiso   1.00
C548   C     0.89865   0.19136   0.33759   0.00000  Uiso   1.00
H549   H     0.89083   0.15394   0.34642   0.00000  Uiso   1.00
H550   H     0.87523   0.21428   0.35909   0.00000  Uiso   1.00
C551   C     0.88905   0.20020   0.61548   0.00000  Uiso   1.00
H552   H     0.90131   0.23575   0.60435   0.00000  Uiso   1.00
H553   H     0.85164   0.19812   0.60809   0.00000  Uiso   1.00
H554   H     0.90585   0.17292   0.59242   0.00000  Uiso   1.00
O555   O     0.98647   0.32736   0.49888   0.00000  Uiso   1.00
C556   C     0.98790   0.33452   0.55134   0.00000  Uiso   1.00
H557   H     0.52438   0.33469   0.56309   0.00000  Uiso   1.00
H558   H     0.97089   0.30623   0.57349   0.00000  Uiso   1.00
C559   C     0.96795   0.38287   0.56410   0.00000  Uiso   1.00
H560   H     0.98784   0.41074   0.54477   0.00000  Uiso   1.00
H561   H     0.93190   0.38515   0.55088   0.00000  Uiso   1.00
C562   C     0.96967   0.39203   0.62035   0.00000  Uiso   1.00
H563   H     0.94937   0.36498   0.64041   0.00000  Uiso   1.00
H564   H     0.95506   0.42730   0.62838   0.00000  Uiso   1.00
H565   H     0.50560   0.39125   0.63431   0.00000  Uiso   1.00
O566   O     0.51300   0.17416   0.50187   0.00000  Uiso   1.00
C567   C     0.51517   0.16679   0.55424   0.00000  Uiso   1.00
H568   H     0.97979   0.16865   0.56829   0.00000  Uiso   1.00
H569   H     0.53494   0.19402   0.57554   0.00000  Uiso   1.00
C570   C     0.53395   0.11749   0.56525   0.00000  Uiso   1.00
H571   H     0.51238   0.09074   0.54569   0.00000  Uiso   1.00
H572   H     0.56934   0.11441   0.55103   0.00000  Uiso   1.00
C573   C     0.53429   0.10700   0.62122   0.00000  Uiso   1.00
H574   H     0.55467   0.13399   0.64185   0.00000  Uiso   1.00
H575   H     0.54984   0.07186   0.62801   0.00000  Uiso   1.00
H576   H     0.99880   0.10653   0.63559   0.00000  Uiso   1.00
C577   C     0.16328   0.74993   0.49806   0.00000  Uiso   1.00
C578   C     0.33676   0.75006   0.49875   0.00000  Uiso   1.00
C579   C     0.22734   0.60217   0.46316   0.00000  Uiso   1.00
C580   C     0.28657   0.89786   0.51927   0.00000  Uiso   1.00
C581   C     0.27272   0.60235   0.53683   0.00000  Uiso   1.00
C582   C     0.21346   0.89771   0.48072   0.00000  Uiso   1.00
C583   C     0.22705   0.55256   0.46236   0.00000  Uiso   1.00
C584   C     0.28736   0.94747   0.51949   0.00000  Uiso   1.00
C585   C     0.27305   0.55274   0.53763   0.00000  Uiso   1.00
C586   C     0.21271   0.94731   0.48052   0.00000  Uiso   1.00
C587   C     0.24997   0.74998   0.40617   0.00000  Uiso   1.00
C588   C     0.25005   0.75001   0.59382   0.00000  Uiso   1.00
C589   C     0.25005   0.52671   0.50000   0.00000  Uiso   1.00
C590   C     0.25004   0.97334   0.50001   0.00000  Uiso   1.00
C591   C     0.25001   0.74997   0.35511   0.00000  Uiso   1.00
C592   C     0.25004   0.75001   0.64488   0.00000  Uiso   1.00
C593   C     0.05320   0.78028   0.43456   0.00000  Uiso   1.00
C594   C     0.44523   0.71864   0.43582   0.00000  Uiso   1.00
C595   C     0.45800   0.79002   0.48542   0.00000  Uiso   1.00
C596   C     0.04152   0.71057   0.48663   0.00000  Uiso   1.00
C597   C     0.09787   0.78369   0.45252   0.00000  Uiso   1.00
C598   C     0.40145   0.71512   0.45506   0.00000  Uiso   1.00
C599   C     0.41210   0.78890   0.49944   0.00000  Uiso   1.00
C600   C     0.08793   0.71155   0.49970   0.00000  Uiso   1.00
C601   C     0.11513   0.74946   0.48518   0.00000  Uiso   1.00
C602   C     0.38476   0.75035   0.48642   0.00000  Uiso   1.00
C603   C     0.02406   0.74593   0.45469   0.00000  Uiso   1.00
C604   C     0.47478   0.75378   0.45447   0.00000  Uiso   1.00
H605   H     0.20949   0.62147   0.43405   0.00000  Uiso   1.00
H606   H     0.31546   0.87862   0.53444   0.00000  Uiso   1.00
H607   H     0.29058   0.62180   0.56591   0.00000  Uiso   1.00
H608   H     0.18458   0.87836   0.46550   0.00000  Uiso   1.00
H609   H     0.11964   0.81187   0.43928   0.00000  Uiso   1.00
H610   H     0.37970   0.68610   0.44325   0.00000  Uiso   1.00
H611   H     0.39800   0.81725   0.52146   0.00000  Uiso   1.00
H612   H     0.10252   0.68380   0.52253   0.00000  Uiso   1.00
H613   H     0.20942   0.53476   0.43194   0.00000  Uiso   1.00
H614   H     0.31739   0.96526   0.53421   0.00000  Uiso   1.00
H615   H     0.29071   0.53508   0.56804   0.00000  Uiso   1.00
H616   H     0.18269   0.96498   0.46579   0.00000  Uiso   1.00
N617   N     0.25000   0.62624   0.50000   0.00000  Uiso   1.00
N618   N     0.25000   0.87377   0.50000   0.00000  Uiso   1.00
O619   O     0.18453   0.78974   0.50000   0.00000  Uiso   1.00
O620   O     0.31547   0.71026   0.50000   0.00000  Uiso   1.00
O621   O     0.31547   0.78974   0.50000   0.00000  Uiso   1.00
O622   O     0.18453   0.71026   0.50000   0.00000  Uiso   1.00
O623   O     0.25000   0.78973   0.42845   0.00000  Uiso   1.00
O624   O     0.25000   0.71027   0.57155   0.00000  Uiso   1.00
O625   O     0.25000   0.78973   0.57155   0.00000  Uiso   1.00
O626   O     0.25000   0.71027   0.42845   0.00000  Uiso   1.00
Zn627  Zn    0.25000   0.80307   0.50000   0.00000  Uiso   1.00
Zn628  Zn    0.25000   0.69693   0.50000   0.00000  Uiso   1.00
O629   O     0.03782   0.81112   0.39804   0.00000  Uiso   1.00
C630   C     0.04321   0.78956   0.35052   0.00000  Uiso   1.00
H631   H     0.01421   0.80077   0.65954   0.00000  Uiso   1.00
H632   H     0.04151   0.75017   0.35165   0.00000  Uiso   1.00
C633   C     0.08783   0.80577   0.65942   0.00000  Uiso   1.00
H634   H     0.08422   0.84300   0.64708   0.00000  Uiso   1.00
H635   H     0.11671   0.80394   0.35322   0.00000  Uiso   1.00
C636   C     0.09988   0.77493   0.61468   0.00000  Uiso   1.00
H637   H     0.10743   0.73838   0.62717   0.00000  Uiso   1.00
H638   H     0.13068   0.78938   0.59618   0.00000  Uiso   1.00
H639   H     0.07125   0.77391   0.58719   0.00000  Uiso   1.00
O640   O     0.45976   0.68603   0.40098   0.00000  Uiso   1.00
C641   C     0.44858   0.70265   0.35227   0.00000  Uiso   1.00
H642   H     0.47157   0.68465   0.65903   0.00000  Uiso   1.00
H643   H     0.45516   0.74117   0.34792   0.00000  Uiso   1.00
C644   C     0.39865   0.69136   0.33759   0.00000  Uiso   1.00
H645   H     0.39083   0.65394   0.34642   0.00000  Uiso   1.00
H646   H     0.37523   0.71428   0.35909   0.00000  Uiso   1.00
C647   C     0.38905   0.70020   0.61548   0.00000  Uiso   1.00
H648   H     0.40131   0.73575   0.60435   0.00000  Uiso   1.00
H649   H     0.35164   0.69812   0.60809   0.00000  Uiso   1.00
H650   H     0.40585   0.67292   0.59242   0.00000  Uiso   1.00
O651   O     0.48647   0.82736   0.49888   0.00000  Uiso   1.00
C652   C     0.48790   0.83452   0.55134   0.00000  Uiso   1.00
H653   H     0.02438   0.83469   0.56309   0.00000  Uiso   1.00
H654   H     0.47089   0.80623   0.57349   0.00000  Uiso   1.00
C655   C     0.46795   0.88287   0.56410   0.00000  Uiso   1.00
H656   H     0.48784   0.91074   0.54477   0.00000  Uiso   1.00
H657   H     0.43190   0.88515   0.55088   0.00000  Uiso   1.00
C658   C     0.46967   0.89203   0.62035   0.00000  Uiso   1.00
H659   H     0.44937   0.86498   0.64041   0.00000  Uiso   1.00
H660   H     0.45506   0.92730   0.62838   0.00000  Uiso   1.00
H661   H     0.00560   0.89125   0.63431   0.00000  Uiso   1.00
O662   O     0.01300   0.67416   0.50187   0.00000  Uiso   1.00
C663   C     0.01517   0.66679   0.55424   0.00000  Uiso   1.00
H664   H     0.47979   0.66865   0.56829   0.00000  Uiso   1.00
H665   H     0.03494   0.69402   0.57554   0.00000  Uiso   1.00
C666   C     0.03395   0.61749   0.56525   0.00000  Uiso   1.00
H667   H     0.01238   0.59074   0.54569   0.00000  Uiso   1.00
H668   H     0.06934   0.61441   0.55103   0.00000  Uiso   1.00
C669   C     0.03429   0.60700   0.62122   0.00000  Uiso   1.00
H670   H     0.05467   0.63399   0.64185   0.00000  Uiso   1.00
H671   H     0.04984   0.57186   0.62801   0.00000  Uiso   1.00
H672   H     0.49880   0.60653   0.63559   0.00000  Uiso   1.00
C673   C     0.66328   0.74993   0.49806   0.00000  Uiso   1.00
C674   C     0.83676   0.75006   0.49875   0.00000  Uiso   1.00
C675   C     0.72734   0.60217   0.46316   0.00000  Uiso   1.00
C676   C     0.78657   0.89786   0.51927   0.00000  Uiso   1.00
C677   C     0.77272   0.60235   0.53683   0.00000  Uiso   1.00
C678   C     0.71346   0.89771   0.48072   0.00000  Uiso   1.00
C679   C     0.72705   0.55256   0.46236   0.00000  Uiso   1.00
C680   C     0.78736   0.94747   0.51949   0.00000  Uiso   1.00
C681   C     0.77305   0.55274   0.53763   0.00000  Uiso   1.00
C682   C     0.71271   0.94731   0.48052   0.00000  Uiso   1.00
C683   C     0.74997   0.74998   0.40617   0.00000  Uiso   1.00
C684   C     0.75005   0.75001   0.59382   0.00000  Uiso   1.00
C685   C     0.75005   0.52671   0.50000   0.00000  Uiso   1.00
C686   C     0.75004   0.97334   0.50001   0.00000  Uiso   1.00
C687   C     0.75001   0.74997   0.35511   0.00000  Uiso   1.00
C688   C     0.75004   0.75001   0.64488   0.00000  Uiso   1.00
C689   C     0.55320   0.78028   0.43456   0.00000  Uiso   1.00
C690   C     0.94523   0.71864   0.43582   0.00000  Uiso   1.00
C691   C     0.95800   0.79002   0.48542   0.00000  Uiso   1.00
C692   C     0.54152   0.71057   0.48663   0.00000  Uiso   1.00
C693   C     0.59787   0.78369   0.45252   0.00000  Uiso   1.00
C694   C     0.90145   0.71512   0.45506   0.00000  Uiso   1.00
C695   C     0.91210   0.78890   0.49944   0.00000  Uiso   1.00
C696   C     0.58793   0.71155   0.49970   0.00000  Uiso   1.00
C697   C     0.61513   0.74946   0.48518   0.00000  Uiso   1.00
C698   C     0.88476   0.75035   0.48642   0.00000  Uiso   1.00
C699   C     0.52406   0.74593   0.45469   0.00000  Uiso   1.00
C700   C     0.97478   0.75378   0.45447   0.00000  Uiso   1.00
H701   H     0.70949   0.62147   0.43405   0.00000  Uiso   1.00
H702   H     0.81546   0.87862   0.53444   0.00000  Uiso   1.00
H703   H     0.79058   0.62180   0.56591   0.00000  Uiso   1.00
H704   H     0.68458   0.87836   0.46550   0.00000  Uiso   1.00
H705   H     0.61964   0.81187   0.43928   0.00000  Uiso   1.00
H706   H     0.87970   0.68610   0.44325   0.00000  Uiso   1.00
H707   H     0.89800   0.81725   0.52146   0.00000  Uiso   1.00
H708   H     0.60252   0.68380   0.52253   0.00000  Uiso   1.00
H709   H     0.70942   0.53476   0.43194   0.00000  Uiso   1.00
H710   H     0.81739   0.96526   0.53421   0.00000  Uiso   1.00
H711   H     0.79071   0.53508   0.56804   0.00000  Uiso   1.00
H712   H     0.68269   0.96498   0.46579   0.00000  Uiso   1.00
N713   N     0.75000   0.62624   0.50000   0.00000  Uiso   1.00
N714   N     0.75000   0.87377   0.50000   0.00000  Uiso   1.00
O715   O     0.68453   0.78974   0.50000   0.00000  Uiso   1.00
O716   O     0.81547   0.71026   0.50000   0.00000  Uiso   1.00
O717   O     0.81547   0.78974   0.50000   0.00000  Uiso   1.00
O718   O     0.68453   0.71026   0.50000   0.00000  Uiso   1.00
O719   O     0.75000   0.78973   0.42845   0.00000  Uiso   1.00
O720   O     0.75000   0.71027   0.57155   0.00000  Uiso   1.00
O721   O     0.75000   0.78973   0.57155   0.00000  Uiso   1.00
O722   O     0.75000   0.71027   0.42845   0.00000  Uiso   1.00
Zn723  Zn    0.75000   0.80307   0.50000   0.00000  Uiso   1.00
Zn724  Zn    0.75000   0.69693   0.50000   0.00000  Uiso   1.00
O725   O     0.53782   0.81112   0.39804   0.00000  Uiso   1.00
C726   C     0.54321   0.78956   0.35052   0.00000  Uiso   1.00
H727   H     0.51421   0.80077   0.65954   0.00000  Uiso   1.00
H728   H     0.54151   0.75017   0.35165   0.00000  Uiso   1.00
C729   C     0.58783   0.80577   0.65942   0.00000  Uiso   1.00
H730   H     0.58422   0.84300   0.64708   0.00000  Uiso   1.00
H731   H     0.61671   0.80394   0.35322   0.00000  Uiso   1.00
C732   C     0.59988   0.77493   0.61468   0.00000  Uiso   1.00
H733   H     0.60743   0.73838   0.62717   0.00000  Uiso   1.00
H734   H     0.63068   0.78938   0.59618   0.00000  Uiso   1.00
H735   H     0.57125   0.77391   0.58719   0.00000  Uiso   1.00
O736   O     0.95976   0.68603   0.40098   0.00000  Uiso   1.00
C737   C     0.94858   0.70265   0.35227   0.00000  Uiso   1.00
H738   H     0.97157   0.68465   0.65903   0.00000  Uiso   1.00
H739   H     0.95516   0.74117   0.34792   0.00000  Uiso   1.00
C740   C     0.89865   0.69136   0.33759   0.00000  Uiso   1.00
H741   H     0.89083   0.65394   0.34642   0.00000  Uiso   1.00
H742   H     0.87523   0.71428   0.35909   0.00000  Uiso   1.00
C743   C     0.88905   0.70020   0.61548   0.00000  Uiso   1.00
H744   H     0.90131   0.73575   0.60435   0.00000  Uiso   1.00
H745   H     0.85164   0.69812   0.60809   0.00000  Uiso   1.00
H746   H     0.90585   0.67292   0.59242   0.00000  Uiso   1.00
O747   O     0.98647   0.82736   0.49888   0.00000  Uiso   1.00
C748   C     0.98790   0.83452   0.55134   0.00000  Uiso   1.00
H749   H     0.52438   0.83469   0.56309   0.00000  Uiso   1.00
H750   H     0.97089   0.80623   0.57349   0.00000  Uiso   1.00
C751   C     0.96795   0.88287   0.56410   0.00000  Uiso   1.00
H752   H     0.98784   0.91074   0.54477   0.00000  Uiso   1.00
H753   H     0.93190   0.88515   0.55088   0.00000  Uiso   1.00
C754   C     0.96967   0.89203   0.62035   0.00000  Uiso   1.00
H755   H     0.94937   0.86498   0.64041   0.00000  Uiso   1.00
H756   H     0.95506   0.92730   0.62838   0.00000  Uiso   1.00
H757   H     0.50560   0.89125   0.63431   0.00000  Uiso   1.00
O758   O     0.51300   0.67416   0.50187   0.00000  Uiso   1.00
C759   C     0.51517   0.66679   0.55424   0.00000  Uiso   1.00
H760   H     0.97979   0.66865   0.56829   0.00000  Uiso   1.00
H761   H     0.53494   0.69402   0.57554   0.00000  Uiso   1.00
C762   C     0.53395   0.61749   0.56525   0.00000  Uiso   1.00
H763   H     0.51238   0.59074   0.54569   0.00000  Uiso   1.00
H764   H     0.56934   0.61441   0.55103   0.00000  Uiso   1.00
C765   C     0.53429   0.60700   0.62122   0.00000  Uiso   1.00
H766   H     0.55467   0.63399   0.64185   0.00000  Uiso   1.00
H767   H     0.54984   0.57186   0.62801   0.00000  Uiso   1.00
H768   H     0.99880   0.60653   0.63559   0.00000  Uiso   1.00
C769   C     0.16328   0.24993   0.83139   0.00000  Uiso   1.00
C770   C     0.33676   0.25006   0.83208   0.00000  Uiso   1.00
C771   C     0.22734   0.10217   0.79649   0.00000  Uiso   1.00
C772   C     0.28657   0.39786   0.85260   0.00000  Uiso   1.00
C773   C     0.27272   0.10235   0.87016   0.00000  Uiso   1.00
C774   C     0.21346   0.39771   0.81405   0.00000  Uiso   1.00
C775   C     0.22705   0.05256   0.79569   0.00000  Uiso   1.00
C776   C     0.28736   0.44747   0.85282   0.00000  Uiso   1.00
C777   C     0.27305   0.05274   0.87097   0.00000  Uiso   1.00
C778   C     0.21271   0.44731   0.81386   0.00000  Uiso   1.00
C779   C     0.24997   0.24998   0.73951   0.00000  Uiso   1.00
C780   C     0.25005   0.25001   0.92716   0.00000  Uiso   1.00
C781   C     0.25005   0.02671   0.83334   0.00000  Uiso   1.00
C782   C     0.25004   0.47334   0.83334   0.00000  Uiso   1.00
C783   C     0.25001   0.24997   0.68845   0.00000  Uiso   1.00
C784   C     0.25004   0.25001   0.97821   0.00000  Uiso   1.00
C785   C     0.05320   0.28028   0.76789   0.00000  Uiso   1.00
C786   C     0.44523   0.21864   0.76916   0.00000  Uiso   1.00
C787   C     0.45800   0.29002   0.81876   0.00000  Uiso   1.00
C788   C     0.04152   0.21057   0.81996   0.00000  Uiso   1.00
C789   C     0.09787   0.28369   0.78585   0.00000  Uiso   1.00
C790   C     0.40145   0.21512   0.78840   0.00000  Uiso   1.00
C791   C     0.41210   0.28890   0.83278   0.00000  Uiso   1.00
C792   C     0.08793   0.21155   0.83304   0.00000  Uiso   1.00
C793   C     0.11513   0.24946   0.81852   0.00000  Uiso   1.00
C794   C     0.38476   0.25035   0.81975   0.00000  Uiso   1.00
C795   C     0.02406   0.24593   0.78803   0.00000  Uiso   1.00
C796   C     0.47478   0.25378   0.78781   0.00000  Uiso   1.00
H797   H     0.20949   0.12147   0.76738   0.00000  Uiso   1.00
H798   H     0.31546   0.37862   0.86778   0.00000  Uiso   1.00
H799   H     0.29058   0.12180   0.89925   0.00000  Uiso   1.00
H800   H     0.18458   0.37836   0.79883   0.00000  Uiso   1.00
H801   H     0.11964   0.31187   0.77261   0.00000  Uiso   1.00
H802   H     0.37970   0.18610   0.77659   0.00000  Uiso   1.00
H803   H     0.39800   0.31725   0.85479   0.00000  Uiso   1.00
H804   H     0.10252   0.18380   0.85586   0.00000  Uiso   1.00
H805   H     0.20942   0.03476   0.76528   0.00000  Uiso   1.00
H806   H     0.31739   0.46526   0.86755   0.00000  Uiso   1.00
H807   H     0.29071   0.03508   0.90137   0.00000  Uiso   1.00
H808   H     0.18269   0.46498   0.79913   0.00000  Uiso   1.00
N809   N     0.25000   0.12624   0.83333   0.00000  Uiso   1.00
N810   N     0.25000   0.37377   0.83333   0.00000  Uiso   1.00
O811   O     0.18453   0.28974   0.83334   0.00000  Uiso   1.00
O812   O     0.31547   0.21026   0.83333   0.00000  Uiso   1.00
O813   O     0.31547   0.28974   0.83333   0.00000  Uiso   1.00
O814   O     0.18453   0.21026   0.83334   0.00000  Uiso   1.00
O815   O     0.25000   0.28973   0.76178   0.00000  Uiso   1.00
O816   O     0.25000   0.21027   0.90489   0.00000  Uiso   1.00
O817   O     0.25000   0.28973   0.90489   0.00000  Uiso   1.00
O818   O     0.25000   0.21027   0.76178   0.00000  Uiso   1.00
Zn819  Zn    0.25000   0.30307   0.83333   0.00000  Uiso   1.00
Zn820  Zn    0.25000   0.19693   0.83333   0.00000  Uiso   1.00
O821   O     0.03782   0.31112   0.73137   0.00000  Uiso   1.00
C822   C     0.04321   0.28956   0.68385   0.00000  Uiso   1.00
H823   H     0.01421   0.30077   0.99287   0.00000  Uiso   1.00
H824   H     0.04151   0.25017   0.68498   0.00000  Uiso   1.00
C825   C     0.08783   0.30577   0.99275   0.00000  Uiso   1.00
H826   H     0.08422   0.34300   0.98041   0.00000  Uiso   1.00
H827   H     0.11671   0.30394   0.68655   0.00000  Uiso   1.00
C828   C     0.09988   0.27493   0.94801   0.00000  Uiso   1.00
H829   H     0.10743   0.23838   0.96050   0.00000  Uiso   1.00
H830   H     0.13068   0.28938   0.92952   0.00000  Uiso   1.00
H831   H     0.07125   0.27391   0.92052   0.00000  Uiso   1.00
O832   O     0.45976   0.18603   0.73432   0.00000  Uiso   1.00
C833   C     0.44858   0.20265   0.68560   0.00000  Uiso   1.00
H834   H     0.47157   0.18465   0.99236   0.00000  Uiso   1.00
H835   H     0.45516   0.24117   0.68126   0.00000  Uiso   1.00
C836   C     0.39865   0.19136   0.67092   0.00000  Uiso   1.00
H837   H     0.39083   0.15394   0.67976   0.00000  Uiso   1.00
H838   H     0.37523   0.21428   0.69242   0.00000  Uiso   1.00
C839   C     0.38905   0.20020   0.94881   0.00000  Uiso   1.00
H840   H     0.40131   0.23575   0.93768   0.00000  Uiso   1.00
H841   H     0.35164   0.19812   0.94142   0.00000  Uiso   1.00
H842   H     0.40585   0.17292   0.92576   0.00000  Uiso   1.00
O843   O     0.48647   0.32736   0.83221   0.00000  Uiso   1.00
C844   C     0.48790   0.33452   0.88467   0.00000  Uiso   1.00
H845   H     0.02438   0.33469   0.89643   0.00000  Uiso   1.00
H846   H     0.47089   0.30623   0.90683   0.00000  Uiso   1.00
C847   C     0.46795   0.38287   0.89743   0.00000  Uiso   1.00
H848   H     0.48784   0.41074   0.87811   0.00000  Uiso   1.00
H849   H     0.43190   0.38515   0.88421   0.00000  Uiso   1.00
C850   C     0.46967   0.39203   0.95368   0.00000  Uiso   1.00
H851   H     0.44937   0.36498   0.97374   0.00000  Uiso   1.00
H852   H     0.45506   0.42730   0.96171   0.00000  Uiso   1.00
H853   H     0.00560   0.39125   0.96764   0.00000  Uiso   1.00
O854   O     0.01300   0.17416   0.83521   0.00000  Uiso   1.00
C855   C     0.01517   0.16679   0.88758   0.00000  Uiso   1.00
H856   H     0.47979   0.16865   0.90162   0.00000  Uiso   1.00
H857   H     0.03494   0.19402   0.90888   0.00000  Uiso   1.00
C858   C     0.03395   0.11749   0.89858   0.00000  Uiso   1.00
H859   H     0.01238   0.09074   0.87902   0.00000  Uiso   1.00
H860   H     0.06934   0.11441   0.88436   0.00000  Uiso   1.00
C861   C     0.03429   0.10700   0.95455   0.00000  Uiso   1.00
H862   H     0.05467   0.13399   0.97518   0.00000  Uiso   1.00
H863   H     0.04984   0.07186   0.96134   0.00000  Uiso   1.00
H864   H     0.49880   0.10653   0.96893   0.00000  Uiso   1.00
C865   C     0.66328   0.24993   0.83139   0.00000  Uiso   1.00
C866   C     0.83676   0.25006   0.83208   0.00000  Uiso   1.00
C867   C     0.72734   0.10217   0.79649   0.00000  Uiso   1.00
C868   C     0.78657   0.39786   0.85260   0.00000  Uiso   1.00
C869   C     0.77272   0.10235   0.87016   0.00000  Uiso   1.00
C870   C     0.71346   0.39771   0.81405   0.00000  Uiso   1.00
C871   C     0.72705   0.05256   0.79569   0.00000  Uiso   1.00
C872   C     0.78736   0.44747   0.85282   0.00000  Uiso   1.00
C873   C     0.77305   0.05274   0.87097   0.00000  Uiso   1.00
C874   C     0.71271   0.44731   0.81386   0.00000  Uiso   1.00
C875   C     0.74997   0.24998   0.73951   0.00000  Uiso   1.00
C876   C     0.75005   0.25001   0.92716   0.00000  Uiso   1.00
C877   C     0.75005   0.02671   0.83334   0.00000  Uiso   1.00
C878   C     0.75004   0.47334   0.83334   0.00000  Uiso   1.00
C879   C     0.75001   0.24997   0.68845   0.00000  Uiso   1.00
C880   C     0.75004   0.25001   0.97821   0.00000  Uiso   1.00
C881   C     0.55320   0.28028   0.76789   0.00000  Uiso   1.00
C882   C     0.94523   0.21864   0.76916   0.00000  Uiso   1.00
C883   C     0.95800   0.29002   0.81876   0.00000  Uiso   1.00
C884   C     0.54152   0.21057   0.81996   0.00000  Uiso   1.00
C885   C     0.59787   0.28369   0.78585   0.00000  Uiso   1.00
C886   C     0.90145   0.21512   0.78840   0.00000  Uiso   1.00
C887   C     0.91210   0.28890   0.83278   0.00000  Uiso   1.00
C888   C     0.58793   0.21155   0.83304   0.00000  Uiso   1.00
C889   C     0.61513   0.24946   0.81852   0.00000  Uiso   1.00
C890   C     0.88476   0.25035   0.81975   0.00000  Uiso   1.00
C891   C     0.52406   0.24593   0.78803   0.00000  Uiso   1.00
C892   C     0.97478   0.25378   0.78781   0.00000  Uiso   1.00
H893   H     0.70949   0.12147   0.76738   0.00000  Uiso   1.00
H894   H     0.81546   0.37862   0.86778   0.00000  Uiso   1.00
H895   H     0.79058   0.12180   0.89925   0.00000  Uiso   1.00
H896   H     0.68458   0.37836   0.79883   0.00000  Uiso   1.00
H897   H     0.61964   0.31187   0.77261   0.00000  Uiso   1.00
H898   H     0.87970   0.18610   0.77659   0.00000  Uiso   1.00
H899   H     0.89800   0.31725   0.85479   0.00000  Uiso   1.00
H900   H     0.60252   0.18380   0.85586   0.00000  Uiso   1.00
H901   H     0.70942   0.03476   0.76528   0.00000  Uiso   1.00
H902   H     0.81739   0.46526   0.86755   0.00000  Uiso   1.00
H903   H     0.79071   0.03508   0.90137   0.00000  Uiso   1.00
H904   H     0.68269   0.46498   0.79913   0.00000  Uiso   1.00
N905   N     0.75000   0.12624   0.83333   0.00000  Uiso   1.00
N906   N     0.75000   0.37377   0.83333   0.00000  Uiso   1.00
O907   O     0.68453   0.28974   0.83334   0.00000  Uiso   1.00
O908   O     0.81547   0.21026   0.83333   0.00000  Uiso   1.00
O909   O     0.81547   0.28974   0.83333   0.00000  Uiso   1.00
O910   O     0.68453   0.21026   0.83334   0.00000  Uiso   1.00
O911   O     0.75000   0.28973   0.76178   0.00000  Uiso   1.00
O912   O     0.75000   0.21027   0.90489   0.00000  Uiso   1.00
O913   O     0.75000   0.28973   0.90489   0.00000  Uiso   1.00
O914   O     0.75000   0.21027   0.76178   0.00000  Uiso   1.00
Zn915  Zn    0.75000   0.30307   0.83333   0.00000  Uiso   1.00
Zn916  Zn    0.75000   0.19693   0.83333   0.00000  Uiso   1.00
O917   O     0.53782   0.31112   0.73137   0.00000  Uiso   1.00
C918   C     0.54321   0.28956   0.68385   0.00000  Uiso   1.00
H919   H     0.51421   0.30077   0.99287   0.00000  Uiso   1.00
H920   H     0.54151   0.25017   0.68498   0.00000  Uiso   1.00
C921   C     0.58783   0.30577   0.99275   0.00000  Uiso   1.00
H922   H     0.58422   0.34300   0.98041   0.00000  Uiso   1.00
H923   H     0.61671   0.30394   0.68655   0.00000  Uiso   1.00
C924   C     0.59988   0.27493   0.94801   0.00000  Uiso   1.00
H925   H     0.60743   0.23838   0.96050   0.00000  Uiso   1.00
H926   H     0.63068   0.28938   0.92952   0.00000  Uiso   1.00
H927   H     0.57125   0.27391   0.92052   0.00000  Uiso   1.00
O928   O     0.95976   0.18603   0.73432   0.00000  Uiso   1.00
C929   C     0.94858   0.20265   0.68560   0.00000  Uiso   1.00
H930   H     0.97157   0.18465   0.99236   0.00000  Uiso   1.00
H931   H     0.95516   0.24117   0.68126   0.00000  Uiso   1.00
C932   C     0.89865   0.19136   0.67092   0.00000  Uiso   1.00
H933   H     0.89083   0.15394   0.67976   0.00000  Uiso   1.00
H934   H     0.87523   0.21428   0.69242   0.00000  Uiso   1.00
C935   C     0.88905   0.20020   0.94881   0.00000  Uiso   1.00
H936   H     0.90131   0.23575   0.93768   0.00000  Uiso   1.00
H937   H     0.85164   0.19812   0.94142   0.00000  Uiso   1.00
H938   H     0.90585   0.17292   0.92576   0.00000  Uiso   1.00
O939   O     0.98647   0.32736   0.83221   0.00000  Uiso   1.00
C940   C     0.98790   0.33452   0.88467   0.00000  Uiso   1.00
H941   H     0.52438   0.33469   0.89643   0.00000  Uiso   1.00
H942   H     0.97089   0.30623   0.90683   0.00000  Uiso   1.00
C943   C     0.96795   0.38287   0.89743   0.00000  Uiso   1.00
H944   H     0.98784   0.41074   0.87811   0.00000  Uiso   1.00
H945   H     0.93190   0.38515   0.88421   0.00000  Uiso   1.00
C946   C     0.96967   0.39203   0.95368   0.00000  Uiso   1.00
H947   H     0.94937   0.36498   0.97374   0.00000  Uiso   1.00
H948   H     0.95506   0.42730   0.96171   0.00000  Uiso   1.00
H949   H     0.50560   0.39125   0.96764   0.00000  Uiso   1.00
O950   O     0.51300   0.17416   0.83521   0.00000  Uiso   1.00
C951   C     0.51517   0.16679   0.88758   0.00000  Uiso   1.00
H952   H     0.97979   0.16865   0.90162   0.00000  Uiso   1.00
H953   H     0.53494   0.19402   0.90888   0.00000  Uiso   1.00
C954   C     0.53395   0.11749   0.89858   0.00000  Uiso   1.00
H955   H     0.51238   0.09074   0.87902   0.00000  Uiso   1.00
H956   H     0.56934   0.11441   0.88436   0.00000  Uiso   1.00
C957   C     0.53429   0.10700   0.95455   0.00000  Uiso   1.00
H958   H     0.55467   0.13399   0.97518   0.00000  Uiso   1.00
H959   H     0.54984   0.07186   0.96134   0.00000  Uiso   1.00
H960   H     0.99880   0.10653   0.96893   0.00000  Uiso   1.00
C961   C     0.16328   0.74993   0.83139   0.00000  Uiso   1.00
C962   C     0.33676   0.75006   0.83208   0.00000  Uiso   1.00
C963   C     0.22734   0.60217   0.79649   0.00000  Uiso   1.00
C964   C     0.28657   0.89786   0.85260   0.00000  Uiso   1.00
C965   C     0.27272   0.60235   0.87016   0.00000  Uiso   1.00
C966   C     0.21346   0.89771   0.81405   0.00000  Uiso   1.00
C967   C     0.22705   0.55256   0.79569   0.00000  Uiso   1.00
C968   C     0.28736   0.94747   0.85282   0.00000  Uiso   1.00
C969   C     0.27305   0.55274   0.87097   0.00000  Uiso   1.00
C970   C     0.21271   0.94731   0.81386   0.00000  Uiso   1.00
C971   C     0.24997   0.74998   0.73951   0.00000  Uiso   1.00
C972   C     0.25005   0.75001   0.92716   0.00000  Uiso   1.00
C973   C     0.25005   0.52671   0.83334   0.00000  Uiso   1.00
C974   C     0.25004   0.97334   0.83334   0.00000  Uiso   1.00
C975   C     0.25001   0.74997   0.68845   0.00000  Uiso   1.00
C976   C     0.25004   0.75001   0.97821   0.00000  Uiso   1.00
C977   C     0.05320   0.78028   0.76789   0.00000  Uiso   1.00
C978   C     0.44523   0.71864   0.76916   0.00000  Uiso   1.00
C979   C     0.45800   0.79002   0.81876   0.00000  Uiso   1.00
C980   C     0.04152   0.71057   0.81996   0.00000  Uiso   1.00
C981   C     0.09787   0.78369   0.78585   0.00000  Uiso   1.00
C982   C     0.40145   0.71512   0.78840   0.00000  Uiso   1.00
C983   C     0.41210   0.78890   0.83278   0.00000  Uiso   1.00
C984   C     0.08793   0.71155   0.83304   0.00000  Uiso   1.00
C985   C     0.11513   0.74946   0.81852   0.00000  Uiso   1.00
C986   C     0.38476   0.75035   0.81975   0.00000  Uiso   1.00
C987   C     0.02406   0.74593   0.78803   0.00000  Uiso   1.00
C988   C     0.47478   0.75378   0.78781   0.00000  Uiso   1.00
H989   H     0.20949   0.62147   0.76738   0.00000  Uiso   1.00
H990   H     0.31546   0.87862   0.86778   0.00000  Uiso   1.00
H991   H     0.29058   0.62180   0.89925   0.00000  Uiso   1.00
H992   H     0.18458   0.87836   0.79883   0.00000  Uiso   1.00
H993   H     0.11964   0.81187   0.77261   0.00000  Uiso   1.00
H994   H     0.37970   0.68610   0.77659   0.00000  Uiso   1.00
H995   H     0.39800   0.81725   0.85479   0.00000  Uiso   1.00
H996   H     0.10252   0.68380   0.85586   0.00000  Uiso   1.00
H997   H     0.20942   0.53476   0.76528   0.00000  Uiso   1.00
H998   H     0.31739   0.96526   0.86755   0.00000  Uiso   1.00
H999   H     0.29071   0.53508   0.90137   0.00000  Uiso   1.00
H1000  H     0.18269   0.96498   0.79913   0.00000  Uiso   1.00
N1001  N     0.25000   0.62624   0.83333   0.00000  Uiso   1.00
N1002  N     0.25000   0.87377   0.83333   0.00000  Uiso   1.00
O1003  O     0.18453   0.78974   0.83334   0.00000  Uiso   1.00
O1004  O     0.31547   0.71026   0.83333   0.00000  Uiso   1.00
O1005  O     0.31547   0.78974   0.83333   0.00000  Uiso   1.00
O1006  O     0.18453   0.71026   0.83334   0.00000  Uiso   1.00
O1007  O     0.25000   0.78973   0.76178   0.00000  Uiso   1.00
O1008  O     0.25000   0.71027   0.90489   0.00000  Uiso   1.00
O1009  O     0.25000   0.78973   0.90489   0.00000  Uiso   1.00
O1010  O     0.25000   0.71027   0.76178   0.00000  Uiso   1.00
Zn1011 Zn    0.25000   0.80307   0.83333   0.00000  Uiso   1.00
Zn1012 Zn    0.25000   0.69693   0.83333   0.00000  Uiso   1.00
O1013  O     0.03782   0.81112   0.73137   0.00000  Uiso   1.00
C1014  C     0.04321   0.78956   0.68385   0.00000  Uiso   1.00
H1015  H     0.01421   0.80077   0.99287   0.00000  Uiso   1.00
H1016  H     0.04151   0.75017   0.68498   0.00000  Uiso   1.00
C1017  C     0.08783   0.80577   0.99275   0.00000  Uiso   1.00
H1018  H     0.08422   0.84300   0.98041   0.00000  Uiso   1.00
H1019  H     0.11671   0.80394   0.68655   0.00000  Uiso   1.00
C1020  C     0.09988   0.77493   0.94801   0.00000  Uiso   1.00
H1021  H     0.10743   0.73838   0.96050   0.00000  Uiso   1.00
H1022  H     0.13068   0.78938   0.92952   0.00000  Uiso   1.00
H1023  H     0.07125   0.77391   0.92052   0.00000  Uiso   1.00
O1024  O     0.45976   0.68603   0.73432   0.00000  Uiso   1.00
C1025  C     0.44858   0.70265   0.68560   0.00000  Uiso   1.00
H1026  H     0.47157   0.68465   0.99236   0.00000  Uiso   1.00
H1027  H     0.45516   0.74117   0.68126   0.00000  Uiso   1.00
C1028  C     0.39865   0.69136   0.67092   0.00000  Uiso   1.00
H1029  H     0.39083   0.65394   0.67976   0.00000  Uiso   1.00
H1030  H     0.37523   0.71428   0.69242   0.00000  Uiso   1.00
C1031  C     0.38905   0.70020   0.94881   0.00000  Uiso   1.00
H1032  H     0.40131   0.73575   0.93768   0.00000  Uiso   1.00
H1033  H     0.35164   0.69812   0.94142   0.00000  Uiso   1.00
H1034  H     0.40585   0.67292   0.92576   0.00000  Uiso   1.00
O1035  O     0.48647   0.82736   0.83221   0.00000  Uiso   1.00
C1036  C     0.48790   0.83452   0.88467   0.00000  Uiso   1.00
H1037  H     0.02438   0.83469   0.89643   0.00000  Uiso   1.00
H1038  H     0.47089   0.80623   0.90683   0.00000  Uiso   1.00
C1039  C     0.46795   0.88287   0.89743   0.00000  Uiso   1.00
H1040  H     0.48784   0.91074   0.87811   0.00000  Uiso   1.00
H1041  H     0.43190   0.88515   0.88421   0.00000  Uiso   1.00
C1042  C     0.46967   0.89203   0.95368   0.00000  Uiso   1.00
H1043  H     0.44937   0.86498   0.97374   0.00000  Uiso   1.00
H1044  H     0.45506   0.92730   0.96171   0.00000  Uiso   1.00
H1045  H     0.00560   0.89125   0.96764   0.00000  Uiso   1.00
O1046  O     0.01300   0.67416   0.83521   0.00000  Uiso   1.00
C1047  C     0.01517   0.66679   0.88758   0.00000  Uiso   1.00
H1048  H     0.47979   0.66865   0.90162   0.00000  Uiso   1.00
H1049  H     0.03494   0.69402   0.90888   0.00000  Uiso   1.00
C1050  C     0.03395   0.61749   0.89858   0.00000  Uiso   1.00
H1051  H     0.01238   0.59074   0.87902   0.00000  Uiso   1.00
H1052  H     0.06934   0.61441   0.88436   0.00000  Uiso   1.00
C1053  C     0.03429   0.60700   0.95455   0.00000  Uiso   1.00
H1054  H     0.05467   0.63399   0.97518   0.00000  Uiso   1.00
H1055  H     0.04984   0.57186   0.96134   0.00000  Uiso   1.00
H1056  H     0.49880   0.60653   0.96893   0.00000  Uiso   1.00
C1057  C     0.66328   0.74993   0.83139   0.00000  Uiso   1.00
C1058  C     0.83676   0.75006   0.83208   0.00000  Uiso   1.00
C1059  C     0.72734   0.60217   0.79649   0.00000  Uiso   1.00
C1060  C     0.78657   0.89786   0.85260   0.00000  Uiso   1.00
C1061  C     0.77272   0.60235   0.87016   0.00000  Uiso   1.00
C1062  C     0.71346   0.89771   0.81405   0.00000  Uiso   1.00
C1063  C     0.72705   0.55256   0.79569   0.00000  Uiso   1.00
C1064  C     0.78736   0.94747   0.85282   0.00000  Uiso   1.00
C1065  C     0.77305   0.55274   0.87097   0.00000  Uiso   1.00
C1066  C     0.71271   0.94731   0.81386   0.00000  Uiso   1.00
C1067  C     0.74997   0.74998   0.73951   0.00000  Uiso   1.00
C1068  C     0.75005   0.75001   0.92716   0.00000  Uiso   1.00
C1069  C     0.75005   0.52671   0.83334   0.00000  Uiso   1.00
C1070  C     0.75004   0.97334   0.83334   0.00000  Uiso   1.00
C1071  C     0.75001   0.74997   0.68845   0.00000  Uiso   1.00
C1072  C     0.75004   0.75001   0.97821   0.00000  Uiso   1.00
C1073  C     0.55320   0.78028   0.76789   0.00000  Uiso   1.00
C1074  C     0.94523   0.71864   0.76916   0.00000  Uiso   1.00
C1075  C     0.95800   0.79002   0.81876   0.00000  Uiso   1.00
C1076  C     0.54152   0.71057   0.81996   0.00000  Uiso   1.00
C1077  C     0.59787   0.78369   0.78585   0.00000  Uiso   1.00
C1078  C     0.90145   0.71512   0.78840   0.00000  Uiso   1.00
C1079  C     0.91210   0.78890   0.83278   0.00000  Uiso   1.00
C1080  C     0.58793   0.71155   0.83304   0.00000  Uiso   1.00
C1081  C     0.61513   0.74946   0.81852   0.00000  Uiso   1.00
C1082  C     0.88476   0.75035   0.81975   0.00000  Uiso   1.00
C1083  C     0.52406   0.74593   0.78803   0.00000  Uiso   1.00
C1084  C     0.97478   0.75378   0.78781   0.00000  Uiso   1.00
H1085  H     0.70949   0.62147   0.76738   0.00000  Uiso   1.00
H1086  H     0.81546   0.87862   0.86778   0.00000  Uiso   1.00
H1087  H     0.79058   0.62180   0.89925   0.00000  Uiso   1.00
H1088  H     0.68458   0.87836   0.79883   0.00000  Uiso   1.00
H1089  H     0.61964   0.81187   0.77261   0.00000  Uiso   1.00
H1090  H     0.87970   0.68610   0.77659   0.00000  Uiso   1.00
H1091  H     0.89800   0.81725   0.85479   0.00000  Uiso   1.00
H1092  H     0.60252   0.68380   0.85586   0.00000  Uiso   1.00
H1093  H     0.70942   0.53476   0.76528   0.00000  Uiso   1.00
H1094  H     0.81739   0.96526   0.86755   0.00000  Uiso   1.00
H1095  H     0.79071   0.53508   0.90137   0.00000  Uiso   1.00
H1096  H     0.68269   0.96498   0.79913   0.00000  Uiso   1.00
N1097  N     0.75000   0.62624   0.83333   0.00000  Uiso   1.00
N1098  N     0.75000   0.87377   0.83333   0.00000  Uiso   1.00
O1099  O     0.68453   0.78974   0.83334   0.00000  Uiso   1.00
O1100  O     0.81547   0.71026   0.83333   0.00000  Uiso   1.00
O1101  O     0.81547   0.78974   0.83333   0.00000  Uiso   1.00
O1102  O     0.68453   0.71026   0.83334   0.00000  Uiso   1.00
O1103  O     0.75000   0.78973   0.76178   0.00000  Uiso   1.00
O1104  O     0.75000   0.71027   0.90489   0.00000  Uiso   1.00
O1105  O     0.75000   0.78973   0.90489   0.00000  Uiso   1.00
O1106  O     0.75000   0.71027   0.76178   0.00000  Uiso   1.00
Zn1107 Zn    0.75000   0.80307   0.83333   0.00000  Uiso   1.00
Zn1108 Zn    0.75000   0.69693   0.83333   0.00000  Uiso   1.00
O1109  O     0.53782   0.81112   0.73137   0.00000  Uiso   1.00
C1110  C     0.54321   0.78956   0.68385   0.00000  Uiso   1.00
H1111  H     0.51421   0.80077   0.99287   0.00000  Uiso   1.00
H1112  H     0.54151   0.75017   0.68498   0.00000  Uiso   1.00
C1113  C     0.58783   0.80577   0.99275   0.00000  Uiso   1.00
H1114  H     0.58422   0.84300   0.98041   0.00000  Uiso   1.00
H1115  H     0.61671   0.80394   0.68655   0.00000  Uiso   1.00
C1116  C     0.59988   0.77493   0.94801   0.00000  Uiso   1.00
H1117  H     0.60743   0.73838   0.96050   0.00000  Uiso   1.00
H1118  H     0.63068   0.78938   0.92952   0.00000  Uiso   1.00
H1119  H     0.57125   0.77391   0.92052   0.00000  Uiso   1.00
O1120  O     0.95976   0.68603   0.73432   0.00000  Uiso   1.00
C1121  C     0.94858   0.70265   0.68560   0.00000  Uiso   1.00
H1122  H     0.97157   0.68465   0.99236   0.00000  Uiso   1.00
H1123  H     0.95516   0.74117   0.68126   0.00000  Uiso   1.00
C1124  C     0.89865   0.69136   0.67092   0.00000  Uiso   1.00
H1125  H     0.89083   0.65394   0.67976   0.00000  Uiso   1.00
H1126  H     0.87523   0.71428   0.69242   0.00000  Uiso   1.00
C1127  C     0.88905   0.70020   0.94881   0.00000  Uiso   1.00
H1128  H     0.90131   0.73575   0.93768   0.00000  Uiso   1.00
H1129  H     0.85164   0.69812   0.94142   0.00000  Uiso   1.00
H1130  H     0.90585   0.67292   0.92576   0.00000  Uiso   1.00
O1131  O     0.98647   0.82736   0.83221   0.00000  Uiso   1.00
C1132  C     0.98790   0.83452   0.88467   0.00000  Uiso   1.00
H1133  H     0.52438   0.83469   0.89643   0.00000  Uiso   1.00
H1134  H     0.97089   0.80623   0.90683   0.00000  Uiso   1.00
C1135  C     0.96795   0.88287   0.89743   0.00000  Uiso   1.00
H1136  H     0.98784   0.91074   0.87811   0.00000  Uiso   1.00
H1137  H     0.93190   0.88515   0.88421   0.00000  Uiso   1.00
C1138  C     0.96967   0.89203   0.95368   0.00000  Uiso   1.00
H1139  H     0.94937   0.86498   0.97374   0.00000  Uiso   1.00
H1140  H     0.95506   0.92730   0.96171   0.00000  Uiso   1.00
H1141  H     0.50560   0.89125   0.96764   0.00000  Uiso   1.00
O1142  O     0.51300   0.67416   0.83521   0.00000  Uiso   1.00
C1143  C     0.51517   0.66679   0.88758   0.00000  Uiso   1.00
H1144  H     0.97979   0.66865   0.90162   0.00000  Uiso   1.00
H1145  H     0.53494   0.69402   0.90888   0.00000  Uiso   1.00
C1146  C     0.53395   0.61749   0.89858   0.00000  Uiso   1.00
H1147  H     0.51238   0.59074   0.87902   0.00000  Uiso   1.00
H1148  H     0.56934   0.61441   0.88436   0.00000  Uiso   1.00
C1149  C     0.53429   0.60700   0.95455   0.00000  Uiso   1.00
H1150  H     0.55467   0.63399   0.97518   0.00000  Uiso   1.00
H1151  H     0.54984   0.57186   0.96134   0.00000  Uiso   1.00
H1152  H     0.99880   0.60653   0.96893   0.00000  Uiso   1.00
loop_
_geom_bond_atom_site_label_1
_geom_bond_atom_site_label_2
_geom_bond_distance
_geom_bond_site_symmetry_2
_ccdc_geom_bond_type
C1     O46     1.287   .     A
C1     O43     1.288   .     A
C1     C25     1.445   .     S
C2     O44     1.288   .     A
C2     O45     1.288   .     A
C2     C26     1.445   .     S
C3     C7      1.407   .     A
C3     H29     1.082   .     S
C3     N41     1.363   .     A
C4     C8      1.407   .     A
C4     N42     1.363   .     A
C4     H30     1.082   .     S
C5     C9      1.407   .     A
C5     N41     1.363   .     A
C5     H31     1.082   .     S
C6     H32     1.081   .     S
C6     N42     1.363   .     A
C6     C10     1.407   .     A
C7     C13     1.411   .     A
C7     H37     1.082   .     S
C8     H38     1.082   .     S
C8     C14     1.411   .     A
C9     H39     1.082   .     S
C9     C13     1.411   .     A
C10    H40     1.082   .     S
C10    C14     1.411   .     A
C11    O47     1.274   .     A
C11    C15     1.365   .     S
C11    O50     1.274   .     A
C12    O49     1.275   .     A
C12    O48     1.274   .     A
C12    C16     1.365   .     S
C13    C206    1.514   1_545 S
C14    C205    1.514   .     S
C15    C784    1.165   1_554 S
C16    C399    1.165   .     S
C17    C27     1.405   .     A
C17    C21     1.389   .     A
C17    O53     1.383   .     S
C18    O64     1.383   .     S
C18    C28     1.405   .     A
C18    C22     1.388   .     A
C19    C23     1.398   .     A
C19    C28     1.411   .     A
C19    O75     1.390   .     S
C20    C24     1.397   .     A
C20    O86     1.390   .     S
C20    C27     1.410   .     A
C21    H33     1.083   .     S
C21    C25     1.398   .     A
C22    H34     1.084   .     S
C22    C26     1.396   .     A
C23    C26     1.394   .     A
C23    H35     1.081   .     S
C24    H36     1.082   .     S
C24    C25     1.394   .     A
C27    C124    1.458   1_455 S
C28    C123    1.458   .     S
N41    Zn52    2.005   .     S
N42    Zn51    2.005   .     S
O43    Zn51    1.950   .     S
O44    Zn52    1.950   .     S
O45    Zn51    1.951   .     S
O46    Zn52    1.951   .     S
O47    Zn51    1.950   .     S
O48    Zn52    1.950   .     S
O49    Zn51    1.950   .     S
O50    Zn52    1.950   .     S
O53    C54     1.420   .     S
C54    H56     1.119   .     S
C54    H823    1.110   1_554 S
C54    C825    1.535   1_554 S
H55    C438    1.110   .     S
C57    C60     1.526   .     S
C57    H58     1.111   .     S
C57    C438    1.535   .     S
C57    H443    1.108   .     S
H59    C825    1.108   1_554 S
C60    H63     1.108   .     S
C60    H62     1.110   .     S
C60    H61     1.111   .     S
O64    C65     1.420   .     S
C65    H67     1.115   .     S
C65    C68     1.540   .     S
C65    H834    1.108   1_554 S
H66    C449    1.108   .     S
C68    H69     1.111   .     S
C68    H70     1.110   .     S
C68    C839    1.527   1_554 S
C71    H74     1.108   .     S
C71    H73     1.111   .     S
C71    H72     1.111   .     S
C71    C452    1.527   .     S
O75    C76     1.417   .     S
C76    C79     1.531   .     S
C76    H78     1.117   .     S
C76    H173    1.108   .     S
H77    C172    1.108   1_455 S
C79    H81     1.110   .     S
C79    C82     1.526   .     S
C79    H80     1.112   .     S
C82    H84     1.110   .     S
C82    H83     1.111   .     S
C82    H181    1.111   .     S
H85    C178    1.111   1_455 S
O86    C87     1.417   .     S
C87    H89     1.116   .     S
C87    C90     1.531   .     S
C87    H184    1.106   1_455 S
H88    C183    1.106   .     S
C90    H91     1.112   .     S
C90    H92     1.110   .     S
C90    C93     1.526   .     S
C93    H94     1.111   .     S
C93    H95     1.110   .     S
C93    H192    1.110   1_455 S
H96    C189    1.110   .     S
C97    O142    1.287   .     A
C97    O139    1.288   .     A
C97    C121    1.445   .     S
C98    O140    1.288   .     A
C98    O141    1.288   .     A
C98    C122    1.445   .     S
C99    C103    1.407   .     A
C99    H125    1.082   .     S
C99    N137    1.363   .     A
C100   C104    1.407   .     A
C100   N138    1.363   .     A
C100   H126    1.082   .     S
C101   C105    1.407   .     A
C101   N137    1.363   .     A
C101   H127    1.082   .     S
C102   H128    1.081   .     S
C102   N138    1.363   .     A
C102   C106    1.407   .     A
C103   C109    1.411   .     A
C103   H133    1.082   .     S
C104   H134    1.082   .     S
C104   C110    1.411   .     A
C105   H135    1.082   .     S
C105   C109    1.411   .     A
C106   H136    1.082   .     S
C106   C110    1.411   .     A
C107   O143    1.274   .     A
C107   C111    1.365   .     S
C107   O146    1.274   .     A
C108   O145    1.275   .     A
C108   O144    1.274   .     A
C108   C112    1.365   .     S
C109   C302    1.514   1_545 S
C110   C301    1.514   .     S
C111   C880    1.165   1_554 S
C112   C495    1.165   .     S
C113   C123    1.405   .     A
C113   C117    1.389   .     A
C113   O149    1.383   .     S
C114   O160    1.383   .     S
C114   C124    1.405   .     A
C114   C118    1.388   .     A
C115   C119    1.398   .     A
C115   C124    1.411   .     A
C115   O171    1.390   .     S
C116   C120    1.397   .     A
C116   O182    1.390   .     S
C116   C123    1.410   .     A
C117   H129    1.083   .     S
C117   C121    1.398   .     A
C118   H130    1.084   .     S
C118   C122    1.396   .     A
C119   C122    1.394   .     A
C119   H131    1.081   .     S
C120   H132    1.082   .     S
C120   C121    1.394   .     A
C124   C27     1.458   1_655 S
N137   Zn148   2.005   .     S
N138   Zn147   2.005   .     S
O139   Zn147   1.950   .     S
O140   Zn148   1.950   .     S
O141   Zn147   1.951   .     S
O142   Zn148   1.951   .     S
O143   Zn147   1.950   .     S
O144   Zn148   1.950   .     S
O145   Zn147   1.950   .     S
O146   Zn148   1.950   .     S
O149   C150    1.420   .     S
C150   H152    1.119   .     S
C150   H919    1.110   1_554 S
C150   C921    1.535   1_554 S
H151   C534    1.110   .     S
C153   C156    1.526   .     S
C153   H154    1.111   .     S
C153   C534    1.535   .     S
C153   H539    1.108   .     S
H155   C921    1.108   1_554 S
C156   H159    1.108   .     S
C156   H158    1.110   .     S
C156   H157    1.111   .     S
O160   C161    1.420   .     S
C161   H163    1.115   .     S
C161   C164    1.540   .     S
C161   H930    1.108   1_554 S
H162   C545    1.108   .     S
C164   H165    1.111   .     S
C164   H166    1.110   .     S
C164   C935    1.527   1_554 S
C167   H170    1.108   .     S
C167   H169    1.111   .     S
C167   H168    1.111   .     S
C167   C548    1.527   .     S
O171   C172    1.417   .     S
C172   C175    1.531   .     S
C172   H174    1.117   .     S
C172   H77     1.108   1_655 S
C175   H177    1.110   .     S
C175   C178    1.526   .     S
C175   H176    1.112   .     S
C178   H180    1.110   .     S
C178   H179    1.111   .     S
C178   H85     1.111   1_655 S
O182   C183    1.417   .     S
C183   H185    1.116   .     S
C183   C186    1.531   .     S
H184   C87     1.106   1_655 S
C186   H187    1.112   .     S
C186   H188    1.110   .     S
C186   C189    1.526   .     S
C189   H190    1.111   .     S
C189   H191    1.110   .     S
H192   C93     1.110   1_655 S
C193   O238    1.287   .     A
C193   O235    1.288   .     A
C193   C217    1.445   .     S
C194   O236    1.288   .     A
C194   O237    1.288   .     A
C194   C218    1.445   .     S
C195   C199    1.407   .     A
C195   H221    1.082   .     S
C195   N233    1.363   .     A
C196   C200    1.407   .     A
C196   N234    1.363   .     A
C196   H222    1.082   .     S
C197   C201    1.407   .     A
C197   N233    1.363   .     A
C197   H223    1.082   .     S
C198   H224    1.081   .     S
C198   N234    1.363   .     A
C198   C202    1.407   .     A
C199   C205    1.411   .     A
C199   H229    1.082   .     S
C200   H230    1.082   .     S
C200   C206    1.411   .     A
C201   H231    1.082   .     S
C201   C205    1.411   .     A
C202   H232    1.082   .     S
C202   C206    1.411   .     A
C203   O239    1.274   .     A
C203   C207    1.365   .     S
C203   O242    1.274   .     A
C204   O241    1.275   .     A
C204   O240    1.274   .     A
C204   C208    1.365   .     S
C206   C13     1.514   1_565 S
C207   C976    1.165   1_554 S
C208   C591    1.165   .     S
C209   C219    1.405   .     A
C209   C213    1.389   .     A
C209   O245    1.383   .     S
C210   O256    1.383   .     S
C210   C220    1.405   .     A
C210   C214    1.388   .     A
C211   C215    1.398   .     A
C211   C220    1.411   .     A
C211   O267    1.390   .     S
C212   C216    1.397   .     A
C212   O278    1.390   .     S
C212   C219    1.410   .     A
C213   H225    1.083   .     S
C213   C217    1.398   .     A
C214   H226    1.084   .     S
C214   C218    1.396   .     A
C215   C218    1.394   .     A
C215   H227    1.081   .     S
C216   H228    1.082   .     S
C216   C217    1.394   .     A
C219   C316    1.458   1_455 S
C220   C315    1.458   .     S
N233   Zn244   2.005   .     S
N234   Zn243   2.005   .     S
O235   Zn243   1.950   .     S
O236   Zn244   1.950   .     S
O237   Zn243   1.951   .     S
O238   Zn244   1.951   .     S
O239   Zn243   1.950   .     S
O240   Zn244   1.950   .     S
O241   Zn243   1.950   .     S
O242   Zn244   1.950   .     S
O245   C246    1.420   .     S
C246   H248    1.119   .     S
C246   H1015   1.110   1_554 S
C246   C1017   1.535   1_554 S
H247   C630    1.110   .     S
C249   C252    1.526   .     S
C249   H250    1.111   .     S
C249   C630    1.535   .     S
C249   H635    1.108   .     S
H251   C1017   1.108   1_554 S
C252   H255    1.108   .     S
C252   H254    1.110   .     S
C252   H253    1.111   .     S
O256   C257    1.420   .     S
C257   H259    1.115   .     S
C257   C260    1.540   .     S
C257   H1026   1.108   1_554 S
H258   C641    1.108   .     S
C260   H261    1.111   .     S
C260   H262    1.110   .     S
C260   C1031   1.527   1_554 S
C263   H266    1.108   .     S
C263   H265    1.111   .     S
C263   H264    1.111   .     S
C263   C644    1.527   .     S
O267   C268    1.417   .     S
C268   C271    1.531   .     S
C268   H270    1.117   .     S
C268   H365    1.108   .     S
H269   C364    1.108   1_455 S
C271   H273    1.110   .     S
C271   C274    1.526   .     S
C271   H272    1.112   .     S
C274   H276    1.110   .     S
C274   H275    1.111   .     S
C274   H373    1.111   .     S
H277   C370    1.111   1_455 S
O278   C279    1.417   .     S
C279   H281    1.116   .     S
C279   C282    1.531   .     S
C279   H376    1.106   1_455 S
H280   C375    1.106   .     S
C282   H283    1.112   .     S
C282   H284    1.110   .     S
C282   C285    1.526   .     S
C285   H286    1.111   .     S
C285   H287    1.110   .     S
C285   H384    1.110   1_455 S
H288   C381    1.110   .     S
C289   O334    1.287   .     A
C289   O331    1.288   .     A
C289   C313    1.445   .     S
C290   O332    1.288   .     A
C290   O333    1.288   .     A
C290   C314    1.445   .     S
C291   C295    1.407   .     A
C291   H317    1.082   .     S
C291   N329    1.363   .     A
C292   C296    1.407   .     A
C292   N330    1.363   .     A
C292   H318    1.082   .     S
C293   C297    1.407   .     A
C293   N329    1.363   .     A
C293   H319    1.082   .     S
C294   H320    1.081   .     S
C294   N330    1.363   .     A
C294   C298    1.407   .     A
C295   C301    1.411   .     A
C295   H325    1.082   .     S
C296   H326    1.082   .     S
C296   C302    1.411   .     A
C297   H327    1.082   .     S
C297   C301    1.411   .     A
C298   H328    1.082   .     S
C298   C302    1.411   .     A
C299   O335    1.274   .     A
C299   C303    1.365   .     S
C299   O338    1.274   .     A
C300   O337    1.275   .     A
C300   O336    1.274   .     A
C300   C304    1.365   .     S
C302   C109    1.514   1_565 S
C303   C1072   1.165   1_554 S
C304   C687    1.165   .     S
C305   C315    1.405   .     A
C305   C309    1.389   .     A
C305   O341    1.383   .     S
C306   O352    1.383   .     S
C306   C316    1.405   .     A
C306   C310    1.388   .     A
C307   C311    1.398   .     A
C307   C316    1.411   .     A
C307   O363    1.390   .     S
C308   C312    1.397   .     A
C308   O374    1.390   .     S
C308   C315    1.410   .     A
C309   H321    1.083   .     S
C309   C313    1.398   .     A
C310   H322    1.084   .     S
C310   C314    1.396   .     A
C311   C314    1.394   .     A
C311   H323    1.081   .     S
C312   H324    1.082   .     S
C312   C313    1.394   .     A
C316   C219    1.458   1_655 S
N329   Zn340   2.005   .     S
N330   Zn339   2.005   .     S
O331   Zn339   1.950   .     S
O332   Zn340   1.950   .     S
O333   Zn339   1.951   .     S
O334   Zn340   1.951   .     S
O335   Zn339   1.950   .     S
O336   Zn340   1.950   .     S
O337   Zn339   1.950   .     S
O338   Zn340   1.950   .     S
O341   C342    1.420   .     S
C342   H344    1.119   .     S
C342   H1111   1.110   1_554 S
C342   C1113   1.535   1_554 S
H343   C726    1.110   .     S
C345   C348    1.526   .     S
C345   H346    1.111   .     S
C345   C726    1.535   .     S
C345   H731    1.108   .     S
H347   C1113   1.108   1_554 S
C348   H351    1.108   .     S
C348   H350    1.110   .     S
C348   H349    1.111   .     S
O352   C353    1.420   .     S
C353   H355    1.115   .     S
C353   C356    1.540   .     S
C353   H1122   1.108   1_554 S
H354   C737    1.108   .     S
C356   H357    1.111   .     S
C356   H358    1.110   .     S
C356   C1127   1.527   1_554 S
C359   H362    1.108   .     S
C359   H361    1.111   .     S
C359   H360    1.111   .     S
C359   C740    1.527   .     S
O363   C364    1.417   .     S
C364   C367    1.531   .     S
C364   H366    1.117   .     S
C364   H269    1.108   1_655 S
C367   H369    1.110   .     S
C367   C370    1.526   .     S
C367   H368    1.112   .     S
C370   H372    1.110   .     S
C370   H371    1.111   .     S
C370   H277    1.111   1_655 S
O374   C375    1.417   .     S
C375   H377    1.116   .     S
C375   C378    1.531   .     S
H376   C279    1.106   1_655 S
C378   H379    1.112   .     S
C378   H380    1.110   .     S
C378   C381    1.526   .     S
C381   H382    1.111   .     S
C381   H383    1.110   .     S
H384   C285    1.110   1_655 S
C385   O430    1.287   .     A
C385   O427    1.288   .     A
C385   C409    1.445   .     S
C386   O428    1.288   .     A
C386   O429    1.288   .     A
C386   C410    1.445   .     S
C387   C391    1.407   .     A
C387   H413    1.082   .     S
C387   N425    1.363   .     A
C388   C392    1.407   .     A
C388   N426    1.363   .     A
C388   H414    1.082   .     S
C389   C393    1.407   .     A
C389   N425    1.363   .     A
C389   H415    1.082   .     S
C390   H416    1.081   .     S
C390   N426    1.363   .     A
C390   C394    1.407   .     A
C391   C397    1.411   .     A
C391   H421    1.082   .     S
C392   H422    1.082   .     S
C392   C398    1.411   .     A
C393   H423    1.082   .     S
C393   C397    1.411   .     A
C394   H424    1.082   .     S
C394   C398    1.411   .     A
C395   O431    1.274   .     A
C395   C399    1.365   .     S
C395   O434    1.274   .     A
C396   O433    1.275   .     A
C396   O432    1.274   .     A
C396   C400    1.365   .     S
C397   C590    1.514   1_545 S
C398   C589    1.514   .     S
C400   C783    1.165   .     S
C401   C411    1.405   .     A
C401   C405    1.389   .     A
C401   O437    1.383   .     S
C402   O448    1.383   .     S
C402   C412    1.405   .     A
C402   C406    1.388   .     A
C403   C407    1.398   .     A
C403   C412    1.411   .     A
C403   O459    1.390   .     S
C404   C408    1.397   .     A
C404   O470    1.390   .     S
C404   C411    1.410   .     A
C405   H417    1.083   .     S
C405   C409    1.398   .     A
C406   H418    1.084   .     S
C406   C410    1.396   .     A
C407   C410    1.394   .     A
C407   H419    1.081   .     S
C408   H420    1.082   .     S
C408   C409    1.394   .     A
C411   C508    1.458   1_455 S
C412   C507    1.458   .     S
N425   Zn436   2.005   .     S
N426   Zn435   2.005   .     S
O427   Zn435   1.950   .     S
O428   Zn436   1.950   .     S
O429   Zn435   1.951   .     S
O430   Zn436   1.951   .     S
O431   Zn435   1.950   .     S
O432   Zn436   1.950   .     S
O433   Zn435   1.950   .     S
O434   Zn436   1.950   .     S
O437   C438    1.420   .     S
C438   H440    1.119   .     S
H439   C822    1.110   .     S
C441   C444    1.526   .     S
C441   H442    1.111   .     S
C441   C822    1.535   .     S
C441   H827    1.108   .     S
C444   H447    1.108   .     S
C444   H446    1.110   .     S
C444   H445    1.111   .     S
O448   C449    1.420   .     S
C449   H451    1.115   .     S
C449   C452    1.540   .     S
H450   C833    1.108   .     S
C452   H453    1.111   .     S
C452   H454    1.110   .     S
C455   H458    1.108   .     S
C455   H457    1.111   .     S
C455   H456    1.111   .     S
C455   C836    1.527   .     S
O459   C460    1.417   .     S
C460   C463    1.531   .     S
C460   H462    1.117   .     S
C460   H557    1.108   .     S
H461   C556    1.108   1_455 S
C463   H465    1.110   .     S
C463   C466    1.526   .     S
C463   H464    1.112   .     S
C466   H468    1.110   .     S
C466   H467    1.111   .     S
C466   H565    1.111   .     S
H469   C562    1.111   1_455 S
O470   C471    1.417   .     S
C471   H473    1.116   .     S
C471   C474    1.531   .     S
C471   H568    1.106   1_455 S
H472   C567    1.106   .     S
C474   H475    1.112   .     S
C474   H476    1.110   .     S
C474   C477    1.526   .     S
C477   H478    1.111   .     S
C477   H479    1.110   .     S
C477   H576    1.110   1_455 S
H480   C573    1.110   .     S
C481   O526    1.287   .     A
C481   O523    1.288   .     A
C481   C505    1.445   .     S
C482   O524    1.288   .     A
C482   O525    1.288   .     A
C482   C506    1.445   .     S
C483   C487    1.407   .     A
C483   H509    1.082   .     S
C483   N521    1.363   .     A
C484   C488    1.407   .     A
C484   N522    1.363   .     A
C484   H510    1.082   .     S
C485   C489    1.407   .     A
C485   N521    1.363   .     A
C485   H511    1.082   .     S
C486   H512    1.081   .     S
C486   N522    1.363   .     A
C486   C490    1.407   .     A
C487   C493    1.411   .     A
C487   H517    1.082   .     S
C488   H518    1.082   .     S
C488   C494    1.411   .     A
C489   H519    1.082   .     S
C489   C493    1.411   .     A
C490   H520    1.082   .     S
C490   C494    1.411   .     A
C491   O527    1.274   .     A
C491   C495    1.365   .     S
C491   O530    1.274   .     A
C492   O529    1.275   .     A
C492   O528    1.274   .     A
C492   C496    1.365   .     S
C493   C686    1.514   1_545 S
C494   C685    1.514   .     S
C496   C879    1.165   .     S
C497   C507    1.405   .     A
C497   C501    1.389   .     A
C497   O533    1.383   .     S
C498   O544    1.383   .     S
C498   C508    1.405   .     A
C498   C502    1.388   .     A
C499   C503    1.398   .     A
C499   C508    1.411   .     A
C499   O555    1.390   .     S
C500   C504    1.397   .     A
C500   O566    1.390   .     S
C500   C507    1.410   .     A
C501   H513    1.083   .     S
C501   C505    1.398   .     A
C502   H514    1.084   .     S
C502   C506    1.396   .     A
C503   C506    1.394   .     A
C503   H515    1.081   .     S
C504   H516    1.082   .     S
C504   C505    1.394   .     A
C508   C411    1.458   1_655 S
N521   Zn532   2.005   .     S
N522   Zn531   2.005   .     S
O523   Zn531   1.950   .     S
O524   Zn532   1.950   .     S
O525   Zn531   1.951   .     S
O526   Zn532   1.951   .     S
O527   Zn531   1.950   .     S
O528   Zn532   1.950   .     S
O529   Zn531   1.950   .     S
O530   Zn532   1.950   .     S
O533   C534    1.420   .     S
C534   H536    1.119   .     S
H535   C918    1.110   .     S
C537   C540    1.526   .     S
C537   H538    1.111   .     S
C537   C918    1.535   .     S
C537   H923    1.108   .     S
C540   H543    1.108   .     S
C540   H542    1.110   .     S
C540   H541    1.111   .     S
O544   C545    1.420   .     S
C545   H547    1.115   .     S
C545   C548    1.540   .     S
H546   C929    1.108   .     S
C548   H549    1.111   .     S
C548   H550    1.110   .     S
C551   H554    1.108   .     S
C551   H553    1.111   .     S
C551   H552    1.111   .     S
C551   C932    1.527   .     S
O555   C556    1.417   .     S
C556   C559    1.531   .     S
C556   H558    1.117   .     S
C556   H461    1.108   1_655 S
C559   H561    1.110   .     S
C559   C562    1.526   .     S
C559   H560    1.112   .     S
C562   H564    1.110   .     S
C562   H563    1.111   .     S
C562   H469    1.111   1_655 S
O566   C567    1.417   .     S
C567   H569    1.116   .     S
C567   C570    1.531   .     S
H568   C471    1.106   1_655 S
C570   H571    1.112   .     S
C570   H572    1.110   .     S
C570   C573    1.526   .     S
C573   H574    1.111   .     S
C573   H575    1.110   .     S
H576   C477    1.110   1_655 S
C577   O622    1.287   .     A
C577   O619    1.288   .     A
C577   C601    1.445   .     S
C578   O620    1.288   .     A
C578   O621    1.288   .     A
C578   C602    1.445   .     S
C579   C583    1.407   .     A
C579   H605    1.082   .     S
C579   N617    1.363   .     A
C580   C584    1.407   .     A
C580   N618    1.363   .     A
C580   H606    1.082   .     S
C581   C585    1.407   .     A
C581   N617    1.363   .     A
C581   H607    1.082   .     S
C582   H608    1.081   .     S
C582   N618    1.363   .     A
C582   C586    1.407   .     A
C583   C589    1.411   .     A
C583   H613    1.082   .     S
C584   H614    1.082   .     S
C584   C590    1.411   .     A
C585   H615    1.082   .     S
C585   C589    1.411   .     A
C586   H616    1.082   .     S
C586   C590    1.411   .     A
C587   O623    1.274   .     A
C587   C591    1.365   .     S
C587   O626    1.274   .     A
C588   O625    1.275   .     A
C588   O624    1.274   .     A
C588   C592    1.365   .     S
C590   C397    1.514   1_565 S
C592   C975    1.165   .     S
C593   C603    1.405   .     A
C593   C597    1.389   .     A
C593   O629    1.383   .     S
C594   O640    1.383   .     S
C594   C604    1.405   .     A
C594   C598    1.388   .     A
C595   C599    1.398   .     A
C595   C604    1.411   .     A
C595   O651    1.390   .     S
C596   C600    1.397   .     A
C596   O662    1.390   .     S
C596   C603    1.410   .     A
C597   H609    1.083   .     S
C597   C601    1.398   .     A
C598   H610    1.084   .     S
C598   C602    1.396   .     A
C599   C602    1.394   .     A
C599   H611    1.081   .     S
C600   H612    1.082   .     S
C600   C601    1.394   .     A
C603   C700    1.458   1_455 S
C604   C699    1.458   .     S
N617   Zn628   2.005   .     S
N618   Zn627   2.005   .     S
O619   Zn627   1.950   .     S
O620   Zn628   1.950   .     S
O621   Zn627   1.951   .     S
O622   Zn628   1.951   .     S
O623   Zn627   1.950   .     S
O624   Zn628   1.950   .     S
O625   Zn627   1.950   .     S
O626   Zn628   1.950   .     S
O629   C630    1.420   .     S
C630   H632    1.119   .     S
H631   C1014   1.110   .     S
C633   C636    1.526   .     S
C633   H634    1.111   .     S
C633   C1014   1.535   .     S
C633   H1019   1.108   .     S
C636   H639    1.108   .     S
C636   H638    1.110   .     S
C636   H637    1.111   .     S
O640   C641    1.420   .     S
C641   H643    1.115   .     S
C641   C644    1.540   .     S
H642   C1025   1.108   .     S
C644   H645    1.111   .     S
C644   H646    1.110   .     S
C647   H650    1.108   .     S
C647   H649    1.111   .     S
C647   H648    1.111   .     S
C647   C1028   1.527   .     S
O651   C652    1.417   .     S
C652   C655    1.531   .     S
C652   H654    1.117   .     S
C652   H749    1.108   .     S
H653   C748    1.108   1_455 S
C655   H657    1.110   .     S
C655   C658    1.526   .     S
C655   H656    1.112   .     S
C658   H660    1.110   .     S
C658   H659    1.111   .     S
C658   H757    1.111   .     S
H661   C754    1.111   1_455 S
O662   C663    1.417   .     S
C663   H665    1.116   .     S
C663   C666    1.531   .     S
C663   H760    1.106   1_455 S
H664   C759    1.106   .     S
C666   H667    1.112   .     S
C666   H668    1.110   .     S
C666   C669    1.526   .     S
C669   H670    1.111   .     S
C669   H671    1.110   .     S
C669   H768    1.110   1_455 S
H672   C765    1.110   .     S
C673   O718    1.287   .     A
C673   O715    1.288   .     A
C673   C697    1.445   .     S
C674   O716    1.288   .     A
C674   O717    1.288   .     A
C674   C698    1.445   .     S
C675   C679    1.407   .     A
C675   H701    1.082   .     S
C675   N713    1.363   .     A
C676   C680    1.407   .     A
C676   N714    1.363   .     A
C676   H702    1.082   .     S
C677   C681    1.407   .     A
C677   N713    1.363   .     A
C677   H703    1.082   .     S
C678   H704    1.081   .     S
C678   N714    1.363   .     A
C678   C682    1.407   .     A
C679   C685    1.411   .     A
C679   H709    1.082   .     S
C680   H710    1.082   .     S
C680   C686    1.411   .     A
C681   H711    1.082   .     S
C681   C685    1.411   .     A
C682   H712    1.082   .     S
C682   C686    1.411   .     A
C683   O719    1.274   .     A
C683   C687    1.365   .     S
C683   O722    1.274   .     A
C684   O721    1.275   .     A
C684   O720    1.274   .     A
C684   C688    1.365   .     S
C686   C493    1.514   1_565 S
C688   C1071   1.165   .     S
C689   C699    1.405   .     A
C689   C693    1.389   .     A
C689   O725    1.383   .     S
C690   O736    1.383   .     S
C690   C700    1.405   .     A
C690   C694    1.388   .     A
C691   C695    1.398   .     A
C691   C700    1.411   .     A
C691   O747    1.390   .     S
C692   C696    1.397   .     A
C692   O758    1.390   .     S
C692   C699    1.410   .     A
C693   H705    1.083   .     S
C693   C697    1.398   .     A
C694   H706    1.084   .     S
C694   C698    1.396   .     A
C695   C698    1.394   .     A
C695   H707    1.081   .     S
C696   H708    1.082   .     S
C696   C697    1.394   .     A
C700   C603    1.458   1_655 S
N713   Zn724   2.005   .     S
N714   Zn723   2.005   .     S
O715   Zn723   1.950   .     S
O716   Zn724   1.950   .     S
O717   Zn723   1.951   .     S
O718   Zn724   1.951   .     S
O719   Zn723   1.950   .     S
O720   Zn724   1.950   .     S
O721   Zn723   1.950   .     S
O722   Zn724   1.950   .     S
O725   C726    1.420   .     S
C726   H728    1.119   .     S
H727   C1110   1.110   .     S
C729   C732    1.526   .     S
C729   H730    1.111   .     S
C729   C1110   1.535   .     S
C729   H1115   1.108   .     S
C732   H735    1.108   .     S
C732   H734    1.110   .     S
C732   H733    1.111   .     S
O736   C737    1.420   .     S
C737   H739    1.115   .     S
C737   C740    1.540   .     S
H738   C1121   1.108   .     S
C740   H741    1.111   .     S
C740   H742    1.110   .     S
C743   H746    1.108   .     S
C743   H745    1.111   .     S
C743   H744    1.111   .     S
C743   C1124   1.527   .     S
O747   C748    1.417   .     S
C748   C751    1.531   .     S
C748   H750    1.117   .     S
C748   H653    1.108   1_655 S
C751   H753    1.110   .     S
C751   C754    1.526   .     S
C751   H752    1.112   .     S
C754   H756    1.110   .     S
C754   H755    1.111   .     S
C754   H661    1.111   1_655 S
O758   C759    1.417   .     S
C759   H761    1.116   .     S
C759   C762    1.531   .     S
H760   C663    1.106   1_655 S
C762   H763    1.112   .     S
C762   H764    1.110   .     S
C762   C765    1.526   .     S
C765   H766    1.111   .     S
C765   H767    1.110   .     S
H768   C669    1.110   1_655 S
C769   O814    1.287   .     A
C769   O811    1.288   .     A
C769   C793    1.445   .     S
C770   O812    1.288   .     A
C770   O813    1.288   .     A
C770   C794    1.445   .     S
C771   C775    1.407   .     A
C771   H797    1.082   .     S
C771   N809    1.363   .     A
C772   C776    1.407   .     A
C772   N810    1.363   .     A
C772   H798    1.082   .     S
C773   C777    1.407   .     A
C773   N809    1.363   .     A
C773   H799    1.082   .     S
C774   H800    1.081   .     S
C774   N810    1.363   .     A
C774   C778    1.407   .     A
C775   C781    1.411   .     A
C775   H805    1.082   .     S
C776   H806    1.082   .     S
C776   C782    1.411   .     A
C777   H807    1.082   .     S
C777   C781    1.411   .     A
C778   H808    1.082   .     S
C778   C782    1.411   .     A
C779   O815    1.274   .     A
C779   C783    1.365   .     S
C779   O818    1.274   .     A
C780   O817    1.275   .     A
C780   O816    1.274   .     A
C780   C784    1.365   .     S
C781   C974    1.514   1_545 S
C782   C973    1.514   .     S
C784   C15     1.165   1_556 S
C785   C795    1.405   .     A
C785   C789    1.389   .     A
C785   O821    1.383   .     S
C786   O832    1.383   .     S
C786   C796    1.405   .     A
C786   C790    1.388   .     A
C787   C791    1.398   .     A
C787   C796    1.411   .     A
C787   O843    1.390   .     S
C788   C792    1.397   .     A
C788   O854    1.390   .     S
C788   C795    1.410   .     A
C789   H801    1.083   .     S
C789   C793    1.398   .     A
C790   H802    1.084   .     S
C790   C794    1.396   .     A
C791   C794    1.394   .     A
C791   H803    1.081   .     S
C792   H804    1.082   .     S
C792   C793    1.394   .     A
C795   C892    1.458   1_455 S
C796   C891    1.458   .     S
N809   Zn820   2.005   .     S
N810   Zn819   2.005   .     S
O811   Zn819   1.950   .     S
O812   Zn820   1.950   .     S
O813   Zn819   1.951   .     S
O814   Zn820   1.951   .     S
O815   Zn819   1.950   .     S
O816   Zn820   1.950   .     S
O817   Zn819   1.950   .     S
O818   Zn820   1.950   .     S
O821   C822    1.420   .     S
C822   H824    1.119   .     S
H823   C54     1.110   1_556 S
C825   C828    1.526   .     S
C825   H826    1.111   .     S
C825   C54     1.535   1_556 S
C825   H59     1.108   1_556 S
C828   H831    1.108   .     S
C828   H830    1.110   .     S
C828   H829    1.111   .     S
O832   C833    1.420   .     S
C833   H835    1.115   .     S
C833   C836    1.540   .     S
H834   C65     1.108   1_556 S
C836   H837    1.111   .     S
C836   H838    1.110   .     S
C839   H842    1.108   .     S
C839   H841    1.111   .     S
C839   H840    1.111   .     S
C839   C68     1.527   1_556 S
O843   C844    1.417   .     S
C844   C847    1.531   .     S
C844   H846    1.117   .     S
C844   H941    1.108   .     S
H845   C940    1.108   1_455 S
C847   H849    1.110   .     S
C847   C850    1.526   .     S
C847   H848    1.112   .     S
C850   H852    1.110   .     S
C850   H851    1.111   .     S
C850   H949    1.111   .     S
H853   C946    1.111   1_455 S
O854   C855    1.417   .     S
C855   H857    1.116   .     S
C855   C858    1.531   .     S
C855   H952    1.106   1_455 S
H856   C951    1.106   .     S
C858   H859    1.112   .     S
C858   H860    1.110   .     S
C858   C861    1.526   .     S
C861   H862    1.111   .     S
C861   H863    1.110   .     S
C861   H960    1.110   1_455 S
H864   C957    1.110   .     S
C865   O910    1.287   .     A
C865   O907    1.288   .     A
C865   C889    1.445   .     S
C866   O908    1.288   .     A
C866   O909    1.288   .     A
C866   C890    1.445   .     S
C867   C871    1.407   .     A
C867   H893    1.082   .     S
C867   N905    1.363   .     A
C868   C872    1.407   .     A
C868   N906    1.363   .     A
C868   H894    1.082   .     S
C869   C873    1.407   .     A
C869   N905    1.363   .     A
C869   H895    1.082   .     S
C870   H896    1.081   .     S
C870   N906    1.363   .     A
C870   C874    1.407   .     A
C871   C877    1.411   .     A
C871   H901    1.082   .     S
C872   H902    1.082   .     S
C872   C878    1.411   .     A
C873   H903    1.082   .     S
C873   C877    1.411   .     A
C874   H904    1.082   .     S
C874   C878    1.411   .     A
C875   O911    1.274   .     A
C875   C879    1.365   .     S
C875   O914    1.274   .     A
C876   O913    1.275   .     A
C876   O912    1.274   .     A
C876   C880    1.365   .     S
C877   C1070   1.514   1_545 S
C878   C1069   1.514   .     S
C880   C111    1.165   1_556 S
C881   C891    1.405   .     A
C881   C885    1.389   .     A
C881   O917    1.383   .     S
C882   O928    1.383   .     S
C882   C892    1.405   .     A
C882   C886    1.388   .     A
C883   C887    1.398   .     A
C883   C892    1.411   .     A
C883   O939    1.390   .     S
C884   C888    1.397   .     A
C884   O950    1.390   .     S
C884   C891    1.410   .     A
C885   H897    1.083   .     S
C885   C889    1.398   .     A
C886   H898    1.084   .     S
C886   C890    1.396   .     A
C887   C890    1.394   .     A
C887   H899    1.081   .     S
C888   H900    1.082   .     S
C888   C889    1.394   .     A
C892   C795    1.458   1_655 S
N905   Zn916   2.005   .     S
N906   Zn915   2.005   .     S
O907   Zn915   1.950   .     S
O908   Zn916   1.950   .     S
O909   Zn915   1.951   .     S
O910   Zn916   1.951   .     S
O911   Zn915   1.950   .     S
O912   Zn916   1.950   .     S
O913   Zn915   1.950   .     S
O914   Zn916   1.950   .     S
O917   C918    1.420   .     S
C918   H920    1.119   .     S
H919   C150    1.110   1_556 S
C921   C924    1.526   .     S
C921   H922    1.111   .     S
C921   C150    1.535   1_556 S
C921   H155    1.108   1_556 S
C924   H927    1.108   .     S
C924   H926    1.110   .     S
C924   H925    1.111   .     S
O928   C929    1.420   .     S
C929   H931    1.115   .     S
C929   C932    1.540   .     S
H930   C161    1.108   1_556 S
C932   H933    1.111   .     S
C932   H934    1.110   .     S
C935   H938    1.108   .     S
C935   H937    1.111   .     S
C935   H936    1.111   .     S
C935   C164    1.527   1_556 S
O939   C940    1.417   .     S
C940   C943    1.531   .     S
C940   H942    1.117   .     S
C940   H845    1.108   1_655 S
C943   H945    1.110   .     S
C943   C946    1.526   .     S
C943   H944    1.112   .     S
C946   H948    1.110   .     S
C946   H947    1.111   .     S
C946   H853    1.111   1_655 S
O950   C951    1.417   .     S
C951   H953    1.116   .     S
C951   C954    1.531   .     S
H952   C855    1.106   1_655 S
C954   H955    1.112   .     S
C954   H956    1.110   .     S
C954   C957    1.526   .     S
C957   H958    1.111   .     S
C957   H959    1.110   .     S
H960   C861    1.110   1_655 S
C961   O1006   1.287   .     A
C961   O1003   1.288   .     A
C961   C985    1.445   .     S
C962   O1004   1.288   .     A
C962   O1005   1.288   .     A
C962   C986    1.445   .     S
C963   C967    1.407   .     A
C963   H989    1.082   .     S
C963   N1001   1.363   .     A
C964   C968    1.407   .     A
C964   N1002   1.363   .     A
C964   H990    1.082   .     S
C965   C969    1.407   .     A
C965   N1001   1.363   .     A
C965   H991    1.082   .     S
C966   H992    1.081   .     S
C966   N1002   1.363   .     A
C966   C970    1.407   .     A
C967   C973    1.411   .     A
C967   H997    1.082   .     S
C968   H998    1.082   .     S
C968   C974    1.411   .     A
C969   H999    1.082   .     S
C969   C973    1.411   .     A
C970   H1000   1.082   .     S
C970   C974    1.411   .     A
C971   O1007   1.274   .     A
C971   C975    1.365   .     S
C971   O1010   1.274   .     A
C972   O1009   1.275   .     A
C972   O1008   1.274   .     A
C972   C976    1.365   .     S
C974   C781    1.514   1_565 S
C976   C207    1.165   1_556 S
C977   C987    1.405   .     A
C977   C981    1.389   .     A
C977   O1013   1.383   .     S
C978   O1024   1.383   .     S
C978   C988    1.405   .     A
C978   C982    1.388   .     A
C979   C983    1.398   .     A
C979   C988    1.411   .     A
C979   O1035   1.390   .     S
C980   C984    1.397   .     A
C980   O1046   1.390   .     S
C980   C987    1.410   .     A
C981   H993    1.083   .     S
C981   C985    1.398   .     A
C982   H994    1.084   .     S
C982   C986    1.396   .     A
C983   C986    1.394   .     A
C983   H995    1.081   .     S
C984   H996    1.082   .     S
C984   C985    1.394   .     A
C987   C1084   1.458   1_455 S
C988   C1083   1.458   .     S
N1001  Zn1012  2.005   .     S
N1002  Zn1011  2.005   .     S
O1003  Zn1011  1.950   .     S
O1004  Zn1012  1.950   .     S
O1005  Zn1011  1.951   .     S
O1006  Zn1012  1.951   .     S
O1007  Zn1011  1.950   .     S
O1008  Zn1012  1.950   .     S
O1009  Zn1011  1.950   .     S
O1010  Zn1012  1.950   .     S
O1013  C1014   1.420   .     S
C1014  H1016   1.119   .     S
H1015  C246    1.110   1_556 S
C1017  C1020   1.526   .     S
C1017  H1018   1.111   .     S
C1017  C246    1.535   1_556 S
C1017  H251    1.108   1_556 S
C1020  H1023   1.108   .     S
C1020  H1022   1.110   .     S
C1020  H1021   1.111   .     S
O1024  C1025   1.420   .     S
C1025  H1027   1.115   .     S
C1025  C1028   1.540   .     S
H1026  C257    1.108   1_556 S
C1028  H1029   1.111   .     S
C1028  H1030   1.110   .     S
C1031  H1034   1.108   .     S
C1031  H1033   1.111   .     S
C1031  H1032   1.111   .     S
C1031  C260    1.527   1_556 S
O1035  C1036   1.417   .     S
C1036  C1039   1.531   .     S
C1036  H1038   1.117   .     S
C1036  H1133   1.108   .     S
H1037  C1132   1.108   1_455 S
C1039  H1041   1.110   .     S
C1039  C1042   1.526   .     S
C1039  H1040   1.112   .     S
C1042  H1044   1.110   .     S
C1042  H1043   1.111   .     S
C1042  H1141   1.111   .     S
H1045  C1138   1.111   1_455 S
O1046  C1047   1.417   .     S
C1047  H1049   1.116   .     S
C1047  C1050   1.531   .     S
C1047  H1144   1.106   1_455 S
H1048  C1143   1.106   .     S
C1050  H1051   1.112   .     S
C1050  H1052   1.110   .     S
C1050  C1053   1.526   .     S
C1053  H1054   1.111   .     S
C1053  H1055   1.110   .     S
C1053  H1152   1.110   1_455 S
H1056  C1149   1.110   .     S
C1057  O1102   1.287   .     A
C1057  O1099   1.288   .     A
C1057  C1081   1.445   .     S
C1058  O1100   1.288   .     A
C1058  O1101   1.288   .     A
C1058  C1082   1.445   .     S
C1059  C1063   1.407   .     A
C1059  H1085   1.082   .     S
C1059  N1097   1.363   .     A
C1060  C1064   1.407   .     A
C1060  N1098   1.363   .     A
C1060  H1086   1.082   .     S
C1061  C1065   1.407   .     A
C1061  N1097   1.363   .     A
C1061  H1087   1.082   .     S
C1062  H1088   1.081   .     S
C1062  N1098   1.363   .     A
C1062  C1066   1.407   .     A
C1063  C1069   1.411   .     A
C1063  H1093   1.082   .     S
C1064  H1094   1.082   .     S
C1064  C1070   1.411   .     A
C1065  H1095   1.082   .     S
C1065  C1069   1.411   .     A
C1066  H1096   1.082   .     S
C1066  C1070   1.411   .     A
C1067  O1103   1.274   .     A
C1067  C1071   1.365   .     S
C1067  O1106   1.274   .     A
C1068  O1105   1.275   .     A
C1068  O1104   1.274   .     A
C1068  C1072   1.365   .     S
C1070  C877    1.514   1_565 S
C1072  C303    1.165   1_556 S
C1073  C1083   1.405   .     A
C1073  C1077   1.389   .     A
C1073  O1109   1.383   .     S
C1074  O1120   1.383   .     S
C1074  C1084   1.405   .     A
C1074  C1078   1.388   .     A
C1075  C1079   1.398   .     A
C1075  C1084   1.411   .     A
C1075  O1131   1.390   .     S
C1076  C1080   1.397   .     A
C1076  O1142   1.390   .     S
C1076  C1083   1.410   .     A
C1077  H1089   1.083   .     S
C1077  C1081   1.398   .     A
C1078  H1090   1.084   .     S
C1078  C1082   1.396   .     A
C1079  C1082   1.394   .     A
C1079  H1091   1.081   .     S
C1080  H1092   1.082   .     S
C1080  C1081   1.394   .     A
C1084  C987    1.458   1_655 S
N1097  Zn1108  2.005   .     S
N1098  Zn1107  2.005   .     S
O1099  Zn1107  1.950   .     S
O1100  Zn1108  1.950   .     S
O1101  Zn1107  1.951   .     S
O1102  Zn1108  1.951   .     S
O1103  Zn1107  1.950   .     S
O1104  Zn1108  1.950   .     S
O1105  Zn1107  1.950   .     S
O1106  Zn1108  1.950   .     S
O1109  C1110   1.420   .     S
C1110  H1112   1.119   .     S
H1111  C342    1.110   1_556 S
C1113  C1116   1.526   .     S
C1113  H1114   1.111   .     S
C1113  C342    1.535   1_556 S
C1113  H347    1.108   1_556 S
C1116  H1119   1.108   .     S
C1116  H1118   1.110   .     S
C1116  H1117   1.111   .     S
O1120  C1121   1.420   .     S
C1121  H1123   1.115   .     S
C1121  C1124   1.540   .     S
H1122  C353    1.108   1_556 S
C1124  H1125   1.111   .     S
C1124  H1126   1.110   .     S
C1127  H1130   1.108   .     S
C1127  H1129   1.111   .     S
C1127  H1128   1.111   .     S
C1127  C356    1.527   1_556 S
O1131  C1132   1.417   .     S
C1132  C1135   1.531   .     S
C1132  H1134   1.117   .     S
C1132  H1037   1.108   1_655 S
C1135  H1137   1.110   .     S
C1135  C1138   1.526   .     S
C1135  H1136   1.112   .     S
C1138  H1140   1.110   .     S
C1138  H1139   1.111   .     S
C1138  H1045   1.111   1_655 S
O1142  C1143   1.417   .     S
C1143  H1145   1.116   .     S
C1143  C1146   1.531   .     S
H1144  C1047   1.106   1_655 S
C1146  H1147   1.112   .     S
C1146  H1148   1.110   .     S
C1146  C1149   1.526   .     S
C1149  H1150   1.111   .     S
C1149  H1151   1.110   .     S
H1152  C1053   1.110   1_655 S
