data_str_m3_o10_o18_pcu_sym.29
_audit_creation_date              2020-01-03
_audit_creation_method            'Materials Studio'
_symmetry_space_group_name_H-M    'P1'
_symmetry_Int_Tables_number       1
_symmetry_cell_setting            triclinic
loop_
_symmetry_equiv_pos_as_xyz
  x,y,z
_cell_length_a                    23.5140
_cell_length_b                    25.7081
_cell_length_c                    27.6396
_cell_angle_alpha                 93.5512
_cell_angle_beta                  92.9096
_cell_angle_gamma                 94.2994
loop_
_atom_site_label
_atom_site_type_symbol
_atom_site_fract_x
_atom_site_fract_y
_atom_site_fract_z
_atom_site_U_iso_or_equiv
_atom_site_adp_type
_atom_site_occupancy
C1     C     0.01508   0.26490   0.24880   0.00000  Uiso   1.00
C2     C     0.31250   0.16301   0.15909   0.00000  Uiso   1.00
C3     C     0.03108   0.17738   0.39304   0.00000  Uiso   1.00
C4     C     0.30226   0.15595   0.10696   0.00000  Uiso   1.00
C5     C     0.02058   0.22581   0.46879   0.00000  Uiso   1.00
C6     C     0.31275   0.10752   0.03121   0.00000  Uiso   1.00
C7     C     0.00184   0.21276   0.42081   0.00000  Uiso   1.00
C8     C     0.33149   0.12057   0.07919   0.00000  Uiso   1.00
C9     C     0.07660   0.15379   0.41367   0.00000  Uiso   1.00
C10    C     0.25673   0.17955   0.08633   0.00000  Uiso   1.00
C11    C     0.10257   0.17327   0.45831   0.00000  Uiso   1.00
C12    C     0.31825   0.06843   0.25120   0.00000  Uiso   1.00
C13    C     0.23076   0.16007   0.04168   0.00000  Uiso   1.00
C14    C     0.07117   0.20687   0.48743   0.00000  Uiso   1.00
C15    C     0.26216   0.12647   0.01257   0.00000  Uiso   1.00
C16    C     0.15756   0.15962   0.47519   0.00000  Uiso   1.00
C17    C     0.17577   0.17372   0.02481   0.00000  Uiso   1.00
C18    C     0.14195   0.20407   0.10769   0.00000  Uiso   1.00
C19    C     0.19139   0.12927   0.39231   0.00000  Uiso   1.00
C20    C     0.13742   0.19970   0.05532   0.00000  Uiso   1.00
C21    C     0.19591   0.13364   0.44468   0.00000  Uiso   1.00
C22    C     0.08858   0.21904   0.03547   0.00000  Uiso   1.00
C23    C     0.24475   0.11430   0.46453   0.00000  Uiso   1.00
C24    C     0.02290   0.31949   0.24808   0.00000  Uiso   1.00
C25    C     0.31043   0.01384   0.25192   0.00000  Uiso   1.00
C26    C     0.02084   0.17032   0.34091   0.00000  Uiso   1.00
H27    H     0.06170   0.24118   0.05859   0.00000  Uiso   1.00
H28    H     0.26731   0.32996   0.25560   0.00000  Uiso   1.00
H29    H     0.16239   0.12424   0.21433   0.00000  Uiso   1.00
H30    H     0.17094   0.20910   0.28567   0.00000  Uiso   1.00
H31    H     0.27163   0.09215   0.44141   0.00000  Uiso   1.00
H32    H     0.24274   0.21305   0.10626   0.00000  Uiso   1.00
H33    H     0.09059   0.12028   0.39374   0.00000  Uiso   1.00
H34    H     0.03451   0.10262   0.09468   0.00000  Uiso   1.00
H35    H     0.29882   0.23071   0.40532   0.00000  Uiso   1.00
H36    H     0.33002   0.25186   0.49081   0.00000  Uiso   1.00
H37    H     0.00331   0.08148   0.00919   0.00000  Uiso   1.00
H38    H     0.06602   0.00338   0.24440   0.00000  Uiso   1.00
N39    N     0.14695   0.15216   0.23739   0.00000  Uiso   1.00
N40    N     0.18638   0.18117   0.26260   0.00000  Uiso   1.00
N41    N     0.14507   0.20832   0.14966   0.00000  Uiso   1.00
N42    N     0.18827   0.12502   0.35034   0.00000  Uiso   1.00
O43    O     0.29719   0.24631   0.25309   0.00000  Uiso   1.00
O44    O     0.03614   0.08702   0.24690   0.00000  Uiso   1.00
O45    O     0.05822   0.23702   0.24502   0.00000  Uiso   1.00
O46    O     0.27512   0.09632   0.25498   0.00000  Uiso   1.00
O47    O     0.30328   0.17397   0.32247   0.00000  Uiso   1.00
O48    O     0.03005   0.15937   0.17753   0.00000  Uiso   1.00
O49    O     0.06431   0.16467   0.31439   0.00000  Uiso   1.00
O50    O     0.26902   0.16866   0.18561   0.00000  Uiso   1.00
Zn51   Zn    0.27033   0.17287   0.25539   0.00000  Uiso   1.00
Zn52   Zn    0.06300   0.16046   0.24461   0.00000  Uiso   1.00
C53    C     0.34841   0.26490   0.24880   0.00000  Uiso   1.00
C54    C     0.64583   0.16301   0.15909   0.00000  Uiso   1.00
C55    C     0.36441   0.17738   0.39304   0.00000  Uiso   1.00
C56    C     0.63559   0.15595   0.10696   0.00000  Uiso   1.00
C57    C     0.35392   0.22581   0.46879   0.00000  Uiso   1.00
C58    C     0.64608   0.10752   0.03121   0.00000  Uiso   1.00
C59    C     0.33518   0.21276   0.42081   0.00000  Uiso   1.00
C60    C     0.66482   0.12057   0.07919   0.00000  Uiso   1.00
C61    C     0.40994   0.15379   0.41367   0.00000  Uiso   1.00
C62    C     0.59006   0.17955   0.08633   0.00000  Uiso   1.00
C63    C     0.43590   0.17327   0.45831   0.00000  Uiso   1.00
C64    C     0.65159   0.06843   0.25120   0.00000  Uiso   1.00
C65    C     0.56410   0.16007   0.04168   0.00000  Uiso   1.00
C66    C     0.40451   0.20687   0.48743   0.00000  Uiso   1.00
C67    C     0.59549   0.12647   0.01257   0.00000  Uiso   1.00
C68    C     0.49090   0.15962   0.47519   0.00000  Uiso   1.00
C69    C     0.50910   0.17372   0.02481   0.00000  Uiso   1.00
C70    C     0.47528   0.20407   0.10769   0.00000  Uiso   1.00
C71    C     0.52472   0.12927   0.39231   0.00000  Uiso   1.00
C72    C     0.47075   0.19970   0.05532   0.00000  Uiso   1.00
C73    C     0.52925   0.13364   0.44468   0.00000  Uiso   1.00
C74    C     0.42192   0.21904   0.03547   0.00000  Uiso   1.00
C75    C     0.57808   0.11430   0.46453   0.00000  Uiso   1.00
C76    C     0.35623   0.31949   0.24808   0.00000  Uiso   1.00
C77    C     0.64377   0.01384   0.25192   0.00000  Uiso   1.00
C78    C     0.35417   0.17032   0.34091   0.00000  Uiso   1.00
H79    H     0.39503   0.24118   0.05859   0.00000  Uiso   1.00
H80    H     0.60064   0.32996   0.25560   0.00000  Uiso   1.00
H81    H     0.49572   0.12424   0.21433   0.00000  Uiso   1.00
H82    H     0.50428   0.20910   0.28567   0.00000  Uiso   1.00
H83    H     0.60497   0.09215   0.44141   0.00000  Uiso   1.00
H84    H     0.57608   0.21305   0.10626   0.00000  Uiso   1.00
H85    H     0.42392   0.12028   0.39374   0.00000  Uiso   1.00
H86    H     0.36784   0.10262   0.09468   0.00000  Uiso   1.00
H87    H     0.63215   0.23071   0.40532   0.00000  Uiso   1.00
H88    H     0.66335   0.25186   0.49081   0.00000  Uiso   1.00
H89    H     0.33664   0.08148   0.00919   0.00000  Uiso   1.00
H90    H     0.39936   0.00338   0.24440   0.00000  Uiso   1.00
N91    N     0.48029   0.15216   0.23739   0.00000  Uiso   1.00
N92    N     0.51971   0.18117   0.26260   0.00000  Uiso   1.00
N93    N     0.47840   0.20832   0.14966   0.00000  Uiso   1.00
N94    N     0.52160   0.12502   0.35034   0.00000  Uiso   1.00
O95    O     0.63052   0.24631   0.25309   0.00000  Uiso   1.00
O96    O     0.36948   0.08702   0.24690   0.00000  Uiso   1.00
O97    O     0.39155   0.23702   0.24502   0.00000  Uiso   1.00
O98    O     0.60845   0.09632   0.25498   0.00000  Uiso   1.00
O99    O     0.63662   0.17397   0.32247   0.00000  Uiso   1.00
O100   O     0.36338   0.15937   0.17753   0.00000  Uiso   1.00
O101   O     0.39764   0.16467   0.31439   0.00000  Uiso   1.00
O102   O     0.60236   0.16866   0.18561   0.00000  Uiso   1.00
Zn103  Zn    0.60366   0.17287   0.25539   0.00000  Uiso   1.00
Zn104  Zn    0.39634   0.16046   0.24461   0.00000  Uiso   1.00
C105   C     0.68175   0.26490   0.24880   0.00000  Uiso   1.00
C106   C     0.97916   0.16301   0.15909   0.00000  Uiso   1.00
C107   C     0.69774   0.17738   0.39304   0.00000  Uiso   1.00
C108   C     0.96892   0.15595   0.10696   0.00000  Uiso   1.00
C109   C     0.68725   0.22581   0.46879   0.00000  Uiso   1.00
C110   C     0.97942   0.10752   0.03121   0.00000  Uiso   1.00
C111   C     0.66851   0.21276   0.42081   0.00000  Uiso   1.00
C112   C     0.99816   0.12057   0.07919   0.00000  Uiso   1.00
C113   C     0.74327   0.15379   0.41367   0.00000  Uiso   1.00
C114   C     0.92340   0.17955   0.08633   0.00000  Uiso   1.00
C115   C     0.76924   0.17327   0.45831   0.00000  Uiso   1.00
C116   C     0.98492   0.06843   0.25120   0.00000  Uiso   1.00
C117   C     0.89743   0.16007   0.04168   0.00000  Uiso   1.00
C118   C     0.73784   0.20687   0.48743   0.00000  Uiso   1.00
C119   C     0.92883   0.12647   0.01257   0.00000  Uiso   1.00
C120   C     0.82423   0.15962   0.47519   0.00000  Uiso   1.00
C121   C     0.84244   0.17372   0.02481   0.00000  Uiso   1.00
C122   C     0.80861   0.20407   0.10769   0.00000  Uiso   1.00
C123   C     0.85805   0.12927   0.39231   0.00000  Uiso   1.00
C124   C     0.80409   0.19970   0.05532   0.00000  Uiso   1.00
C125   C     0.86258   0.13364   0.44468   0.00000  Uiso   1.00
C126   C     0.75525   0.21904   0.03547   0.00000  Uiso   1.00
C127   C     0.91142   0.11430   0.46453   0.00000  Uiso   1.00
C128   C     0.68957   0.31949   0.24808   0.00000  Uiso   1.00
C129   C     0.97710   0.01384   0.25192   0.00000  Uiso   1.00
C130   C     0.68750   0.17032   0.34091   0.00000  Uiso   1.00
H131   H     0.72837   0.24118   0.05859   0.00000  Uiso   1.00
H132   H     0.93398   0.32996   0.25560   0.00000  Uiso   1.00
H133   H     0.82906   0.12424   0.21433   0.00000  Uiso   1.00
H134   H     0.83761   0.20910   0.28567   0.00000  Uiso   1.00
H135   H     0.93830   0.09215   0.44141   0.00000  Uiso   1.00
H136   H     0.90941   0.21305   0.10626   0.00000  Uiso   1.00
H137   H     0.75726   0.12028   0.39374   0.00000  Uiso   1.00
H138   H     0.70118   0.10262   0.09468   0.00000  Uiso   1.00
H139   H     0.96549   0.23071   0.40532   0.00000  Uiso   1.00
H140   H     0.99669   0.25186   0.49081   0.00000  Uiso   1.00
H141   H     0.66998   0.08148   0.00919   0.00000  Uiso   1.00
H142   H     0.73269   0.00338   0.24440   0.00000  Uiso   1.00
N143   N     0.81362   0.15216   0.23739   0.00000  Uiso   1.00
N144   N     0.85305   0.18117   0.26260   0.00000  Uiso   1.00
N145   N     0.81173   0.20832   0.14966   0.00000  Uiso   1.00
N146   N     0.85493   0.12502   0.35034   0.00000  Uiso   1.00
O147   O     0.96386   0.24631   0.25309   0.00000  Uiso   1.00
O148   O     0.70281   0.08702   0.24690   0.00000  Uiso   1.00
O149   O     0.72488   0.23702   0.24502   0.00000  Uiso   1.00
O150   O     0.94178   0.09632   0.25498   0.00000  Uiso   1.00
O151   O     0.96995   0.17397   0.32247   0.00000  Uiso   1.00
O152   O     0.69672   0.15937   0.17753   0.00000  Uiso   1.00
O153   O     0.73098   0.16467   0.31439   0.00000  Uiso   1.00
O154   O     0.93569   0.16866   0.18561   0.00000  Uiso   1.00
Zn155  Zn    0.93700   0.17287   0.25539   0.00000  Uiso   1.00
Zn156  Zn    0.72967   0.16046   0.24461   0.00000  Uiso   1.00
C157   C     0.01508   0.59824   0.24880   0.00000  Uiso   1.00
C158   C     0.31250   0.49634   0.15909   0.00000  Uiso   1.00
C159   C     0.03108   0.51072   0.39304   0.00000  Uiso   1.00
C160   C     0.30226   0.48928   0.10696   0.00000  Uiso   1.00
C161   C     0.02058   0.55914   0.46879   0.00000  Uiso   1.00
C162   C     0.31275   0.44086   0.03121   0.00000  Uiso   1.00
C163   C     0.00184   0.54610   0.42081   0.00000  Uiso   1.00
C164   C     0.33149   0.45390   0.07919   0.00000  Uiso   1.00
C165   C     0.07660   0.48712   0.41367   0.00000  Uiso   1.00
C166   C     0.25673   0.51288   0.08633   0.00000  Uiso   1.00
C167   C     0.10257   0.50660   0.45831   0.00000  Uiso   1.00
C168   C     0.31825   0.40176   0.25120   0.00000  Uiso   1.00
C169   C     0.23076   0.49340   0.04168   0.00000  Uiso   1.00
C170   C     0.07117   0.54020   0.48743   0.00000  Uiso   1.00
C171   C     0.26216   0.45980   0.01257   0.00000  Uiso   1.00
C172   C     0.15756   0.49295   0.47519   0.00000  Uiso   1.00
C173   C     0.17577   0.50705   0.02481   0.00000  Uiso   1.00
C174   C     0.14195   0.53740   0.10769   0.00000  Uiso   1.00
C175   C     0.19139   0.46260   0.39231   0.00000  Uiso   1.00
C176   C     0.13742   0.53303   0.05532   0.00000  Uiso   1.00
C177   C     0.19591   0.46697   0.44468   0.00000  Uiso   1.00
C178   C     0.08858   0.55237   0.03547   0.00000  Uiso   1.00
C179   C     0.24475   0.44763   0.46453   0.00000  Uiso   1.00
C180   C     0.02290   0.65283   0.24808   0.00000  Uiso   1.00
C181   C     0.31043   0.34717   0.25192   0.00000  Uiso   1.00
C182   C     0.02084   0.50366   0.34091   0.00000  Uiso   1.00
H183   H     0.06170   0.57451   0.05859   0.00000  Uiso   1.00
H184   H     0.26731   0.66329   0.25560   0.00000  Uiso   1.00
H185   H     0.16239   0.45757   0.21433   0.00000  Uiso   1.00
H186   H     0.17094   0.54243   0.28567   0.00000  Uiso   1.00
H187   H     0.27163   0.42549   0.44141   0.00000  Uiso   1.00
H188   H     0.24274   0.54639   0.10626   0.00000  Uiso   1.00
H189   H     0.09059   0.45362   0.39374   0.00000  Uiso   1.00
H190   H     0.03451   0.43596   0.09468   0.00000  Uiso   1.00
H191   H     0.29882   0.56404   0.40532   0.00000  Uiso   1.00
H192   H     0.33002   0.58519   0.49081   0.00000  Uiso   1.00
H193   H     0.00331   0.41481   0.00919   0.00000  Uiso   1.00
H194   H     0.06602   0.33671   0.24440   0.00000  Uiso   1.00
N195   N     0.14695   0.48550   0.23739   0.00000  Uiso   1.00
N196   N     0.18638   0.51450   0.26260   0.00000  Uiso   1.00
N197   N     0.14507   0.54165   0.14966   0.00000  Uiso   1.00
N198   N     0.18827   0.45835   0.35034   0.00000  Uiso   1.00
O199   O     0.29719   0.57964   0.25309   0.00000  Uiso   1.00
O200   O     0.03614   0.42036   0.24690   0.00000  Uiso   1.00
O201   O     0.05822   0.57035   0.24502   0.00000  Uiso   1.00
O202   O     0.27512   0.42965   0.25498   0.00000  Uiso   1.00
O203   O     0.30328   0.50730   0.32247   0.00000  Uiso   1.00
O204   O     0.03005   0.49270   0.17753   0.00000  Uiso   1.00
O205   O     0.06431   0.49801   0.31439   0.00000  Uiso   1.00
O206   O     0.26902   0.50199   0.18561   0.00000  Uiso   1.00
Zn207  Zn    0.27033   0.50621   0.25539   0.00000  Uiso   1.00
Zn208  Zn    0.06300   0.49379   0.24461   0.00000  Uiso   1.00
C209   C     0.34841   0.59824   0.24880   0.00000  Uiso   1.00
C210   C     0.64583   0.49634   0.15909   0.00000  Uiso   1.00
C211   C     0.36441   0.51072   0.39304   0.00000  Uiso   1.00
C212   C     0.63559   0.48928   0.10696   0.00000  Uiso   1.00
C213   C     0.35392   0.55914   0.46879   0.00000  Uiso   1.00
C214   C     0.64608   0.44086   0.03121   0.00000  Uiso   1.00
C215   C     0.33518   0.54610   0.42081   0.00000  Uiso   1.00
C216   C     0.66482   0.45390   0.07919   0.00000  Uiso   1.00
C217   C     0.40994   0.48712   0.41367   0.00000  Uiso   1.00
C218   C     0.59006   0.51288   0.08633   0.00000  Uiso   1.00
C219   C     0.43590   0.50660   0.45831   0.00000  Uiso   1.00
C220   C     0.65159   0.40176   0.25120   0.00000  Uiso   1.00
C221   C     0.56410   0.49340   0.04168   0.00000  Uiso   1.00
C222   C     0.40451   0.54020   0.48743   0.00000  Uiso   1.00
C223   C     0.59549   0.45980   0.01257   0.00000  Uiso   1.00
C224   C     0.49090   0.49295   0.47519   0.00000  Uiso   1.00
C225   C     0.50910   0.50705   0.02481   0.00000  Uiso   1.00
C226   C     0.47528   0.53740   0.10769   0.00000  Uiso   1.00
C227   C     0.52472   0.46260   0.39231   0.00000  Uiso   1.00
C228   C     0.47075   0.53303   0.05532   0.00000  Uiso   1.00
C229   C     0.52925   0.46697   0.44468   0.00000  Uiso   1.00
C230   C     0.42192   0.55237   0.03547   0.00000  Uiso   1.00
C231   C     0.57808   0.44763   0.46453   0.00000  Uiso   1.00
C232   C     0.35623   0.65283   0.24808   0.00000  Uiso   1.00
C233   C     0.64377   0.34717   0.25192   0.00000  Uiso   1.00
C234   C     0.35417   0.50366   0.34091   0.00000  Uiso   1.00
H235   H     0.39503   0.57451   0.05859   0.00000  Uiso   1.00
H236   H     0.60064   0.66329   0.25560   0.00000  Uiso   1.00
H237   H     0.49572   0.45757   0.21433   0.00000  Uiso   1.00
H238   H     0.50428   0.54243   0.28567   0.00000  Uiso   1.00
H239   H     0.60497   0.42549   0.44141   0.00000  Uiso   1.00
H240   H     0.57608   0.54639   0.10626   0.00000  Uiso   1.00
H241   H     0.42392   0.45362   0.39374   0.00000  Uiso   1.00
H242   H     0.36784   0.43596   0.09468   0.00000  Uiso   1.00
H243   H     0.63215   0.56404   0.40532   0.00000  Uiso   1.00
H244   H     0.66335   0.58519   0.49081   0.00000  Uiso   1.00
H245   H     0.33664   0.41481   0.00919   0.00000  Uiso   1.00
H246   H     0.39936   0.33671   0.24440   0.00000  Uiso   1.00
N247   N     0.48029   0.48550   0.23739   0.00000  Uiso   1.00
N248   N     0.51971   0.51450   0.26260   0.00000  Uiso   1.00
N249   N     0.47840   0.54165   0.14966   0.00000  Uiso   1.00
N250   N     0.52160   0.45835   0.35034   0.00000  Uiso   1.00
O251   O     0.63052   0.57964   0.25309   0.00000  Uiso   1.00
O252   O     0.36948   0.42036   0.24690   0.00000  Uiso   1.00
O253   O     0.39155   0.57035   0.24502   0.00000  Uiso   1.00
O254   O     0.60845   0.42965   0.25498   0.00000  Uiso   1.00
O255   O     0.63662   0.50730   0.32247   0.00000  Uiso   1.00
O256   O     0.36338   0.49270   0.17753   0.00000  Uiso   1.00
O257   O     0.39764   0.49801   0.31439   0.00000  Uiso   1.00
O258   O     0.60236   0.50199   0.18561   0.00000  Uiso   1.00
Zn259  Zn    0.60366   0.50621   0.25539   0.00000  Uiso   1.00
Zn260  Zn    0.39634   0.49379   0.24461   0.00000  Uiso   1.00
C261   C     0.68175   0.59824   0.24880   0.00000  Uiso   1.00
C262   C     0.97916   0.49634   0.15909   0.00000  Uiso   1.00
C263   C     0.69774   0.51072   0.39304   0.00000  Uiso   1.00
C264   C     0.96892   0.48928   0.10696   0.00000  Uiso   1.00
C265   C     0.68725   0.55914   0.46879   0.00000  Uiso   1.00
C266   C     0.97942   0.44086   0.03121   0.00000  Uiso   1.00
C267   C     0.66851   0.54610   0.42081   0.00000  Uiso   1.00
C268   C     0.99816   0.45390   0.07919   0.00000  Uiso   1.00
C269   C     0.74327   0.48712   0.41367   0.00000  Uiso   1.00
C270   C     0.92340   0.51288   0.08633   0.00000  Uiso   1.00
C271   C     0.76924   0.50660   0.45831   0.00000  Uiso   1.00
C272   C     0.98492   0.40176   0.25120   0.00000  Uiso   1.00
C273   C     0.89743   0.49340   0.04168   0.00000  Uiso   1.00
C274   C     0.73784   0.54020   0.48743   0.00000  Uiso   1.00
C275   C     0.92883   0.45980   0.01257   0.00000  Uiso   1.00
C276   C     0.82423   0.49295   0.47519   0.00000  Uiso   1.00
C277   C     0.84244   0.50705   0.02481   0.00000  Uiso   1.00
C278   C     0.80861   0.53740   0.10769   0.00000  Uiso   1.00
C279   C     0.85805   0.46260   0.39231   0.00000  Uiso   1.00
C280   C     0.80409   0.53303   0.05532   0.00000  Uiso   1.00
C281   C     0.86258   0.46697   0.44468   0.00000  Uiso   1.00
C282   C     0.75525   0.55237   0.03547   0.00000  Uiso   1.00
C283   C     0.91142   0.44763   0.46453   0.00000  Uiso   1.00
C284   C     0.68957   0.65283   0.24808   0.00000  Uiso   1.00
C285   C     0.97710   0.34717   0.25192   0.00000  Uiso   1.00
C286   C     0.68750   0.50366   0.34091   0.00000  Uiso   1.00
H287   H     0.72837   0.57451   0.05859   0.00000  Uiso   1.00
H288   H     0.93398   0.66329   0.25560   0.00000  Uiso   1.00
H289   H     0.82906   0.45757   0.21433   0.00000  Uiso   1.00
H290   H     0.83761   0.54243   0.28567   0.00000  Uiso   1.00
H291   H     0.93830   0.42549   0.44141   0.00000  Uiso   1.00
H292   H     0.90941   0.54639   0.10626   0.00000  Uiso   1.00
H293   H     0.75726   0.45362   0.39374   0.00000  Uiso   1.00
H294   H     0.70118   0.43596   0.09468   0.00000  Uiso   1.00
H295   H     0.96549   0.56404   0.40532   0.00000  Uiso   1.00
H296   H     0.99669   0.58519   0.49081   0.00000  Uiso   1.00
H297   H     0.66998   0.41481   0.00919   0.00000  Uiso   1.00
H298   H     0.73269   0.33671   0.24440   0.00000  Uiso   1.00
N299   N     0.81362   0.48550   0.23739   0.00000  Uiso   1.00
N300   N     0.85305   0.51450   0.26260   0.00000  Uiso   1.00
N301   N     0.81173   0.54165   0.14966   0.00000  Uiso   1.00
N302   N     0.85493   0.45835   0.35034   0.00000  Uiso   1.00
O303   O     0.96386   0.57964   0.25309   0.00000  Uiso   1.00
O304   O     0.70281   0.42036   0.24690   0.00000  Uiso   1.00
O305   O     0.72488   0.57035   0.24502   0.00000  Uiso   1.00
O306   O     0.94178   0.42965   0.25498   0.00000  Uiso   1.00
O307   O     0.96995   0.50730   0.32247   0.00000  Uiso   1.00
O308   O     0.69672   0.49270   0.17753   0.00000  Uiso   1.00
O309   O     0.73098   0.49801   0.31439   0.00000  Uiso   1.00
O310   O     0.93569   0.50199   0.18561   0.00000  Uiso   1.00
Zn311  Zn    0.93700   0.50621   0.25539   0.00000  Uiso   1.00
Zn312  Zn    0.72967   0.49379   0.24461   0.00000  Uiso   1.00
C313   C     0.01508   0.93157   0.24880   0.00000  Uiso   1.00
C314   C     0.31250   0.82968   0.15909   0.00000  Uiso   1.00
C315   C     0.03108   0.84405   0.39304   0.00000  Uiso   1.00
C316   C     0.30226   0.82262   0.10696   0.00000  Uiso   1.00
C317   C     0.02058   0.89248   0.46879   0.00000  Uiso   1.00
C318   C     0.31275   0.77419   0.03121   0.00000  Uiso   1.00
C319   C     0.00184   0.87943   0.42081   0.00000  Uiso   1.00
C320   C     0.33149   0.78724   0.07919   0.00000  Uiso   1.00
C321   C     0.07660   0.82045   0.41367   0.00000  Uiso   1.00
C322   C     0.25673   0.84621   0.08633   0.00000  Uiso   1.00
C323   C     0.10257   0.83993   0.45831   0.00000  Uiso   1.00
C324   C     0.31825   0.73510   0.25120   0.00000  Uiso   1.00
C325   C     0.23076   0.82673   0.04168   0.00000  Uiso   1.00
C326   C     0.07117   0.87353   0.48743   0.00000  Uiso   1.00
C327   C     0.26216   0.79313   0.01257   0.00000  Uiso   1.00
C328   C     0.15756   0.82628   0.47519   0.00000  Uiso   1.00
C329   C     0.17577   0.84039   0.02481   0.00000  Uiso   1.00
C330   C     0.14195   0.87073   0.10769   0.00000  Uiso   1.00
C331   C     0.19139   0.79594   0.39231   0.00000  Uiso   1.00
C332   C     0.13742   0.86636   0.05532   0.00000  Uiso   1.00
C333   C     0.19591   0.80030   0.44468   0.00000  Uiso   1.00
C334   C     0.08858   0.88570   0.03547   0.00000  Uiso   1.00
C335   C     0.24475   0.78097   0.46453   0.00000  Uiso   1.00
C336   C     0.02290   0.98616   0.24808   0.00000  Uiso   1.00
C337   C     0.31043   0.68051   0.25192   0.00000  Uiso   1.00
C338   C     0.02084   0.83699   0.34091   0.00000  Uiso   1.00
H339   H     0.06170   0.90785   0.05859   0.00000  Uiso   1.00
H340   H     0.26731   0.99662   0.25560   0.00000  Uiso   1.00
H341   H     0.16239   0.79090   0.21433   0.00000  Uiso   1.00
H342   H     0.17094   0.87576   0.28567   0.00000  Uiso   1.00
H343   H     0.27163   0.75882   0.44141   0.00000  Uiso   1.00
H344   H     0.24274   0.87972   0.10626   0.00000  Uiso   1.00
H345   H     0.09059   0.78695   0.39374   0.00000  Uiso   1.00
H346   H     0.03451   0.76929   0.09468   0.00000  Uiso   1.00
H347   H     0.29882   0.89738   0.40532   0.00000  Uiso   1.00
H348   H     0.33002   0.91852   0.49081   0.00000  Uiso   1.00
H349   H     0.00331   0.74814   0.00919   0.00000  Uiso   1.00
H350   H     0.06602   0.67004   0.24440   0.00000  Uiso   1.00
N351   N     0.14695   0.81883   0.23739   0.00000  Uiso   1.00
N352   N     0.18638   0.84784   0.26260   0.00000  Uiso   1.00
N353   N     0.14507   0.87499   0.14966   0.00000  Uiso   1.00
N354   N     0.18827   0.79168   0.35034   0.00000  Uiso   1.00
O355   O     0.29719   0.91298   0.25309   0.00000  Uiso   1.00
O356   O     0.03614   0.75369   0.24690   0.00000  Uiso   1.00
O357   O     0.05822   0.90368   0.24502   0.00000  Uiso   1.00
O358   O     0.27512   0.76298   0.25498   0.00000  Uiso   1.00
O359   O     0.30328   0.84063   0.32247   0.00000  Uiso   1.00
O360   O     0.03005   0.82603   0.17753   0.00000  Uiso   1.00
O361   O     0.06431   0.83134   0.31439   0.00000  Uiso   1.00
O362   O     0.26902   0.83533   0.18561   0.00000  Uiso   1.00
Zn363  Zn    0.27033   0.83954   0.25539   0.00000  Uiso   1.00
Zn364  Zn    0.06300   0.82713   0.24461   0.00000  Uiso   1.00
C365   C     0.34841   0.93157   0.24880   0.00000  Uiso   1.00
C366   C     0.64583   0.82968   0.15909   0.00000  Uiso   1.00
C367   C     0.36441   0.84405   0.39304   0.00000  Uiso   1.00
C368   C     0.63559   0.82262   0.10696   0.00000  Uiso   1.00
C369   C     0.35392   0.89248   0.46879   0.00000  Uiso   1.00
C370   C     0.64608   0.77419   0.03121   0.00000  Uiso   1.00
C371   C     0.33518   0.87943   0.42081   0.00000  Uiso   1.00
C372   C     0.66482   0.78724   0.07919   0.00000  Uiso   1.00
C373   C     0.40994   0.82045   0.41367   0.00000  Uiso   1.00
C374   C     0.59006   0.84621   0.08633   0.00000  Uiso   1.00
C375   C     0.43590   0.83993   0.45831   0.00000  Uiso   1.00
C376   C     0.65159   0.73510   0.25120   0.00000  Uiso   1.00
C377   C     0.56410   0.82673   0.04168   0.00000  Uiso   1.00
C378   C     0.40451   0.87353   0.48743   0.00000  Uiso   1.00
C379   C     0.59549   0.79313   0.01257   0.00000  Uiso   1.00
C380   C     0.49090   0.82628   0.47519   0.00000  Uiso   1.00
C381   C     0.50910   0.84039   0.02481   0.00000  Uiso   1.00
C382   C     0.47528   0.87073   0.10769   0.00000  Uiso   1.00
C383   C     0.52472   0.79594   0.39231   0.00000  Uiso   1.00
C384   C     0.47075   0.86636   0.05532   0.00000  Uiso   1.00
C385   C     0.52925   0.80030   0.44468   0.00000  Uiso   1.00
C386   C     0.42192   0.88570   0.03547   0.00000  Uiso   1.00
C387   C     0.57808   0.78097   0.46453   0.00000  Uiso   1.00
C388   C     0.35623   0.98616   0.24808   0.00000  Uiso   1.00
C389   C     0.64377   0.68051   0.25192   0.00000  Uiso   1.00
C390   C     0.35417   0.83699   0.34091   0.00000  Uiso   1.00
H391   H     0.39503   0.90785   0.05859   0.00000  Uiso   1.00
H392   H     0.60064   0.99662   0.25560   0.00000  Uiso   1.00
H393   H     0.49572   0.79090   0.21433   0.00000  Uiso   1.00
H394   H     0.50428   0.87576   0.28567   0.00000  Uiso   1.00
H395   H     0.60497   0.75882   0.44141   0.00000  Uiso   1.00
H396   H     0.57608   0.87972   0.10626   0.00000  Uiso   1.00
H397   H     0.42392   0.78695   0.39374   0.00000  Uiso   1.00
H398   H     0.36784   0.76929   0.09468   0.00000  Uiso   1.00
H399   H     0.63215   0.89738   0.40532   0.00000  Uiso   1.00
H400   H     0.66335   0.91852   0.49081   0.00000  Uiso   1.00
H401   H     0.33664   0.74814   0.00919   0.00000  Uiso   1.00
H402   H     0.39936   0.67004   0.24440   0.00000  Uiso   1.00
N403   N     0.48029   0.81883   0.23739   0.00000  Uiso   1.00
N404   N     0.51971   0.84784   0.26260   0.00000  Uiso   1.00
N405   N     0.47840   0.87499   0.14966   0.00000  Uiso   1.00
N406   N     0.52160   0.79168   0.35034   0.00000  Uiso   1.00
O407   O     0.63052   0.91298   0.25309   0.00000  Uiso   1.00
O408   O     0.36948   0.75369   0.24690   0.00000  Uiso   1.00
O409   O     0.39155   0.90368   0.24502   0.00000  Uiso   1.00
O410   O     0.60845   0.76298   0.25498   0.00000  Uiso   1.00
O411   O     0.63662   0.84063   0.32247   0.00000  Uiso   1.00
O412   O     0.36338   0.82603   0.17753   0.00000  Uiso   1.00
O413   O     0.39764   0.83134   0.31439   0.00000  Uiso   1.00
O414   O     0.60236   0.83533   0.18561   0.00000  Uiso   1.00
Zn415  Zn    0.60366   0.83954   0.25539   0.00000  Uiso   1.00
Zn416  Zn    0.39634   0.82713   0.24461   0.00000  Uiso   1.00
C417   C     0.68175   0.93157   0.24880   0.00000  Uiso   1.00
C418   C     0.97916   0.82968   0.15909   0.00000  Uiso   1.00
C419   C     0.69774   0.84405   0.39304   0.00000  Uiso   1.00
C420   C     0.96892   0.82262   0.10696   0.00000  Uiso   1.00
C421   C     0.68725   0.89248   0.46879   0.00000  Uiso   1.00
C422   C     0.97942   0.77419   0.03121   0.00000  Uiso   1.00
C423   C     0.66851   0.87943   0.42081   0.00000  Uiso   1.00
C424   C     0.99816   0.78724   0.07919   0.00000  Uiso   1.00
C425   C     0.74327   0.82045   0.41367   0.00000  Uiso   1.00
C426   C     0.92340   0.84621   0.08633   0.00000  Uiso   1.00
C427   C     0.76924   0.83993   0.45831   0.00000  Uiso   1.00
C428   C     0.98492   0.73510   0.25120   0.00000  Uiso   1.00
C429   C     0.89743   0.82673   0.04168   0.00000  Uiso   1.00
C430   C     0.73784   0.87353   0.48743   0.00000  Uiso   1.00
C431   C     0.92883   0.79313   0.01257   0.00000  Uiso   1.00
C432   C     0.82423   0.82628   0.47519   0.00000  Uiso   1.00
C433   C     0.84244   0.84039   0.02481   0.00000  Uiso   1.00
C434   C     0.80861   0.87073   0.10769   0.00000  Uiso   1.00
C435   C     0.85805   0.79594   0.39231   0.00000  Uiso   1.00
C436   C     0.80409   0.86636   0.05532   0.00000  Uiso   1.00
C437   C     0.86258   0.80030   0.44468   0.00000  Uiso   1.00
C438   C     0.75525   0.88570   0.03547   0.00000  Uiso   1.00
C439   C     0.91142   0.78097   0.46453   0.00000  Uiso   1.00
C440   C     0.68957   0.98616   0.24808   0.00000  Uiso   1.00
C441   C     0.97710   0.68051   0.25192   0.00000  Uiso   1.00
C442   C     0.68750   0.83699   0.34091   0.00000  Uiso   1.00
H443   H     0.72837   0.90785   0.05859   0.00000  Uiso   1.00
H444   H     0.93398   0.99662   0.25560   0.00000  Uiso   1.00
H445   H     0.82906   0.79090   0.21433   0.00000  Uiso   1.00
H446   H     0.83761   0.87576   0.28567   0.00000  Uiso   1.00
H447   H     0.93830   0.75882   0.44141   0.00000  Uiso   1.00
H448   H     0.90941   0.87972   0.10626   0.00000  Uiso   1.00
H449   H     0.75726   0.78695   0.39374   0.00000  Uiso   1.00
H450   H     0.70118   0.76929   0.09468   0.00000  Uiso   1.00
H451   H     0.96549   0.89738   0.40532   0.00000  Uiso   1.00
H452   H     0.99669   0.91852   0.49081   0.00000  Uiso   1.00
H453   H     0.66998   0.74814   0.00919   0.00000  Uiso   1.00
H454   H     0.73269   0.67004   0.24440   0.00000  Uiso   1.00
N455   N     0.81362   0.81883   0.23739   0.00000  Uiso   1.00
N456   N     0.85305   0.84784   0.26260   0.00000  Uiso   1.00
N457   N     0.81173   0.87499   0.14966   0.00000  Uiso   1.00
N458   N     0.85493   0.79168   0.35034   0.00000  Uiso   1.00
O459   O     0.96386   0.91298   0.25309   0.00000  Uiso   1.00
O460   O     0.70281   0.75369   0.24690   0.00000  Uiso   1.00
O461   O     0.72488   0.90368   0.24502   0.00000  Uiso   1.00
O462   O     0.94178   0.76298   0.25498   0.00000  Uiso   1.00
O463   O     0.96995   0.84063   0.32247   0.00000  Uiso   1.00
O464   O     0.69672   0.82603   0.17753   0.00000  Uiso   1.00
O465   O     0.73098   0.83134   0.31439   0.00000  Uiso   1.00
O466   O     0.93569   0.83533   0.18561   0.00000  Uiso   1.00
Zn467  Zn    0.93700   0.83954   0.25539   0.00000  Uiso   1.00
Zn468  Zn    0.72967   0.82713   0.24461   0.00000  Uiso   1.00
C469   C     0.01508   0.26490   0.74880   0.00000  Uiso   1.00
C470   C     0.31250   0.16301   0.65909   0.00000  Uiso   1.00
C471   C     0.03108   0.17738   0.89304   0.00000  Uiso   1.00
C472   C     0.30226   0.15595   0.60696   0.00000  Uiso   1.00
C473   C     0.02058   0.22581   0.96879   0.00000  Uiso   1.00
C474   C     0.31275   0.10752   0.53121   0.00000  Uiso   1.00
C475   C     0.00184   0.21276   0.92081   0.00000  Uiso   1.00
C476   C     0.33149   0.12057   0.57919   0.00000  Uiso   1.00
C477   C     0.07660   0.15379   0.91367   0.00000  Uiso   1.00
C478   C     0.25673   0.17955   0.58633   0.00000  Uiso   1.00
C479   C     0.10257   0.17327   0.95831   0.00000  Uiso   1.00
C480   C     0.31825   0.06843   0.75120   0.00000  Uiso   1.00
C481   C     0.23076   0.16007   0.54168   0.00000  Uiso   1.00
C482   C     0.07117   0.20687   0.98743   0.00000  Uiso   1.00
C483   C     0.26216   0.12647   0.51257   0.00000  Uiso   1.00
C484   C     0.15756   0.15962   0.97519   0.00000  Uiso   1.00
C485   C     0.17577   0.17372   0.52481   0.00000  Uiso   1.00
C486   C     0.14195   0.20407   0.60769   0.00000  Uiso   1.00
C487   C     0.19139   0.12927   0.89231   0.00000  Uiso   1.00
C488   C     0.13742   0.19970   0.55532   0.00000  Uiso   1.00
C489   C     0.19591   0.13364   0.94468   0.00000  Uiso   1.00
C490   C     0.08858   0.21904   0.53547   0.00000  Uiso   1.00
C491   C     0.24475   0.11430   0.96453   0.00000  Uiso   1.00
C492   C     0.02290   0.31949   0.74808   0.00000  Uiso   1.00
C493   C     0.31043   0.01384   0.75192   0.00000  Uiso   1.00
C494   C     0.02084   0.17032   0.84091   0.00000  Uiso   1.00
H495   H     0.06170   0.24118   0.55859   0.00000  Uiso   1.00
H496   H     0.26731   0.32996   0.75560   0.00000  Uiso   1.00
H497   H     0.16239   0.12424   0.71433   0.00000  Uiso   1.00
H498   H     0.17094   0.20910   0.78567   0.00000  Uiso   1.00
H499   H     0.27163   0.09215   0.94141   0.00000  Uiso   1.00
H500   H     0.24274   0.21305   0.60626   0.00000  Uiso   1.00
H501   H     0.09059   0.12028   0.89374   0.00000  Uiso   1.00
H502   H     0.03451   0.10262   0.59468   0.00000  Uiso   1.00
H503   H     0.29882   0.23071   0.90532   0.00000  Uiso   1.00
H504   H     0.33002   0.25186   0.99081   0.00000  Uiso   1.00
H505   H     0.00331   0.08148   0.50919   0.00000  Uiso   1.00
H506   H     0.06602   0.00338   0.74440   0.00000  Uiso   1.00
N507   N     0.14695   0.15216   0.73739   0.00000  Uiso   1.00
N508   N     0.18638   0.18117   0.76260   0.00000  Uiso   1.00
N509   N     0.14507   0.20832   0.64966   0.00000  Uiso   1.00
N510   N     0.18827   0.12502   0.85034   0.00000  Uiso   1.00
O511   O     0.29719   0.24631   0.75309   0.00000  Uiso   1.00
O512   O     0.03614   0.08702   0.74690   0.00000  Uiso   1.00
O513   O     0.05822   0.23702   0.74502   0.00000  Uiso   1.00
O514   O     0.27512   0.09632   0.75498   0.00000  Uiso   1.00
O515   O     0.30328   0.17397   0.82247   0.00000  Uiso   1.00
O516   O     0.03005   0.15937   0.67753   0.00000  Uiso   1.00
O517   O     0.06431   0.16467   0.81439   0.00000  Uiso   1.00
O518   O     0.26902   0.16866   0.68561   0.00000  Uiso   1.00
Zn519  Zn    0.27033   0.17287   0.75539   0.00000  Uiso   1.00
Zn520  Zn    0.06300   0.16046   0.74461   0.00000  Uiso   1.00
C521   C     0.34841   0.26490   0.74880   0.00000  Uiso   1.00
C522   C     0.64583   0.16301   0.65909   0.00000  Uiso   1.00
C523   C     0.36441   0.17738   0.89304   0.00000  Uiso   1.00
C524   C     0.63559   0.15595   0.60696   0.00000  Uiso   1.00
C525   C     0.35392   0.22581   0.96879   0.00000  Uiso   1.00
C526   C     0.64608   0.10752   0.53121   0.00000  Uiso   1.00
C527   C     0.33518   0.21276   0.92081   0.00000  Uiso   1.00
C528   C     0.66482   0.12057   0.57919   0.00000  Uiso   1.00
C529   C     0.40994   0.15379   0.91367   0.00000  Uiso   1.00
C530   C     0.59006   0.17955   0.58633   0.00000  Uiso   1.00
C531   C     0.43590   0.17327   0.95831   0.00000  Uiso   1.00
C532   C     0.65159   0.06843   0.75120   0.00000  Uiso   1.00
C533   C     0.56410   0.16007   0.54168   0.00000  Uiso   1.00
C534   C     0.40451   0.20687   0.98743   0.00000  Uiso   1.00
C535   C     0.59549   0.12647   0.51257   0.00000  Uiso   1.00
C536   C     0.49090   0.15962   0.97519   0.00000  Uiso   1.00
C537   C     0.50910   0.17372   0.52481   0.00000  Uiso   1.00
C538   C     0.47528   0.20407   0.60769   0.00000  Uiso   1.00
C539   C     0.52472   0.12927   0.89231   0.00000  Uiso   1.00
C540   C     0.47075   0.19970   0.55532   0.00000  Uiso   1.00
C541   C     0.52925   0.13364   0.94468   0.00000  Uiso   1.00
C542   C     0.42192   0.21904   0.53547   0.00000  Uiso   1.00
C543   C     0.57808   0.11430   0.96453   0.00000  Uiso   1.00
C544   C     0.35623   0.31949   0.74808   0.00000  Uiso   1.00
C545   C     0.64377   0.01384   0.75192   0.00000  Uiso   1.00
C546   C     0.35417   0.17032   0.84091   0.00000  Uiso   1.00
H547   H     0.39503   0.24118   0.55859   0.00000  Uiso   1.00
H548   H     0.60064   0.32996   0.75560   0.00000  Uiso   1.00
H549   H     0.49572   0.12424   0.71433   0.00000  Uiso   1.00
H550   H     0.50428   0.20910   0.78567   0.00000  Uiso   1.00
H551   H     0.60497   0.09215   0.94141   0.00000  Uiso   1.00
H552   H     0.57608   0.21305   0.60626   0.00000  Uiso   1.00
H553   H     0.42392   0.12028   0.89374   0.00000  Uiso   1.00
H554   H     0.36784   0.10262   0.59468   0.00000  Uiso   1.00
H555   H     0.63215   0.23071   0.90532   0.00000  Uiso   1.00
H556   H     0.66335   0.25186   0.99081   0.00000  Uiso   1.00
H557   H     0.33664   0.08148   0.50919   0.00000  Uiso   1.00
H558   H     0.39936   0.00338   0.74440   0.00000  Uiso   1.00
N559   N     0.48029   0.15216   0.73739   0.00000  Uiso   1.00
N560   N     0.51971   0.18117   0.76260   0.00000  Uiso   1.00
N561   N     0.47840   0.20832   0.64966   0.00000  Uiso   1.00
N562   N     0.52160   0.12502   0.85034   0.00000  Uiso   1.00
O563   O     0.63052   0.24631   0.75309   0.00000  Uiso   1.00
O564   O     0.36948   0.08702   0.74690   0.00000  Uiso   1.00
O565   O     0.39155   0.23702   0.74502   0.00000  Uiso   1.00
O566   O     0.60845   0.09632   0.75498   0.00000  Uiso   1.00
O567   O     0.63662   0.17397   0.82247   0.00000  Uiso   1.00
O568   O     0.36338   0.15937   0.67753   0.00000  Uiso   1.00
O569   O     0.39764   0.16467   0.81439   0.00000  Uiso   1.00
O570   O     0.60236   0.16866   0.68561   0.00000  Uiso   1.00
Zn571  Zn    0.60366   0.17287   0.75539   0.00000  Uiso   1.00
Zn572  Zn    0.39634   0.16046   0.74461   0.00000  Uiso   1.00
C573   C     0.68175   0.26490   0.74880   0.00000  Uiso   1.00
C574   C     0.97916   0.16301   0.65909   0.00000  Uiso   1.00
C575   C     0.69774   0.17738   0.89304   0.00000  Uiso   1.00
C576   C     0.96892   0.15595   0.60696   0.00000  Uiso   1.00
C577   C     0.68725   0.22581   0.96879   0.00000  Uiso   1.00
C578   C     0.97942   0.10752   0.53121   0.00000  Uiso   1.00
C579   C     0.66851   0.21276   0.92081   0.00000  Uiso   1.00
C580   C     0.99816   0.12057   0.57919   0.00000  Uiso   1.00
C581   C     0.74327   0.15379   0.91367   0.00000  Uiso   1.00
C582   C     0.92340   0.17955   0.58633   0.00000  Uiso   1.00
C583   C     0.76924   0.17327   0.95831   0.00000  Uiso   1.00
C584   C     0.98492   0.06843   0.75120   0.00000  Uiso   1.00
C585   C     0.89743   0.16007   0.54168   0.00000  Uiso   1.00
C586   C     0.73784   0.20687   0.98743   0.00000  Uiso   1.00
C587   C     0.92883   0.12647   0.51257   0.00000  Uiso   1.00
C588   C     0.82423   0.15962   0.97519   0.00000  Uiso   1.00
C589   C     0.84244   0.17372   0.52481   0.00000  Uiso   1.00
C590   C     0.80861   0.20407   0.60769   0.00000  Uiso   1.00
C591   C     0.85805   0.12927   0.89231   0.00000  Uiso   1.00
C592   C     0.80409   0.19970   0.55532   0.00000  Uiso   1.00
C593   C     0.86258   0.13364   0.94468   0.00000  Uiso   1.00
C594   C     0.75525   0.21904   0.53547   0.00000  Uiso   1.00
C595   C     0.91142   0.11430   0.96453   0.00000  Uiso   1.00
C596   C     0.68957   0.31949   0.74808   0.00000  Uiso   1.00
C597   C     0.97710   0.01384   0.75192   0.00000  Uiso   1.00
C598   C     0.68750   0.17032   0.84091   0.00000  Uiso   1.00
H599   H     0.72837   0.24118   0.55859   0.00000  Uiso   1.00
H600   H     0.93398   0.32996   0.75560   0.00000  Uiso   1.00
H601   H     0.82906   0.12424   0.71433   0.00000  Uiso   1.00
H602   H     0.83761   0.20910   0.78567   0.00000  Uiso   1.00
H603   H     0.93830   0.09215   0.94141   0.00000  Uiso   1.00
H604   H     0.90941   0.21305   0.60626   0.00000  Uiso   1.00
H605   H     0.75726   0.12028   0.89374   0.00000  Uiso   1.00
H606   H     0.70118   0.10262   0.59468   0.00000  Uiso   1.00
H607   H     0.96549   0.23071   0.90532   0.00000  Uiso   1.00
H608   H     0.99669   0.25186   0.99081   0.00000  Uiso   1.00
H609   H     0.66998   0.08148   0.50919   0.00000  Uiso   1.00
H610   H     0.73269   0.00338   0.74440   0.00000  Uiso   1.00
N611   N     0.81362   0.15216   0.73739   0.00000  Uiso   1.00
N612   N     0.85305   0.18117   0.76260   0.00000  Uiso   1.00
N613   N     0.81173   0.20832   0.64966   0.00000  Uiso   1.00
N614   N     0.85493   0.12502   0.85034   0.00000  Uiso   1.00
O615   O     0.96386   0.24631   0.75309   0.00000  Uiso   1.00
O616   O     0.70281   0.08702   0.74690   0.00000  Uiso   1.00
O617   O     0.72488   0.23702   0.74502   0.00000  Uiso   1.00
O618   O     0.94178   0.09632   0.75498   0.00000  Uiso   1.00
O619   O     0.96995   0.17397   0.82247   0.00000  Uiso   1.00
O620   O     0.69672   0.15937   0.67753   0.00000  Uiso   1.00
O621   O     0.73098   0.16467   0.81439   0.00000  Uiso   1.00
O622   O     0.93569   0.16866   0.68561   0.00000  Uiso   1.00
Zn623  Zn    0.93700   0.17287   0.75539   0.00000  Uiso   1.00
Zn624  Zn    0.72967   0.16046   0.74461   0.00000  Uiso   1.00
C625   C     0.01508   0.59824   0.74880   0.00000  Uiso   1.00
C626   C     0.31250   0.49634   0.65909   0.00000  Uiso   1.00
C627   C     0.03108   0.51072   0.89304   0.00000  Uiso   1.00
C628   C     0.30226   0.48928   0.60696   0.00000  Uiso   1.00
C629   C     0.02058   0.55914   0.96879   0.00000  Uiso   1.00
C630   C     0.31275   0.44086   0.53121   0.00000  Uiso   1.00
C631   C     0.00184   0.54610   0.92081   0.00000  Uiso   1.00
C632   C     0.33149   0.45390   0.57919   0.00000  Uiso   1.00
C633   C     0.07660   0.48712   0.91367   0.00000  Uiso   1.00
C634   C     0.25673   0.51288   0.58633   0.00000  Uiso   1.00
C635   C     0.10257   0.50660   0.95831   0.00000  Uiso   1.00
C636   C     0.31825   0.40176   0.75120   0.00000  Uiso   1.00
C637   C     0.23076   0.49340   0.54168   0.00000  Uiso   1.00
C638   C     0.07117   0.54020   0.98743   0.00000  Uiso   1.00
C639   C     0.26216   0.45980   0.51257   0.00000  Uiso   1.00
C640   C     0.15756   0.49295   0.97519   0.00000  Uiso   1.00
C641   C     0.17577   0.50705   0.52481   0.00000  Uiso   1.00
C642   C     0.14195   0.53740   0.60769   0.00000  Uiso   1.00
C643   C     0.19139   0.46260   0.89231   0.00000  Uiso   1.00
C644   C     0.13742   0.53303   0.55532   0.00000  Uiso   1.00
C645   C     0.19591   0.46697   0.94468   0.00000  Uiso   1.00
C646   C     0.08858   0.55237   0.53547   0.00000  Uiso   1.00
C647   C     0.24475   0.44763   0.96453   0.00000  Uiso   1.00
C648   C     0.02290   0.65283   0.74808   0.00000  Uiso   1.00
C649   C     0.31043   0.34717   0.75192   0.00000  Uiso   1.00
C650   C     0.02084   0.50366   0.84091   0.00000  Uiso   1.00
H651   H     0.06170   0.57451   0.55859   0.00000  Uiso   1.00
H652   H     0.26731   0.66329   0.75560   0.00000  Uiso   1.00
H653   H     0.16239   0.45757   0.71433   0.00000  Uiso   1.00
H654   H     0.17094   0.54243   0.78567   0.00000  Uiso   1.00
H655   H     0.27163   0.42549   0.94141   0.00000  Uiso   1.00
H656   H     0.24274   0.54639   0.60626   0.00000  Uiso   1.00
H657   H     0.09059   0.45362   0.89374   0.00000  Uiso   1.00
H658   H     0.03451   0.43596   0.59468   0.00000  Uiso   1.00
H659   H     0.29882   0.56404   0.90532   0.00000  Uiso   1.00
H660   H     0.33002   0.58519   0.99081   0.00000  Uiso   1.00
H661   H     0.00331   0.41481   0.50919   0.00000  Uiso   1.00
H662   H     0.06602   0.33671   0.74440   0.00000  Uiso   1.00
N663   N     0.14695   0.48550   0.73739   0.00000  Uiso   1.00
N664   N     0.18638   0.51450   0.76260   0.00000  Uiso   1.00
N665   N     0.14507   0.54165   0.64966   0.00000  Uiso   1.00
N666   N     0.18827   0.45835   0.85034   0.00000  Uiso   1.00
O667   O     0.29719   0.57964   0.75309   0.00000  Uiso   1.00
O668   O     0.03614   0.42036   0.74690   0.00000  Uiso   1.00
O669   O     0.05822   0.57035   0.74502   0.00000  Uiso   1.00
O670   O     0.27512   0.42965   0.75498   0.00000  Uiso   1.00
O671   O     0.30328   0.50730   0.82247   0.00000  Uiso   1.00
O672   O     0.03005   0.49270   0.67753   0.00000  Uiso   1.00
O673   O     0.06431   0.49801   0.81439   0.00000  Uiso   1.00
O674   O     0.26902   0.50199   0.68561   0.00000  Uiso   1.00
Zn675  Zn    0.27033   0.50621   0.75539   0.00000  Uiso   1.00
Zn676  Zn    0.06300   0.49379   0.74461   0.00000  Uiso   1.00
C677   C     0.34841   0.59824   0.74880   0.00000  Uiso   1.00
C678   C     0.64583   0.49634   0.65909   0.00000  Uiso   1.00
C679   C     0.36441   0.51072   0.89304   0.00000  Uiso   1.00
C680   C     0.63559   0.48928   0.60696   0.00000  Uiso   1.00
C681   C     0.35392   0.55914   0.96879   0.00000  Uiso   1.00
C682   C     0.64608   0.44086   0.53121   0.00000  Uiso   1.00
C683   C     0.33518   0.54610   0.92081   0.00000  Uiso   1.00
C684   C     0.66482   0.45390   0.57919   0.00000  Uiso   1.00
C685   C     0.40994   0.48712   0.91367   0.00000  Uiso   1.00
C686   C     0.59006   0.51288   0.58633   0.00000  Uiso   1.00
C687   C     0.43590   0.50660   0.95831   0.00000  Uiso   1.00
C688   C     0.65159   0.40176   0.75120   0.00000  Uiso   1.00
C689   C     0.56410   0.49340   0.54168   0.00000  Uiso   1.00
C690   C     0.40451   0.54020   0.98743   0.00000  Uiso   1.00
C691   C     0.59549   0.45980   0.51257   0.00000  Uiso   1.00
C692   C     0.49090   0.49295   0.97519   0.00000  Uiso   1.00
C693   C     0.50910   0.50705   0.52481   0.00000  Uiso   1.00
C694   C     0.47528   0.53740   0.60769   0.00000  Uiso   1.00
C695   C     0.52472   0.46260   0.89231   0.00000  Uiso   1.00
C696   C     0.47075   0.53303   0.55532   0.00000  Uiso   1.00
C697   C     0.52925   0.46697   0.94468   0.00000  Uiso   1.00
C698   C     0.42192   0.55237   0.53547   0.00000  Uiso   1.00
C699   C     0.57808   0.44763   0.96453   0.00000  Uiso   1.00
C700   C     0.35623   0.65283   0.74808   0.00000  Uiso   1.00
C701   C     0.64377   0.34717   0.75192   0.00000  Uiso   1.00
C702   C     0.35417   0.50366   0.84091   0.00000  Uiso   1.00
H703   H     0.39503   0.57451   0.55859   0.00000  Uiso   1.00
H704   H     0.60064   0.66329   0.75560   0.00000  Uiso   1.00
H705   H     0.49572   0.45757   0.71433   0.00000  Uiso   1.00
H706   H     0.50428   0.54243   0.78567   0.00000  Uiso   1.00
H707   H     0.60497   0.42549   0.94141   0.00000  Uiso   1.00
H708   H     0.57608   0.54639   0.60626   0.00000  Uiso   1.00
H709   H     0.42392   0.45362   0.89374   0.00000  Uiso   1.00
H710   H     0.36784   0.43596   0.59468   0.00000  Uiso   1.00
H711   H     0.63215   0.56404   0.90532   0.00000  Uiso   1.00
H712   H     0.66335   0.58519   0.99081   0.00000  Uiso   1.00
H713   H     0.33664   0.41481   0.50919   0.00000  Uiso   1.00
H714   H     0.39936   0.33671   0.74440   0.00000  Uiso   1.00
N715   N     0.48029   0.48550   0.73739   0.00000  Uiso   1.00
N716   N     0.51971   0.51450   0.76260   0.00000  Uiso   1.00
N717   N     0.47840   0.54165   0.64966   0.00000  Uiso   1.00
N718   N     0.52160   0.45835   0.85034   0.00000  Uiso   1.00
O719   O     0.63052   0.57964   0.75309   0.00000  Uiso   1.00
O720   O     0.36948   0.42036   0.74690   0.00000  Uiso   1.00
O721   O     0.39155   0.57035   0.74502   0.00000  Uiso   1.00
O722   O     0.60845   0.42965   0.75498   0.00000  Uiso   1.00
O723   O     0.63662   0.50730   0.82247   0.00000  Uiso   1.00
O724   O     0.36338   0.49270   0.67753   0.00000  Uiso   1.00
O725   O     0.39764   0.49801   0.81439   0.00000  Uiso   1.00
O726   O     0.60236   0.50199   0.68561   0.00000  Uiso   1.00
Zn727  Zn    0.60366   0.50621   0.75539   0.00000  Uiso   1.00
Zn728  Zn    0.39634   0.49379   0.74461   0.00000  Uiso   1.00
C729   C     0.68175   0.59824   0.74880   0.00000  Uiso   1.00
C730   C     0.97916   0.49634   0.65909   0.00000  Uiso   1.00
C731   C     0.69774   0.51072   0.89304   0.00000  Uiso   1.00
C732   C     0.96892   0.48928   0.60696   0.00000  Uiso   1.00
C733   C     0.68725   0.55914   0.96879   0.00000  Uiso   1.00
C734   C     0.97942   0.44086   0.53121   0.00000  Uiso   1.00
C735   C     0.66851   0.54610   0.92081   0.00000  Uiso   1.00
C736   C     0.99816   0.45390   0.57919   0.00000  Uiso   1.00
C737   C     0.74327   0.48712   0.91367   0.00000  Uiso   1.00
C738   C     0.92340   0.51288   0.58633   0.00000  Uiso   1.00
C739   C     0.76924   0.50660   0.95831   0.00000  Uiso   1.00
C740   C     0.98492   0.40176   0.75120   0.00000  Uiso   1.00
C741   C     0.89743   0.49340   0.54168   0.00000  Uiso   1.00
C742   C     0.73784   0.54020   0.98743   0.00000  Uiso   1.00
C743   C     0.92883   0.45980   0.51257   0.00000  Uiso   1.00
C744   C     0.82423   0.49295   0.97519   0.00000  Uiso   1.00
C745   C     0.84244   0.50705   0.52481   0.00000  Uiso   1.00
C746   C     0.80861   0.53740   0.60769   0.00000  Uiso   1.00
C747   C     0.85805   0.46260   0.89231   0.00000  Uiso   1.00
C748   C     0.80409   0.53303   0.55532   0.00000  Uiso   1.00
C749   C     0.86258   0.46697   0.94468   0.00000  Uiso   1.00
C750   C     0.75525   0.55237   0.53547   0.00000  Uiso   1.00
C751   C     0.91142   0.44763   0.96453   0.00000  Uiso   1.00
C752   C     0.68957   0.65283   0.74808   0.00000  Uiso   1.00
C753   C     0.97710   0.34717   0.75192   0.00000  Uiso   1.00
C754   C     0.68750   0.50366   0.84091   0.00000  Uiso   1.00
H755   H     0.72837   0.57451   0.55859   0.00000  Uiso   1.00
H756   H     0.93398   0.66329   0.75560   0.00000  Uiso   1.00
H757   H     0.82906   0.45757   0.71433   0.00000  Uiso   1.00
H758   H     0.83761   0.54243   0.78567   0.00000  Uiso   1.00
H759   H     0.93830   0.42549   0.94141   0.00000  Uiso   1.00
H760   H     0.90941   0.54639   0.60626   0.00000  Uiso   1.00
H761   H     0.75726   0.45362   0.89374   0.00000  Uiso   1.00
H762   H     0.70118   0.43596   0.59468   0.00000  Uiso   1.00
H763   H     0.96549   0.56404   0.90532   0.00000  Uiso   1.00
H764   H     0.99669   0.58519   0.99081   0.00000  Uiso   1.00
H765   H     0.66998   0.41481   0.50919   0.00000  Uiso   1.00
H766   H     0.73269   0.33671   0.74440   0.00000  Uiso   1.00
N767   N     0.81362   0.48550   0.73739   0.00000  Uiso   1.00
N768   N     0.85305   0.51450   0.76260   0.00000  Uiso   1.00
N769   N     0.81173   0.54165   0.64966   0.00000  Uiso   1.00
N770   N     0.85493   0.45835   0.85034   0.00000  Uiso   1.00
O771   O     0.96386   0.57964   0.75309   0.00000  Uiso   1.00
O772   O     0.70281   0.42036   0.74690   0.00000  Uiso   1.00
O773   O     0.72488   0.57035   0.74502   0.00000  Uiso   1.00
O774   O     0.94178   0.42965   0.75498   0.00000  Uiso   1.00
O775   O     0.96995   0.50730   0.82247   0.00000  Uiso   1.00
O776   O     0.69672   0.49270   0.67753   0.00000  Uiso   1.00
O777   O     0.73098   0.49801   0.81439   0.00000  Uiso   1.00
O778   O     0.93569   0.50199   0.68561   0.00000  Uiso   1.00
Zn779  Zn    0.93700   0.50621   0.75539   0.00000  Uiso   1.00
Zn780  Zn    0.72967   0.49379   0.74461   0.00000  Uiso   1.00
C781   C     0.01508   0.93157   0.74880   0.00000  Uiso   1.00
C782   C     0.31250   0.82968   0.65909   0.00000  Uiso   1.00
C783   C     0.03108   0.84405   0.89304   0.00000  Uiso   1.00
C784   C     0.30226   0.82262   0.60696   0.00000  Uiso   1.00
C785   C     0.02058   0.89248   0.96879   0.00000  Uiso   1.00
C786   C     0.31275   0.77419   0.53121   0.00000  Uiso   1.00
C787   C     0.00184   0.87943   0.92081   0.00000  Uiso   1.00
C788   C     0.33149   0.78724   0.57919   0.00000  Uiso   1.00
C789   C     0.07660   0.82045   0.91367   0.00000  Uiso   1.00
C790   C     0.25673   0.84621   0.58633   0.00000  Uiso   1.00
C791   C     0.10257   0.83993   0.95831   0.00000  Uiso   1.00
C792   C     0.31825   0.73510   0.75120   0.00000  Uiso   1.00
C793   C     0.23076   0.82673   0.54168   0.00000  Uiso   1.00
C794   C     0.07117   0.87353   0.98743   0.00000  Uiso   1.00
C795   C     0.26216   0.79313   0.51257   0.00000  Uiso   1.00
C796   C     0.15756   0.82628   0.97519   0.00000  Uiso   1.00
C797   C     0.17577   0.84039   0.52481   0.00000  Uiso   1.00
C798   C     0.14195   0.87073   0.60769   0.00000  Uiso   1.00
C799   C     0.19139   0.79594   0.89231   0.00000  Uiso   1.00
C800   C     0.13742   0.86636   0.55532   0.00000  Uiso   1.00
C801   C     0.19591   0.80030   0.94468   0.00000  Uiso   1.00
C802   C     0.08858   0.88570   0.53547   0.00000  Uiso   1.00
C803   C     0.24475   0.78097   0.96453   0.00000  Uiso   1.00
C804   C     0.02290   0.98616   0.74808   0.00000  Uiso   1.00
C805   C     0.31043   0.68051   0.75192   0.00000  Uiso   1.00
C806   C     0.02084   0.83699   0.84091   0.00000  Uiso   1.00
H807   H     0.06170   0.90785   0.55859   0.00000  Uiso   1.00
H808   H     0.26731   0.99662   0.75560   0.00000  Uiso   1.00
H809   H     0.16239   0.79090   0.71433   0.00000  Uiso   1.00
H810   H     0.17094   0.87576   0.78567   0.00000  Uiso   1.00
H811   H     0.27163   0.75882   0.94141   0.00000  Uiso   1.00
H812   H     0.24274   0.87972   0.60626   0.00000  Uiso   1.00
H813   H     0.09059   0.78695   0.89374   0.00000  Uiso   1.00
H814   H     0.03451   0.76929   0.59468   0.00000  Uiso   1.00
H815   H     0.29882   0.89738   0.90532   0.00000  Uiso   1.00
H816   H     0.33002   0.91852   0.99081   0.00000  Uiso   1.00
H817   H     0.00331   0.74814   0.50919   0.00000  Uiso   1.00
H818   H     0.06602   0.67004   0.74440   0.00000  Uiso   1.00
N819   N     0.14695   0.81883   0.73739   0.00000  Uiso   1.00
N820   N     0.18638   0.84784   0.76260   0.00000  Uiso   1.00
N821   N     0.14507   0.87499   0.64966   0.00000  Uiso   1.00
N822   N     0.18827   0.79168   0.85034   0.00000  Uiso   1.00
O823   O     0.29719   0.91298   0.75309   0.00000  Uiso   1.00
O824   O     0.03614   0.75369   0.74690   0.00000  Uiso   1.00
O825   O     0.05822   0.90368   0.74502   0.00000  Uiso   1.00
O826   O     0.27512   0.76298   0.75498   0.00000  Uiso   1.00
O827   O     0.30328   0.84063   0.82247   0.00000  Uiso   1.00
O828   O     0.03005   0.82603   0.67753   0.00000  Uiso   1.00
O829   O     0.06431   0.83134   0.81439   0.00000  Uiso   1.00
O830   O     0.26902   0.83533   0.68561   0.00000  Uiso   1.00
Zn831  Zn    0.27033   0.83954   0.75539   0.00000  Uiso   1.00
Zn832  Zn    0.06300   0.82713   0.74461   0.00000  Uiso   1.00
C833   C     0.34841   0.93157   0.74880   0.00000  Uiso   1.00
C834   C     0.64583   0.82968   0.65909   0.00000  Uiso   1.00
C835   C     0.36441   0.84405   0.89304   0.00000  Uiso   1.00
C836   C     0.63559   0.82262   0.60696   0.00000  Uiso   1.00
C837   C     0.35392   0.89248   0.96879   0.00000  Uiso   1.00
C838   C     0.64608   0.77419   0.53121   0.00000  Uiso   1.00
C839   C     0.33518   0.87943   0.92081   0.00000  Uiso   1.00
C840   C     0.66482   0.78724   0.57919   0.00000  Uiso   1.00
C841   C     0.40994   0.82045   0.91367   0.00000  Uiso   1.00
C842   C     0.59006   0.84621   0.58633   0.00000  Uiso   1.00
C843   C     0.43590   0.83993   0.95831   0.00000  Uiso   1.00
C844   C     0.65159   0.73510   0.75120   0.00000  Uiso   1.00
C845   C     0.56410   0.82673   0.54168   0.00000  Uiso   1.00
C846   C     0.40451   0.87353   0.98743   0.00000  Uiso   1.00
C847   C     0.59549   0.79313   0.51257   0.00000  Uiso   1.00
C848   C     0.49090   0.82628   0.97519   0.00000  Uiso   1.00
C849   C     0.50910   0.84039   0.52481   0.00000  Uiso   1.00
C850   C     0.47528   0.87073   0.60769   0.00000  Uiso   1.00
C851   C     0.52472   0.79594   0.89231   0.00000  Uiso   1.00
C852   C     0.47075   0.86636   0.55532   0.00000  Uiso   1.00
C853   C     0.52925   0.80030   0.94468   0.00000  Uiso   1.00
C854   C     0.42192   0.88570   0.53547   0.00000  Uiso   1.00
C855   C     0.57808   0.78097   0.96453   0.00000  Uiso   1.00
C856   C     0.35623   0.98616   0.74808   0.00000  Uiso   1.00
C857   C     0.64377   0.68051   0.75192   0.00000  Uiso   1.00
C858   C     0.35417   0.83699   0.84091   0.00000  Uiso   1.00
H859   H     0.39503   0.90785   0.55859   0.00000  Uiso   1.00
H860   H     0.60064   0.99662   0.75560   0.00000  Uiso   1.00
H861   H     0.49572   0.79090   0.71433   0.00000  Uiso   1.00
H862   H     0.50428   0.87576   0.78567   0.00000  Uiso   1.00
H863   H     0.60497   0.75882   0.94141   0.00000  Uiso   1.00
H864   H     0.57608   0.87972   0.60626   0.00000  Uiso   1.00
H865   H     0.42392   0.78695   0.89374   0.00000  Uiso   1.00
H866   H     0.36784   0.76929   0.59468   0.00000  Uiso   1.00
H867   H     0.63215   0.89738   0.90532   0.00000  Uiso   1.00
H868   H     0.66335   0.91852   0.99081   0.00000  Uiso   1.00
H869   H     0.33664   0.74814   0.50919   0.00000  Uiso   1.00
H870   H     0.39936   0.67004   0.74440   0.00000  Uiso   1.00
N871   N     0.48029   0.81883   0.73739   0.00000  Uiso   1.00
N872   N     0.51971   0.84784   0.76260   0.00000  Uiso   1.00
N873   N     0.47840   0.87499   0.64966   0.00000  Uiso   1.00
N874   N     0.52160   0.79168   0.85034   0.00000  Uiso   1.00
O875   O     0.63052   0.91298   0.75309   0.00000  Uiso   1.00
O876   O     0.36948   0.75369   0.74690   0.00000  Uiso   1.00
O877   O     0.39155   0.90368   0.74502   0.00000  Uiso   1.00
O878   O     0.60845   0.76298   0.75498   0.00000  Uiso   1.00
O879   O     0.63662   0.84063   0.82247   0.00000  Uiso   1.00
O880   O     0.36338   0.82603   0.67753   0.00000  Uiso   1.00
O881   O     0.39764   0.83134   0.81439   0.00000  Uiso   1.00
O882   O     0.60236   0.83533   0.68561   0.00000  Uiso   1.00
Zn883  Zn    0.60366   0.83954   0.75539   0.00000  Uiso   1.00
Zn884  Zn    0.39634   0.82713   0.74461   0.00000  Uiso   1.00
C885   C     0.68175   0.93157   0.74880   0.00000  Uiso   1.00
C886   C     0.97916   0.82968   0.65909   0.00000  Uiso   1.00
C887   C     0.69774   0.84405   0.89304   0.00000  Uiso   1.00
C888   C     0.96892   0.82262   0.60696   0.00000  Uiso   1.00
C889   C     0.68725   0.89248   0.96879   0.00000  Uiso   1.00
C890   C     0.97942   0.77419   0.53121   0.00000  Uiso   1.00
C891   C     0.66851   0.87943   0.92081   0.00000  Uiso   1.00
C892   C     0.99816   0.78724   0.57919   0.00000  Uiso   1.00
C893   C     0.74327   0.82045   0.91367   0.00000  Uiso   1.00
C894   C     0.92340   0.84621   0.58633   0.00000  Uiso   1.00
C895   C     0.76924   0.83993   0.95831   0.00000  Uiso   1.00
C896   C     0.98492   0.73510   0.75120   0.00000  Uiso   1.00
C897   C     0.89743   0.82673   0.54168   0.00000  Uiso   1.00
C898   C     0.73784   0.87353   0.98743   0.00000  Uiso   1.00
C899   C     0.92883   0.79313   0.51257   0.00000  Uiso   1.00
C900   C     0.82423   0.82628   0.97519   0.00000  Uiso   1.00
C901   C     0.84244   0.84039   0.52481   0.00000  Uiso   1.00
C902   C     0.80861   0.87073   0.60769   0.00000  Uiso   1.00
C903   C     0.85805   0.79594   0.89231   0.00000  Uiso   1.00
C904   C     0.80409   0.86636   0.55532   0.00000  Uiso   1.00
C905   C     0.86258   0.80030   0.94468   0.00000  Uiso   1.00
C906   C     0.75525   0.88570   0.53547   0.00000  Uiso   1.00
C907   C     0.91142   0.78097   0.96453   0.00000  Uiso   1.00
C908   C     0.68957   0.98616   0.74808   0.00000  Uiso   1.00
C909   C     0.97710   0.68051   0.75192   0.00000  Uiso   1.00
C910   C     0.68750   0.83699   0.84091   0.00000  Uiso   1.00
H911   H     0.72837   0.90785   0.55859   0.00000  Uiso   1.00
H912   H     0.93398   0.99662   0.75560   0.00000  Uiso   1.00
H913   H     0.82906   0.79090   0.71433   0.00000  Uiso   1.00
H914   H     0.83761   0.87576   0.78567   0.00000  Uiso   1.00
H915   H     0.93830   0.75882   0.94141   0.00000  Uiso   1.00
H916   H     0.90941   0.87972   0.60626   0.00000  Uiso   1.00
H917   H     0.75726   0.78695   0.89374   0.00000  Uiso   1.00
H918   H     0.70118   0.76929   0.59468   0.00000  Uiso   1.00
H919   H     0.96549   0.89738   0.90532   0.00000  Uiso   1.00
H920   H     0.99669   0.91852   0.99081   0.00000  Uiso   1.00
H921   H     0.66998   0.74814   0.50919   0.00000  Uiso   1.00
H922   H     0.73269   0.67004   0.74440   0.00000  Uiso   1.00
N923   N     0.81362   0.81883   0.73739   0.00000  Uiso   1.00
N924   N     0.85305   0.84784   0.76260   0.00000  Uiso   1.00
N925   N     0.81173   0.87499   0.64966   0.00000  Uiso   1.00
N926   N     0.85493   0.79168   0.85034   0.00000  Uiso   1.00
O927   O     0.96386   0.91298   0.75309   0.00000  Uiso   1.00
O928   O     0.70281   0.75369   0.74690   0.00000  Uiso   1.00
O929   O     0.72488   0.90368   0.74502   0.00000  Uiso   1.00
O930   O     0.94178   0.76298   0.75498   0.00000  Uiso   1.00
O931   O     0.96995   0.84063   0.82247   0.00000  Uiso   1.00
O932   O     0.69672   0.82603   0.67753   0.00000  Uiso   1.00
O933   O     0.73098   0.83134   0.81439   0.00000  Uiso   1.00
O934   O     0.93569   0.83533   0.68561   0.00000  Uiso   1.00
Zn935  Zn    0.93700   0.83954   0.75539   0.00000  Uiso   1.00
Zn936  Zn    0.72967   0.82713   0.74461   0.00000  Uiso   1.00
loop_
_geom_bond_atom_site_label_1
_geom_bond_atom_site_label_2
_geom_bond_distance
_geom_bond_site_symmetry_2
_ccdc_geom_bond_type
C1     O45     1.290   .     A
C1     C24     1.403   .     S
C1     O147    1.276   1_455 S
C2     C4      1.447   .     S
C2     O50     1.299   .     A
C2     O100    1.289   .     S
C3     C9      1.385   .     A
C3     C7      1.396   .     A
C3     C26     1.447   .     S
C4     C8      1.396   .     A
C4     C10     1.385   .     A
C5     C14     1.405   .     A
C5     C7      1.389   .     A
C5     H140    1.084   1_455 S
C6     C8      1.389   .     A
C6     C15     1.405   .     A
C6     H89     1.084   .     S
C7     H139    1.083   1_455 S
C8     H86     1.083   .     S
C9     H33     1.075   .     S
C9     C11     1.396   .     A
C10    H32     1.075   .     S
C10    C13     1.396   .     A
C11    C16     1.428   .     A
C11    C14     1.417   .     A
C12    C25     1.403   .     S
C12    O46     1.290   .     A
C12    O96     1.276   .     S
C13    C17     1.428   .     A
C13    C15     1.417   .     A
C14    C490    1.379   .     S
C15    C491    1.379   1_554 S
C16    C21     1.438   .     A
C16    C485    1.432   .     S
C17    C20     1.438   .     A
C17    C484    1.432   1_554 S
C18    N41     1.156   .     T
C18    C20     1.443   .     S
C19    N42     1.156   .     T
C19    C21     1.443   .     S
C20    C22     1.386   .     A
C21    C23     1.386   .     A
C22    H27     1.087   .     S
C22    C482    1.379   1_554 S
C23    H31     1.087   .     S
C23    C483    1.379   .     S
C24    C285    1.340   1_455 S
C24    H194    1.088   .     S
C25    C388    1.340   1_545 S
C25    H340    1.088   1_545 S
C26    O49     1.299   .     A
C26    O151    1.289   1_455 S
H28    C181    1.088   .     S
H29    N39     1.029   .     S
H30    N40     1.029   .     S
H34    C112    1.083   1_455 S
H35    C59     1.083   .     S
H36    C57     1.084   .     S
H37    C110    1.084   1_455 S
H38    C336    1.088   1_545 S
N39    Zn52    2.020   .     S
N39    N40     1.291   .     D
N40    Zn51    2.020   .     S
O43    Zn51    1.951   .     S
O43    C53     1.276   .     S
O44    Zn52    1.951   .     S
O44    C116    1.276   1_455 S
O45    Zn52    1.979   .     S
O46    Zn51    1.979   .     S
O47    Zn51    1.970   .     S
O47    C78     1.289   .     S
O48    Zn52    1.970   .     S
O48    C106    1.289   1_455 S
O49    Zn52    1.924   .     S
O50    Zn51    1.924   .     S
C53    O97     1.290   .     A
C53    C76     1.403   .     S
C54    C56     1.447   .     S
C54    O102    1.299   .     A
C54    O152    1.289   .     S
C55    C61     1.385   .     A
C55    C59     1.396   .     A
C55    C78     1.447   .     S
C56    C60     1.396   .     A
C56    C62     1.385   .     A
C57    C66     1.405   .     A
C57    C59     1.389   .     A
C58    C60     1.389   .     A
C58    C67     1.405   .     A
C58    H141    1.084   .     S
C60    H138    1.083   .     S
C61    H85     1.075   .     S
C61    C63     1.396   .     A
C62    H84     1.075   .     S
C62    C65     1.396   .     A
C63    C68     1.428   .     A
C63    C66     1.417   .     A
C64    C77     1.403   .     S
C64    O98     1.290   .     A
C64    O148    1.276   .     S
C65    C69     1.428   .     A
C65    C67     1.417   .     A
C66    C542    1.379   .     S
C67    C543    1.379   1_554 S
C68    C73     1.438   .     A
C68    C537    1.432   .     S
C69    C72     1.438   .     A
C69    C536    1.432   1_554 S
C70    N93     1.156   .     T
C70    C72     1.443   .     S
C71    N94     1.156   .     T
C71    C73     1.443   .     S
C72    C74     1.386   .     A
C73    C75     1.386   .     A
C74    H79     1.087   .     S
C74    C534    1.379   1_554 S
C75    H83     1.087   .     S
C75    C535    1.379   .     S
C76    C181    1.340   .     S
C76    H246    1.088   .     S
C77    C440    1.340   1_545 S
C77    H392    1.088   1_545 S
C78    O101    1.299   .     A
H80    C233    1.088   .     S
H81    N91     1.029   .     S
H82    N92     1.029   .     S
H87    C111    1.083   .     S
H88    C109    1.084   .     S
H90    C388    1.088   1_545 S
N91    Zn104   2.020   .     S
N91    N92     1.291   .     D
N92    Zn103   2.020   .     S
O95    Zn103   1.951   .     S
O95    C105    1.276   .     S
O96    Zn104   1.951   .     S
O97    Zn104   1.979   .     S
O98    Zn103   1.979   .     S
O99    Zn103   1.970   .     S
O99    C130    1.289   .     S
O100   Zn104   1.970   .     S
O101   Zn104   1.924   .     S
O102   Zn103   1.924   .     S
C105   O149    1.290   .     A
C105   C128    1.403   .     S
C106   C108    1.447   .     S
C106   O154    1.299   .     A
C106   O48     1.289   1_655 S
C107   C113    1.385   .     A
C107   C111    1.396   .     A
C107   C130    1.447   .     S
C108   C112    1.396   .     A
C108   C114    1.385   .     A
C109   C118    1.405   .     A
C109   C111    1.389   .     A
C110   C112    1.389   .     A
C110   C119    1.405   .     A
C110   H37     1.084   1_655 S
C112   H34     1.083   1_655 S
C113   H137    1.075   .     S
C113   C115    1.396   .     A
C114   H136    1.075   .     S
C114   C117    1.396   .     A
C115   C120    1.428   .     A
C115   C118    1.417   .     A
C116   C129    1.403   .     S
C116   O150    1.290   .     A
C116   O44     1.276   1_655 S
C117   C121    1.428   .     A
C117   C119    1.417   .     A
C118   C594    1.379   .     S
C119   C595    1.379   1_554 S
C120   C125    1.438   .     A
C120   C589    1.432   .     S
C121   C124    1.438   .     A
C121   C588    1.432   1_554 S
C122   N145    1.156   .     T
C122   C124    1.443   .     S
C123   N146    1.156   .     T
C123   C125    1.443   .     S
C124   C126    1.386   .     A
C125   C127    1.386   .     A
C126   H131    1.087   .     S
C126   C586    1.379   1_554 S
C127   H135    1.087   .     S
C127   C587    1.379   .     S
C128   C233    1.340   .     S
C128   H298    1.088   .     S
C129   C336    1.340   1_645 S
C129   H444    1.088   1_545 S
C130   O153    1.299   .     A
H132   C285    1.088   .     S
H133   N143    1.029   .     S
H134   N144    1.029   .     S
H139   C7      1.083   1_655 S
H140   C5      1.084   1_655 S
H142   C440    1.088   1_545 S
N143   Zn156   2.020   .     S
N143   N144    1.291   .     D
N144   Zn155   2.020   .     S
O147   Zn155   1.951   .     S
O147   C1      1.276   1_655 S
O148   Zn156   1.951   .     S
O149   Zn156   1.979   .     S
O150   Zn155   1.979   .     S
O151   Zn155   1.970   .     S
O151   C26     1.289   1_655 S
O152   Zn156   1.970   .     S
O153   Zn156   1.924   .     S
O154   Zn155   1.924   .     S
C157   O201    1.290   .     A
C157   C180    1.403   .     S
C157   O303    1.276   1_455 S
C158   C160    1.447   .     S
C158   O206    1.299   .     A
C158   O256    1.289   .     S
C159   C165    1.385   .     A
C159   C163    1.396   .     A
C159   C182    1.447   .     S
C160   C164    1.396   .     A
C160   C166    1.385   .     A
C161   C170    1.405   .     A
C161   C163    1.389   .     A
C161   H296    1.084   1_455 S
C162   C164    1.389   .     A
C162   C171    1.405   .     A
C162   H245    1.084   .     S
C163   H295    1.083   1_455 S
C164   H242    1.083   .     S
C165   H189    1.075   .     S
C165   C167    1.396   .     A
C166   H188    1.075   .     S
C166   C169    1.396   .     A
C167   C172    1.428   .     A
C167   C170    1.417   .     A
C168   C181    1.403   .     S
C168   O202    1.290   .     A
C168   O252    1.276   .     S
C169   C173    1.428   .     A
C169   C171    1.417   .     A
C170   C646    1.379   .     S
C171   C647    1.379   1_554 S
C172   C177    1.438   .     A
C172   C641    1.432   .     S
C173   C176    1.438   .     A
C173   C640    1.432   1_554 S
C174   N197    1.156   .     T
C174   C176    1.443   .     S
C175   N198    1.156   .     T
C175   C177    1.443   .     S
C176   C178    1.386   .     A
C177   C179    1.386   .     A
C178   H183    1.087   .     S
C178   C638    1.379   1_554 S
C179   H187    1.087   .     S
C179   C639    1.379   .     S
C180   C441    1.340   1_455 S
C180   H350    1.088   .     S
C182   O205    1.299   .     A
C182   O307    1.289   1_455 S
H184   C337    1.088   .     S
H185   N195    1.029   .     S
H186   N196    1.029   .     S
H190   C268    1.083   1_455 S
H191   C215    1.083   .     S
H192   C213    1.084   .     S
H193   C266    1.084   1_455 S
N195   Zn208   2.020   .     S
N195   N196    1.291   .     D
N196   Zn207   2.020   .     S
O199   Zn207   1.951   .     S
O199   C209    1.276   .     S
O200   Zn208   1.951   .     S
O200   C272    1.276   1_455 S
O201   Zn208   1.979   .     S
O202   Zn207   1.979   .     S
O203   Zn207   1.970   .     S
O203   C234    1.289   .     S
O204   Zn208   1.970   .     S
O204   C262    1.289   1_455 S
O205   Zn208   1.924   .     S
O206   Zn207   1.924   .     S
C209   O253    1.290   .     A
C209   C232    1.403   .     S
C210   C212    1.447   .     S
C210   O258    1.299   .     A
C210   O308    1.289   .     S
C211   C217    1.385   .     A
C211   C215    1.396   .     A
C211   C234    1.447   .     S
C212   C216    1.396   .     A
C212   C218    1.385   .     A
C213   C222    1.405   .     A
C213   C215    1.389   .     A
C214   C216    1.389   .     A
C214   C223    1.405   .     A
C214   H297    1.084   .     S
C216   H294    1.083   .     S
C217   H241    1.075   .     S
C217   C219    1.396   .     A
C218   H240    1.075   .     S
C218   C221    1.396   .     A
C219   C224    1.428   .     A
C219   C222    1.417   .     A
C220   C233    1.403   .     S
C220   O254    1.290   .     A
C220   O304    1.276   .     S
C221   C225    1.428   .     A
C221   C223    1.417   .     A
C222   C698    1.379   .     S
C223   C699    1.379   1_554 S
C224   C229    1.438   .     A
C224   C693    1.432   .     S
C225   C228    1.438   .     A
C225   C692    1.432   1_554 S
C226   N249    1.156   .     T
C226   C228    1.443   .     S
C227   N250    1.156   .     T
C227   C229    1.443   .     S
C228   C230    1.386   .     A
C229   C231    1.386   .     A
C230   H235    1.087   .     S
C230   C690    1.379   1_554 S
C231   H239    1.087   .     S
C231   C691    1.379   .     S
C232   C337    1.340   .     S
C232   H402    1.088   .     S
C234   O257    1.299   .     A
H236   C389    1.088   .     S
H237   N247    1.029   .     S
H238   N248    1.029   .     S
H243   C267    1.083   .     S
H244   C265    1.084   .     S
N247   Zn260   2.020   .     S
N247   N248    1.291   .     D
N248   Zn259   2.020   .     S
O251   Zn259   1.951   .     S
O251   C261    1.276   .     S
O252   Zn260   1.951   .     S
O253   Zn260   1.979   .     S
O254   Zn259   1.979   .     S
O255   Zn259   1.970   .     S
O255   C286    1.289   .     S
O256   Zn260   1.970   .     S
O257   Zn260   1.924   .     S
O258   Zn259   1.924   .     S
C261   O305    1.290   .     A
C261   C284    1.403   .     S
C262   C264    1.447   .     S
C262   O310    1.299   .     A
C262   O204    1.289   1_655 S
C263   C269    1.385   .     A
C263   C267    1.396   .     A
C263   C286    1.447   .     S
C264   C268    1.396   .     A
C264   C270    1.385   .     A
C265   C274    1.405   .     A
C265   C267    1.389   .     A
C266   C268    1.389   .     A
C266   C275    1.405   .     A
C266   H193    1.084   1_655 S
C268   H190    1.083   1_655 S
C269   H293    1.075   .     S
C269   C271    1.396   .     A
C270   H292    1.075   .     S
C270   C273    1.396   .     A
C271   C276    1.428   .     A
C271   C274    1.417   .     A
C272   C285    1.403   .     S
C272   O306    1.290   .     A
C272   O200    1.276   1_655 S
C273   C277    1.428   .     A
C273   C275    1.417   .     A
C274   C750    1.379   .     S
C275   C751    1.379   1_554 S
C276   C281    1.438   .     A
C276   C745    1.432   .     S
C277   C280    1.438   .     A
C277   C744    1.432   1_554 S
C278   N301    1.156   .     T
C278   C280    1.443   .     S
C279   N302    1.156   .     T
C279   C281    1.443   .     S
C280   C282    1.386   .     A
C281   C283    1.386   .     A
C282   H287    1.087   .     S
C282   C742    1.379   1_554 S
C283   H291    1.087   .     S
C283   C743    1.379   .     S
C284   C389    1.340   .     S
C284   H454    1.088   .     S
C285   C24     1.340   1_655 S
C286   O309    1.299   .     A
H288   C441    1.088   .     S
H289   N299    1.029   .     S
H290   N300    1.029   .     S
H295   C163    1.083   1_655 S
H296   C161    1.084   1_655 S
N299   Zn312   2.020   .     S
N299   N300    1.291   .     D
N300   Zn311   2.020   .     S
O303   Zn311   1.951   .     S
O303   C157    1.276   1_655 S
O304   Zn312   1.951   .     S
O305   Zn312   1.979   .     S
O306   Zn311   1.979   .     S
O307   Zn311   1.970   .     S
O307   C182    1.289   1_655 S
O308   Zn312   1.970   .     S
O309   Zn312   1.924   .     S
O310   Zn311   1.924   .     S
C313   O357    1.290   .     A
C313   C336    1.403   .     S
C313   O459    1.276   1_455 S
C314   C316    1.447   .     S
C314   O362    1.299   .     A
C314   O412    1.289   .     S
C315   C321    1.385   .     A
C315   C319    1.396   .     A
C315   C338    1.447   .     S
C316   C320    1.396   .     A
C316   C322    1.385   .     A
C317   C326    1.405   .     A
C317   C319    1.389   .     A
C317   H452    1.084   1_455 S
C318   C320    1.389   .     A
C318   C327    1.405   .     A
C318   H401    1.084   .     S
C319   H451    1.083   1_455 S
C320   H398    1.083   .     S
C321   H345    1.075   .     S
C321   C323    1.396   .     A
C322   H344    1.075   .     S
C322   C325    1.396   .     A
C323   C328    1.428   .     A
C323   C326    1.417   .     A
C324   C337    1.403   .     S
C324   O358    1.290   .     A
C324   O408    1.276   .     S
C325   C329    1.428   .     A
C325   C327    1.417   .     A
C326   C802    1.379   .     S
C327   C803    1.379   1_554 S
C328   C333    1.438   .     A
C328   C797    1.432   .     S
C329   C332    1.438   .     A
C329   C796    1.432   1_554 S
C330   N353    1.156   .     T
C330   C332    1.443   .     S
C331   N354    1.156   .     T
C331   C333    1.443   .     S
C332   C334    1.386   .     A
C333   C335    1.386   .     A
C334   H339    1.087   .     S
C334   C794    1.379   1_554 S
C335   H343    1.087   .     S
C335   C795    1.379   .     S
C336   C129    1.340   1_465 S
C336   H38     1.088   1_565 S
C338   O361    1.299   .     A
C338   O463    1.289   1_455 S
H340   C25     1.088   1_565 S
H341   N351    1.029   .     S
H342   N352    1.029   .     S
H346   C424    1.083   1_455 S
H347   C371    1.083   .     S
H348   C369    1.084   .     S
H349   C422    1.084   1_455 S
N351   Zn364   2.020   .     S
N351   N352    1.291   .     D
N352   Zn363   2.020   .     S
O355   Zn363   1.951   .     S
O355   C365    1.276   .     S
O356   Zn364   1.951   .     S
O356   C428    1.276   1_455 S
O357   Zn364   1.979   .     S
O358   Zn363   1.979   .     S
O359   Zn363   1.970   .     S
O359   C390    1.289   .     S
O360   Zn364   1.970   .     S
O360   C418    1.289   1_455 S
O361   Zn364   1.924   .     S
O362   Zn363   1.924   .     S
C365   O409    1.290   .     A
C365   C388    1.403   .     S
C366   C368    1.447   .     S
C366   O414    1.299   .     A
C366   O464    1.289   .     S
C367   C373    1.385   .     A
C367   C371    1.396   .     A
C367   C390    1.447   .     S
C368   C372    1.396   .     A
C368   C374    1.385   .     A
C369   C378    1.405   .     A
C369   C371    1.389   .     A
C370   C372    1.389   .     A
C370   C379    1.405   .     A
C370   H453    1.084   .     S
C372   H450    1.083   .     S
C373   H397    1.075   .     S
C373   C375    1.396   .     A
C374   H396    1.075   .     S
C374   C377    1.396   .     A
C375   C380    1.428   .     A
C375   C378    1.417   .     A
C376   C389    1.403   .     S
C376   O410    1.290   .     A
C376   O460    1.276   .     S
C377   C381    1.428   .     A
C377   C379    1.417   .     A
C378   C854    1.379   .     S
C379   C855    1.379   1_554 S
C380   C385    1.438   .     A
C380   C849    1.432   .     S
C381   C384    1.438   .     A
C381   C848    1.432   1_554 S
C382   N405    1.156   .     T
C382   C384    1.443   .     S
C383   N406    1.156   .     T
C383   C385    1.443   .     S
C384   C386    1.386   .     A
C385   C387    1.386   .     A
C386   H391    1.087   .     S
C386   C846    1.379   1_554 S
C387   H395    1.087   .     S
C387   C847    1.379   .     S
C388   C25     1.340   1_565 S
C388   H90     1.088   1_565 S
C390   O413    1.299   .     A
H392   C77     1.088   1_565 S
H393   N403    1.029   .     S
H394   N404    1.029   .     S
H399   C423    1.083   .     S
H400   C421    1.084   .     S
N403   Zn416   2.020   .     S
N403   N404    1.291   .     D
N404   Zn415   2.020   .     S
O407   Zn415   1.951   .     S
O407   C417    1.276   .     S
O408   Zn416   1.951   .     S
O409   Zn416   1.979   .     S
O410   Zn415   1.979   .     S
O411   Zn415   1.970   .     S
O411   C442    1.289   .     S
O412   Zn416   1.970   .     S
O413   Zn416   1.924   .     S
O414   Zn415   1.924   .     S
C417   O461    1.290   .     A
C417   C440    1.403   .     S
C418   C420    1.447   .     S
C418   O466    1.299   .     A
C418   O360    1.289   1_655 S
C419   C425    1.385   .     A
C419   C423    1.396   .     A
C419   C442    1.447   .     S
C420   C424    1.396   .     A
C420   C426    1.385   .     A
C421   C430    1.405   .     A
C421   C423    1.389   .     A
C422   C424    1.389   .     A
C422   C431    1.405   .     A
C422   H349    1.084   1_655 S
C424   H346    1.083   1_655 S
C425   H449    1.075   .     S
C425   C427    1.396   .     A
C426   H448    1.075   .     S
C426   C429    1.396   .     A
C427   C432    1.428   .     A
C427   C430    1.417   .     A
C428   C441    1.403   .     S
C428   O462    1.290   .     A
C428   O356    1.276   1_655 S
C429   C433    1.428   .     A
C429   C431    1.417   .     A
C430   C906    1.379   .     S
C431   C907    1.379   1_554 S
C432   C437    1.438   .     A
C432   C901    1.432   .     S
C433   C436    1.438   .     A
C433   C900    1.432   1_554 S
C434   N457    1.156   .     T
C434   C436    1.443   .     S
C435   N458    1.156   .     T
C435   C437    1.443   .     S
C436   C438    1.386   .     A
C437   C439    1.386   .     A
C438   H443    1.087   .     S
C438   C898    1.379   1_554 S
C439   H447    1.087   .     S
C439   C899    1.379   .     S
C440   C77     1.340   1_565 S
C440   H142    1.088   1_565 S
C441   C180    1.340   1_655 S
C442   O465    1.299   .     A
H444   C129    1.088   1_565 S
H445   N455    1.029   .     S
H446   N456    1.029   .     S
H451   C319    1.083   1_655 S
H452   C317    1.084   1_655 S
N455   Zn468   2.020   .     S
N455   N456    1.291   .     D
N456   Zn467   2.020   .     S
O459   Zn467   1.951   .     S
O459   C313    1.276   1_655 S
O460   Zn468   1.951   .     S
O461   Zn468   1.979   .     S
O462   Zn467   1.979   .     S
O463   Zn467   1.970   .     S
O463   C338    1.289   1_655 S
O464   Zn468   1.970   .     S
O465   Zn468   1.924   .     S
O466   Zn467   1.924   .     S
C469   O513    1.290   .     A
C469   C492    1.403   .     S
C469   O615    1.276   1_455 S
C470   C472    1.447   .     S
C470   O518    1.299   .     A
C470   O568    1.289   .     S
C471   C477    1.385   .     A
C471   C475    1.396   .     A
C471   C494    1.447   .     S
C472   C476    1.396   .     A
C472   C478    1.385   .     A
C473   C482    1.405   .     A
C473   C475    1.389   .     A
C473   H608    1.084   1_455 S
C474   C476    1.389   .     A
C474   C483    1.405   .     A
C474   H557    1.084   .     S
C475   H607    1.083   1_455 S
C476   H554    1.083   .     S
C477   H501    1.075   .     S
C477   C479    1.396   .     A
C478   H500    1.075   .     S
C478   C481    1.396   .     A
C479   C484    1.428   .     A
C479   C482    1.417   .     A
C480   C493    1.403   .     S
C480   O514    1.290   .     A
C480   O564    1.276   .     S
C481   C485    1.428   .     A
C481   C483    1.417   .     A
C482   C22     1.379   1_556 S
C484   C489    1.438   .     A
C484   C17     1.432   1_556 S
C485   C488    1.438   .     A
C486   N509    1.156   .     T
C486   C488    1.443   .     S
C487   N510    1.156   .     T
C487   C489    1.443   .     S
C488   C490    1.386   .     A
C489   C491    1.386   .     A
C490   H495    1.087   .     S
C491   H499    1.087   .     S
C491   C15     1.379   1_556 S
C492   C753    1.340   1_455 S
C492   H662    1.088   .     S
C493   C856    1.340   1_545 S
C493   H808    1.088   1_545 S
C494   O517    1.299   .     A
C494   O619    1.289   1_455 S
H496   C649    1.088   .     S
H497   N507    1.029   .     S
H498   N508    1.029   .     S
H502   C580    1.083   1_455 S
H503   C527    1.083   .     S
H504   C525    1.084   .     S
H505   C578    1.084   1_455 S
H506   C804    1.088   1_545 S
N507   Zn520   2.020   .     S
N507   N508    1.291   .     D
N508   Zn519   2.020   .     S
O511   Zn519   1.951   .     S
O511   C521    1.276   .     S
O512   Zn520   1.951   .     S
O512   C584    1.276   1_455 S
O513   Zn520   1.979   .     S
O514   Zn519   1.979   .     S
O515   Zn519   1.970   .     S
O515   C546    1.289   .     S
O516   Zn520   1.970   .     S
O516   C574    1.289   1_455 S
O517   Zn520   1.924   .     S
O518   Zn519   1.924   .     S
C521   O565    1.290   .     A
C521   C544    1.403   .     S
C522   C524    1.447   .     S
C522   O570    1.299   .     A
C522   O620    1.289   .     S
C523   C529    1.385   .     A
C523   C527    1.396   .     A
C523   C546    1.447   .     S
C524   C528    1.396   .     A
C524   C530    1.385   .     A
C525   C534    1.405   .     A
C525   C527    1.389   .     A
C526   C528    1.389   .     A
C526   C535    1.405   .     A
C526   H609    1.084   .     S
C528   H606    1.083   .     S
C529   H553    1.075   .     S
C529   C531    1.396   .     A
C530   H552    1.075   .     S
C530   C533    1.396   .     A
C531   C536    1.428   .     A
C531   C534    1.417   .     A
C532   C545    1.403   .     S
C532   O566    1.290   .     A
C532   O616    1.276   .     S
C533   C537    1.428   .     A
C533   C535    1.417   .     A
C534   C74     1.379   1_556 S
C536   C541    1.438   .     A
C536   C69     1.432   1_556 S
C537   C540    1.438   .     A
C538   N561    1.156   .     T
C538   C540    1.443   .     S
C539   N562    1.156   .     T
C539   C541    1.443   .     S
C540   C542    1.386   .     A
C541   C543    1.386   .     A
C542   H547    1.087   .     S
C543   H551    1.087   .     S
C543   C67     1.379   1_556 S
C544   C649    1.340   .     S
C544   H714    1.088   .     S
C545   C908    1.340   1_545 S
C545   H860    1.088   1_545 S
C546   O569    1.299   .     A
H548   C701    1.088   .     S
H549   N559    1.029   .     S
H550   N560    1.029   .     S
H555   C579    1.083   .     S
H556   C577    1.084   .     S
H558   C856    1.088   1_545 S
N559   Zn572   2.020   .     S
N559   N560    1.291   .     D
N560   Zn571   2.020   .     S
O563   Zn571   1.951   .     S
O563   C573    1.276   .     S
O564   Zn572   1.951   .     S
O565   Zn572   1.979   .     S
O566   Zn571   1.979   .     S
O567   Zn571   1.970   .     S
O567   C598    1.289   .     S
O568   Zn572   1.970   .     S
O569   Zn572   1.924   .     S
O570   Zn571   1.924   .     S
C573   O617    1.290   .     A
C573   C596    1.403   .     S
C574   C576    1.447   .     S
C574   O622    1.299   .     A
C574   O516    1.289   1_655 S
C575   C581    1.385   .     A
C575   C579    1.396   .     A
C575   C598    1.447   .     S
C576   C580    1.396   .     A
C576   C582    1.385   .     A
C577   C586    1.405   .     A
C577   C579    1.389   .     A
C578   C580    1.389   .     A
C578   C587    1.405   .     A
C578   H505    1.084   1_655 S
C580   H502    1.083   1_655 S
C581   H605    1.075   .     S
C581   C583    1.396   .     A
C582   H604    1.075   .     S
C582   C585    1.396   .     A
C583   C588    1.428   .     A
C583   C586    1.417   .     A
C584   C597    1.403   .     S
C584   O618    1.290   .     A
C584   O512    1.276   1_655 S
C585   C589    1.428   .     A
C585   C587    1.417   .     A
C586   C126    1.379   1_556 S
C588   C593    1.438   .     A
C588   C121    1.432   1_556 S
C589   C592    1.438   .     A
C590   N613    1.156   .     T
C590   C592    1.443   .     S
C591   N614    1.156   .     T
C591   C593    1.443   .     S
C592   C594    1.386   .     A
C593   C595    1.386   .     A
C594   H599    1.087   .     S
C595   H603    1.087   .     S
C595   C119    1.379   1_556 S
C596   C701    1.340   .     S
C596   H766    1.088   .     S
C597   C804    1.340   1_645 S
C597   H912    1.088   1_545 S
C598   O621    1.299   .     A
H600   C753    1.088   .     S
H601   N611    1.029   .     S
H602   N612    1.029   .     S
H607   C475    1.083   1_655 S
H608   C473    1.084   1_655 S
H610   C908    1.088   1_545 S
N611   Zn624   2.020   .     S
N611   N612    1.291   .     D
N612   Zn623   2.020   .     S
O615   Zn623   1.951   .     S
O615   C469    1.276   1_655 S
O616   Zn624   1.951   .     S
O617   Zn624   1.979   .     S
O618   Zn623   1.979   .     S
O619   Zn623   1.970   .     S
O619   C494    1.289   1_655 S
O620   Zn624   1.970   .     S
O621   Zn624   1.924   .     S
O622   Zn623   1.924   .     S
C625   O669    1.290   .     A
C625   C648    1.403   .     S
C625   O771    1.276   1_455 S
C626   C628    1.447   .     S
C626   O674    1.299   .     A
C626   O724    1.289   .     S
C627   C633    1.385   .     A
C627   C631    1.396   .     A
C627   C650    1.447   .     S
C628   C632    1.396   .     A
C628   C634    1.385   .     A
C629   C638    1.405   .     A
C629   C631    1.389   .     A
C629   H764    1.084   1_455 S
C630   C632    1.389   .     A
C630   C639    1.405   .     A
C630   H713    1.084   .     S
C631   H763    1.083   1_455 S
C632   H710    1.083   .     S
C633   H657    1.075   .     S
C633   C635    1.396   .     A
C634   H656    1.075   .     S
C634   C637    1.396   .     A
C635   C640    1.428   .     A
C635   C638    1.417   .     A
C636   C649    1.403   .     S
C636   O670    1.290   .     A
C636   O720    1.276   .     S
C637   C641    1.428   .     A
C637   C639    1.417   .     A
C638   C178    1.379   1_556 S
C640   C645    1.438   .     A
C640   C173    1.432   1_556 S
C641   C644    1.438   .     A
C642   N665    1.156   .     T
C642   C644    1.443   .     S
C643   N666    1.156   .     T
C643   C645    1.443   .     S
C644   C646    1.386   .     A
C645   C647    1.386   .     A
C646   H651    1.087   .     S
C647   H655    1.087   .     S
C647   C171    1.379   1_556 S
C648   C909    1.340   1_455 S
C648   H818    1.088   .     S
C650   O673    1.299   .     A
C650   O775    1.289   1_455 S
H652   C805    1.088   .     S
H653   N663    1.029   .     S
H654   N664    1.029   .     S
H658   C736    1.083   1_455 S
H659   C683    1.083   .     S
H660   C681    1.084   .     S
H661   C734    1.084   1_455 S
N663   Zn676   2.020   .     S
N663   N664    1.291   .     D
N664   Zn675   2.020   .     S
O667   Zn675   1.951   .     S
O667   C677    1.276   .     S
O668   Zn676   1.951   .     S
O668   C740    1.276   1_455 S
O669   Zn676   1.979   .     S
O670   Zn675   1.979   .     S
O671   Zn675   1.970   .     S
O671   C702    1.289   .     S
O672   Zn676   1.970   .     S
O672   C730    1.289   1_455 S
O673   Zn676   1.924   .     S
O674   Zn675   1.924   .     S
C677   O721    1.290   .     A
C677   C700    1.403   .     S
C678   C680    1.447   .     S
C678   O726    1.299   .     A
C678   O776    1.289   .     S
C679   C685    1.385   .     A
C679   C683    1.396   .     A
C679   C702    1.447   .     S
C680   C684    1.396   .     A
C680   C686    1.385   .     A
C681   C690    1.405   .     A
C681   C683    1.389   .     A
C682   C684    1.389   .     A
C682   C691    1.405   .     A
C682   H765    1.084   .     S
C684   H762    1.083   .     S
C685   H709    1.075   .     S
C685   C687    1.396   .     A
C686   H708    1.075   .     S
C686   C689    1.396   .     A
C687   C692    1.428   .     A
C687   C690    1.417   .     A
C688   C701    1.403   .     S
C688   O722    1.290   .     A
C688   O772    1.276   .     S
C689   C693    1.428   .     A
C689   C691    1.417   .     A
C690   C230    1.379   1_556 S
C692   C697    1.438   .     A
C692   C225    1.432   1_556 S
C693   C696    1.438   .     A
C694   N717    1.156   .     T
C694   C696    1.443   .     S
C695   N718    1.156   .     T
C695   C697    1.443   .     S
C696   C698    1.386   .     A
C697   C699    1.386   .     A
C698   H703    1.087   .     S
C699   H707    1.087   .     S
C699   C223    1.379   1_556 S
C700   C805    1.340   .     S
C700   H870    1.088   .     S
C702   O725    1.299   .     A
H704   C857    1.088   .     S
H705   N715    1.029   .     S
H706   N716    1.029   .     S
H711   C735    1.083   .     S
H712   C733    1.084   .     S
N715   Zn728   2.020   .     S
N715   N716    1.291   .     D
N716   Zn727   2.020   .     S
O719   Zn727   1.951   .     S
O719   C729    1.276   .     S
O720   Zn728   1.951   .     S
O721   Zn728   1.979   .     S
O722   Zn727   1.979   .     S
O723   Zn727   1.970   .     S
O723   C754    1.289   .     S
O724   Zn728   1.970   .     S
O725   Zn728   1.924   .     S
O726   Zn727   1.924   .     S
C729   O773    1.290   .     A
C729   C752    1.403   .     S
C730   C732    1.447   .     S
C730   O778    1.299   .     A
C730   O672    1.289   1_655 S
C731   C737    1.385   .     A
C731   C735    1.396   .     A
C731   C754    1.447   .     S
C732   C736    1.396   .     A
C732   C738    1.385   .     A
C733   C742    1.405   .     A
C733   C735    1.389   .     A
C734   C736    1.389   .     A
C734   C743    1.405   .     A
C734   H661    1.084   1_655 S
C736   H658    1.083   1_655 S
C737   H761    1.075   .     S
C737   C739    1.396   .     A
C738   H760    1.075   .     S
C738   C741    1.396   .     A
C739   C744    1.428   .     A
C739   C742    1.417   .     A
C740   C753    1.403   .     S
C740   O774    1.290   .     A
C740   O668    1.276   1_655 S
C741   C745    1.428   .     A
C741   C743    1.417   .     A
C742   C282    1.379   1_556 S
C744   C749    1.438   .     A
C744   C277    1.432   1_556 S
C745   C748    1.438   .     A
C746   N769    1.156   .     T
C746   C748    1.443   .     S
C747   N770    1.156   .     T
C747   C749    1.443   .     S
C748   C750    1.386   .     A
C749   C751    1.386   .     A
C750   H755    1.087   .     S
C751   H759    1.087   .     S
C751   C275    1.379   1_556 S
C752   C857    1.340   .     S
C752   H922    1.088   .     S
C753   C492    1.340   1_655 S
C754   O777    1.299   .     A
H756   C909    1.088   .     S
H757   N767    1.029   .     S
H758   N768    1.029   .     S
H763   C631    1.083   1_655 S
H764   C629    1.084   1_655 S
N767   Zn780   2.020   .     S
N767   N768    1.291   .     D
N768   Zn779   2.020   .     S
O771   Zn779   1.951   .     S
O771   C625    1.276   1_655 S
O772   Zn780   1.951   .     S
O773   Zn780   1.979   .     S
O774   Zn779   1.979   .     S
O775   Zn779   1.970   .     S
O775   C650    1.289   1_655 S
O776   Zn780   1.970   .     S
O777   Zn780   1.924   .     S
O778   Zn779   1.924   .     S
C781   O825    1.290   .     A
C781   C804    1.403   .     S
C781   O927    1.276   1_455 S
C782   C784    1.447   .     S
C782   O830    1.299   .     A
C782   O880    1.289   .     S
C783   C789    1.385   .     A
C783   C787    1.396   .     A
C783   C806    1.447   .     S
C784   C788    1.396   .     A
C784   C790    1.385   .     A
C785   C794    1.405   .     A
C785   C787    1.389   .     A
C785   H920    1.084   1_455 S
C786   C788    1.389   .     A
C786   C795    1.405   .     A
C786   H869    1.084   .     S
C787   H919    1.083   1_455 S
C788   H866    1.083   .     S
C789   H813    1.075   .     S
C789   C791    1.396   .     A
C790   H812    1.075   .     S
C790   C793    1.396   .     A
C791   C796    1.428   .     A
C791   C794    1.417   .     A
C792   C805    1.403   .     S
C792   O826    1.290   .     A
C792   O876    1.276   .     S
C793   C797    1.428   .     A
C793   C795    1.417   .     A
C794   C334    1.379   1_556 S
C796   C801    1.438   .     A
C796   C329    1.432   1_556 S
C797   C800    1.438   .     A
C798   N821    1.156   .     T
C798   C800    1.443   .     S
C799   N822    1.156   .     T
C799   C801    1.443   .     S
C800   C802    1.386   .     A
C801   C803    1.386   .     A
C802   H807    1.087   .     S
C803   H811    1.087   .     S
C803   C327    1.379   1_556 S
C804   C597    1.340   1_465 S
C804   H506    1.088   1_565 S
C806   O829    1.299   .     A
C806   O931    1.289   1_455 S
H808   C493    1.088   1_565 S
H809   N819    1.029   .     S
H810   N820    1.029   .     S
H814   C892    1.083   1_455 S
H815   C839    1.083   .     S
H816   C837    1.084   .     S
H817   C890    1.084   1_455 S
N819   Zn832   2.020   .     S
N819   N820    1.291   .     D
N820   Zn831   2.020   .     S
O823   Zn831   1.951   .     S
O823   C833    1.276   .     S
O824   Zn832   1.951   .     S
O824   C896    1.276   1_455 S
O825   Zn832   1.979   .     S
O826   Zn831   1.979   .     S
O827   Zn831   1.970   .     S
O827   C858    1.289   .     S
O828   Zn832   1.970   .     S
O828   C886    1.289   1_455 S
O829   Zn832   1.924   .     S
O830   Zn831   1.924   .     S
C833   O877    1.290   .     A
C833   C856    1.403   .     S
C834   C836    1.447   .     S
C834   O882    1.299   .     A
C834   O932    1.289   .     S
C835   C841    1.385   .     A
C835   C839    1.396   .     A
C835   C858    1.447   .     S
C836   C840    1.396   .     A
C836   C842    1.385   .     A
C837   C846    1.405   .     A
C837   C839    1.389   .     A
C838   C840    1.389   .     A
C838   C847    1.405   .     A
C838   H921    1.084   .     S
C840   H918    1.083   .     S
C841   H865    1.075   .     S
C841   C843    1.396   .     A
C842   H864    1.075   .     S
C842   C845    1.396   .     A
C843   C848    1.428   .     A
C843   C846    1.417   .     A
C844   C857    1.403   .     S
C844   O878    1.290   .     A
C844   O928    1.276   .     S
C845   C849    1.428   .     A
C845   C847    1.417   .     A
C846   C386    1.379   1_556 S
C848   C853    1.438   .     A
C848   C381    1.432   1_556 S
C849   C852    1.438   .     A
C850   N873    1.156   .     T
C850   C852    1.443   .     S
C851   N874    1.156   .     T
C851   C853    1.443   .     S
C852   C854    1.386   .     A
C853   C855    1.386   .     A
C854   H859    1.087   .     S
C855   H863    1.087   .     S
C855   C379    1.379   1_556 S
C856   C493    1.340   1_565 S
C856   H558    1.088   1_565 S
C858   O881    1.299   .     A
H860   C545    1.088   1_565 S
H861   N871    1.029   .     S
H862   N872    1.029   .     S
H867   C891    1.083   .     S
H868   C889    1.084   .     S
N871   Zn884   2.020   .     S
N871   N872    1.291   .     D
N872   Zn883   2.020   .     S
O875   Zn883   1.951   .     S
O875   C885    1.276   .     S
O876   Zn884   1.951   .     S
O877   Zn884   1.979   .     S
O878   Zn883   1.979   .     S
O879   Zn883   1.970   .     S
O879   C910    1.289   .     S
O880   Zn884   1.970   .     S
O881   Zn884   1.924   .     S
O882   Zn883   1.924   .     S
C885   O929    1.290   .     A
C885   C908    1.403   .     S
C886   C888    1.447   .     S
C886   O934    1.299   .     A
C886   O828    1.289   1_655 S
C887   C893    1.385   .     A
C887   C891    1.396   .     A
C887   C910    1.447   .     S
C888   C892    1.396   .     A
C888   C894    1.385   .     A
C889   C898    1.405   .     A
C889   C891    1.389   .     A
C890   C892    1.389   .     A
C890   C899    1.405   .     A
C890   H817    1.084   1_655 S
C892   H814    1.083   1_655 S
C893   H917    1.075   .     S
C893   C895    1.396   .     A
C894   H916    1.075   .     S
C894   C897    1.396   .     A
C895   C900    1.428   .     A
C895   C898    1.417   .     A
C896   C909    1.403   .     S
C896   O930    1.290   .     A
C896   O824    1.276   1_655 S
C897   C901    1.428   .     A
C897   C899    1.417   .     A
C898   C438    1.379   1_556 S
C900   C905    1.438   .     A
C900   C433    1.432   1_556 S
C901   C904    1.438   .     A
C902   N925    1.156   .     T
C902   C904    1.443   .     S
C903   N926    1.156   .     T
C903   C905    1.443   .     S
C904   C906    1.386   .     A
C905   C907    1.386   .     A
C906   H911    1.087   .     S
C907   H915    1.087   .     S
C907   C431    1.379   1_556 S
C908   C545    1.340   1_565 S
C908   H610    1.088   1_565 S
C909   C648    1.340   1_655 S
C910   O933    1.299   .     A
H912   C597    1.088   1_565 S
H913   N923    1.029   .     S
H914   N924    1.029   .     S
H919   C787    1.083   1_655 S
H920   C785    1.084   1_655 S
N923   Zn936   2.020   .     S
N923   N924    1.291   .     D
N924   Zn935   2.020   .     S
O927   Zn935   1.951   .     S
O927   C781    1.276   1_655 S
O928   Zn936   1.951   .     S
O929   Zn936   1.979   .     S
O930   Zn935   1.979   .     S
O931   Zn935   1.970   .     S
O931   C806    1.289   1_655 S
O932   Zn936   1.970   .     S
O933   Zn936   1.924   .     S
O934   Zn935   1.924   .     S
