data_str_m2_o10_o16_pcu_sym.51
_audit_creation_date              2020-01-03
_audit_creation_method            'Materials Studio'
_symmetry_space_group_name_H-M    'P1'
_symmetry_Int_Tables_number       1
_symmetry_cell_setting            triclinic
loop_
_symmetry_equiv_pos_as_xyz
  x,y,z
_cell_length_a                    22.2700
_cell_length_b                    26.1215
_cell_length_c                    26.8268
_cell_angle_alpha                 94.4903
_cell_angle_beta                  77.2943
_cell_angle_gamma                 103.1198
loop_
_atom_site_label
_atom_site_type_symbol
_atom_site_fract_x
_atom_site_fract_y
_atom_site_fract_z
_atom_site_U_iso_or_equiv
_atom_site_adp_type
_atom_site_occupancy
C1     C     0.18263   0.26660   0.24870   0.00000  Uiso   1.00
C2     C     0.11183   0.16502   0.40344   0.00000  Uiso   1.00
C3     C     0.19050   0.32252   0.24821   0.00000  Uiso   1.00
C4     C     0.13309   0.16618   0.34729   0.00000  Uiso   1.00
C5     C     0.14908   0.01166   0.23325   0.00000  Uiso   1.00
C6     C     0.15293   0.06677   0.24502   0.00000  Uiso   1.00
C7     C     0.20052   0.16956   0.15288   0.00000  Uiso   1.00
C8     C     0.29358   0.22177   0.02623   0.00000  Uiso   1.00
C9     C     0.22097   0.17627   0.09760   0.00000  Uiso   1.00
C10    C     0.05122   0.13599   0.42337   0.00000  Uiso   1.00
C11    C     0.03420   0.12234   0.47423   0.00000  Uiso   1.00
C12    C     0.13962   0.16522   0.48706   0.00000  Uiso   1.00
C13    C     0.07807   0.13514   0.00541   0.00000  Uiso   1.00
C14    C     0.10279   0.31817   0.20177   0.00000  Uiso   1.00
C15    C     0.21546   0.26274   0.38500   0.00000  Uiso   1.00
C16    C     0.15417   0.18483   0.43680   0.00000  Uiso   1.00
C17    C     0.18672   0.17743   0.01724   0.00000  Uiso   1.00
C18    C     0.24640   0.20977   0.49733   0.00000  Uiso   1.00
C19    C     0.25683   0.23339   0.45062   0.00000  Uiso   1.00
C20    C     0.20999   0.22403   0.42219   0.00000  Uiso   1.00
C21    C     0.17601   0.15984   0.06723   0.00000  Uiso   1.00
C22    C     0.28082   0.20532   0.07631   0.00000  Uiso   1.00
Cu23   Cu    0.10710   0.16105   0.24436   0.00000  Uiso   1.00
Cu24   Cu    0.22623   0.17228   0.25565   0.00000  Uiso   1.00
H25    H     0.31628   0.21801   0.09921   0.00000  Uiso   1.00
H26    H     0.22793   0.01237   0.26577   0.00000  Uiso   1.00
H27    H     0.05751   0.32903   0.20701   0.00000  Uiso   1.00
H28    H     0.00363   0.20605   0.28969   0.00000  Uiso   1.00
H29    H     0.32969   0.12730   0.21031   0.00000  Uiso   1.00
H30    H     0.30017   0.26220   0.43794   0.00000  Uiso   1.00
H31    H     0.00603   0.24614   0.01094   0.00000  Uiso   1.00
H32    H     0.13191   0.13518   0.08470   0.00000  Uiso   1.00
H33    H     0.01770   0.12165   0.39902   0.00000  Uiso   1.00
H34    H     0.06166   0.12134   0.04381   0.00000  Uiso   1.00
H35    H     0.32068   0.09963   0.48912   0.00000  Uiso   1.00
N36    N     0.31574   0.18074   0.26416   0.00000  Uiso   1.00
N37    N     0.01759   0.15259   0.23584   0.00000  Uiso   1.00
N38    N     0.22008   0.29478   0.35618   0.00000  Uiso   1.00
O39    O     0.12797   0.23807   0.24633   0.00000  Uiso   1.00
O40    O     0.22858   0.24755   0.25586   0.00000  Uiso   1.00
O41    O     0.09181   0.15960   0.31840   0.00000  Uiso   1.00
O42    O     0.19242   0.16908   0.32793   0.00000  Uiso   1.00
O43    O     0.10476   0.08578   0.24414   0.00000  Uiso   1.00
O44    O     0.20536   0.09526   0.25367   0.00000  Uiso   1.00
O45    O     0.14092   0.16425   0.17207   0.00000  Uiso   1.00
O46    O     0.24152   0.17373   0.18160   0.00000  Uiso   1.00
O47    O     0.11639   0.28636   0.16767   0.00000  Uiso   1.00
C48    C     0.51596   0.26660   0.24870   0.00000  Uiso   1.00
C49    C     0.44516   0.16502   0.40344   0.00000  Uiso   1.00
C50    C     0.52383   0.32252   0.24821   0.00000  Uiso   1.00
C51    C     0.46642   0.16618   0.34729   0.00000  Uiso   1.00
C52    C     0.48242   0.01166   0.23325   0.00000  Uiso   1.00
C53    C     0.48627   0.06677   0.24502   0.00000  Uiso   1.00
C54    C     0.53385   0.16956   0.15288   0.00000  Uiso   1.00
C55    C     0.62692   0.22177   0.02623   0.00000  Uiso   1.00
C56    C     0.55430   0.17627   0.09760   0.00000  Uiso   1.00
C57    C     0.38456   0.13599   0.42337   0.00000  Uiso   1.00
C58    C     0.36753   0.12234   0.47423   0.00000  Uiso   1.00
C59    C     0.47295   0.16522   0.48706   0.00000  Uiso   1.00
C60    C     0.41141   0.13514   0.00541   0.00000  Uiso   1.00
C61    C     0.43612   0.31817   0.20177   0.00000  Uiso   1.00
C62    C     0.54879   0.26274   0.38500   0.00000  Uiso   1.00
C63    C     0.48750   0.18483   0.43680   0.00000  Uiso   1.00
C64    C     0.52006   0.17743   0.01724   0.00000  Uiso   1.00
C65    C     0.57974   0.20977   0.49733   0.00000  Uiso   1.00
C66    C     0.59017   0.23339   0.45062   0.00000  Uiso   1.00
C67    C     0.54333   0.22403   0.42219   0.00000  Uiso   1.00
C68    C     0.50935   0.15984   0.06723   0.00000  Uiso   1.00
C69    C     0.61415   0.20532   0.07631   0.00000  Uiso   1.00
Cu70   Cu    0.44043   0.16105   0.24436   0.00000  Uiso   1.00
Cu71   Cu    0.55957   0.17228   0.25565   0.00000  Uiso   1.00
H72    H     0.64961   0.21801   0.09921   0.00000  Uiso   1.00
H73    H     0.56126   0.01237   0.26577   0.00000  Uiso   1.00
H74    H     0.39085   0.32903   0.20701   0.00000  Uiso   1.00
H75    H     0.33697   0.20605   0.28969   0.00000  Uiso   1.00
H76    H     0.66303   0.12730   0.21031   0.00000  Uiso   1.00
H77    H     0.63350   0.26220   0.43794   0.00000  Uiso   1.00
H78    H     0.33936   0.24614   0.01094   0.00000  Uiso   1.00
H79    H     0.46524   0.13518   0.08470   0.00000  Uiso   1.00
H80    H     0.35104   0.12165   0.39902   0.00000  Uiso   1.00
H81    H     0.39499   0.12134   0.04381   0.00000  Uiso   1.00
H82    H     0.65401   0.09963   0.48912   0.00000  Uiso   1.00
N83    N     0.64908   0.18074   0.26416   0.00000  Uiso   1.00
N84    N     0.35092   0.15259   0.23584   0.00000  Uiso   1.00
N85    N     0.55341   0.29478   0.35618   0.00000  Uiso   1.00
O86    O     0.46131   0.23807   0.24633   0.00000  Uiso   1.00
O87    O     0.56191   0.24755   0.25586   0.00000  Uiso   1.00
O88    O     0.42515   0.15960   0.31840   0.00000  Uiso   1.00
O89    O     0.52575   0.16908   0.32793   0.00000  Uiso   1.00
O90    O     0.43809   0.08578   0.24414   0.00000  Uiso   1.00
O91    O     0.53869   0.09526   0.25367   0.00000  Uiso   1.00
O92    O     0.47425   0.16425   0.17207   0.00000  Uiso   1.00
O93    O     0.57485   0.17373   0.18160   0.00000  Uiso   1.00
O94    O     0.44972   0.28636   0.16767   0.00000  Uiso   1.00
C95    C     0.84930   0.26660   0.24870   0.00000  Uiso   1.00
C96    C     0.77850   0.16502   0.40344   0.00000  Uiso   1.00
C97    C     0.85716   0.32252   0.24821   0.00000  Uiso   1.00
C98    C     0.79975   0.16618   0.34729   0.00000  Uiso   1.00
C99    C     0.81575   0.01166   0.23325   0.00000  Uiso   1.00
C100   C     0.81960   0.06677   0.24502   0.00000  Uiso   1.00
C101   C     0.86719   0.16956   0.15288   0.00000  Uiso   1.00
C102   C     0.96025   0.22177   0.02623   0.00000  Uiso   1.00
C103   C     0.88764   0.17627   0.09760   0.00000  Uiso   1.00
C104   C     0.71789   0.13599   0.42337   0.00000  Uiso   1.00
C105   C     0.70087   0.12234   0.47423   0.00000  Uiso   1.00
C106   C     0.80629   0.16522   0.48706   0.00000  Uiso   1.00
C107   C     0.74474   0.13514   0.00541   0.00000  Uiso   1.00
C108   C     0.76945   0.31817   0.20177   0.00000  Uiso   1.00
C109   C     0.88212   0.26274   0.38500   0.00000  Uiso   1.00
C110   C     0.82083   0.18483   0.43680   0.00000  Uiso   1.00
C111   C     0.85339   0.17743   0.01724   0.00000  Uiso   1.00
C112   C     0.91307   0.20977   0.49733   0.00000  Uiso   1.00
C113   C     0.92350   0.23339   0.45062   0.00000  Uiso   1.00
C114   C     0.87666   0.22403   0.42219   0.00000  Uiso   1.00
C115   C     0.84268   0.15984   0.06723   0.00000  Uiso   1.00
C116   C     0.94749   0.20532   0.07631   0.00000  Uiso   1.00
Cu117  Cu    0.77377   0.16105   0.24436   0.00000  Uiso   1.00
Cu118  Cu    0.89290   0.17228   0.25565   0.00000  Uiso   1.00
H119   H     0.98295   0.21801   0.09921   0.00000  Uiso   1.00
H120   H     0.89460   0.01237   0.26577   0.00000  Uiso   1.00
H121   H     0.72418   0.32903   0.20701   0.00000  Uiso   1.00
H122   H     0.67030   0.20605   0.28969   0.00000  Uiso   1.00
H123   H     0.99636   0.12730   0.21031   0.00000  Uiso   1.00
H124   H     0.96683   0.26220   0.43794   0.00000  Uiso   1.00
H125   H     0.67270   0.24614   0.01094   0.00000  Uiso   1.00
H126   H     0.79858   0.13518   0.08470   0.00000  Uiso   1.00
H127   H     0.68437   0.12165   0.39902   0.00000  Uiso   1.00
H128   H     0.72833   0.12134   0.04381   0.00000  Uiso   1.00
H129   H     0.98734   0.09963   0.48912   0.00000  Uiso   1.00
N130   N     0.98241   0.18074   0.26416   0.00000  Uiso   1.00
N131   N     0.68426   0.15259   0.23584   0.00000  Uiso   1.00
N132   N     0.88674   0.29478   0.35618   0.00000  Uiso   1.00
O133   O     0.79464   0.23807   0.24633   0.00000  Uiso   1.00
O134   O     0.89524   0.24755   0.25586   0.00000  Uiso   1.00
O135   O     0.75848   0.15960   0.31840   0.00000  Uiso   1.00
O136   O     0.85908   0.16908   0.32793   0.00000  Uiso   1.00
O137   O     0.77142   0.08578   0.24414   0.00000  Uiso   1.00
O138   O     0.87203   0.09526   0.25367   0.00000  Uiso   1.00
O139   O     0.80758   0.16425   0.17207   0.00000  Uiso   1.00
O140   O     0.90819   0.17373   0.18160   0.00000  Uiso   1.00
O141   O     0.78305   0.28636   0.16767   0.00000  Uiso   1.00
C142   C     0.18263   0.59993   0.24870   0.00000  Uiso   1.00
C143   C     0.11183   0.49835   0.40344   0.00000  Uiso   1.00
C144   C     0.19050   0.65586   0.24821   0.00000  Uiso   1.00
C145   C     0.13309   0.49951   0.34729   0.00000  Uiso   1.00
C146   C     0.14908   0.34499   0.23325   0.00000  Uiso   1.00
C147   C     0.15293   0.40010   0.24502   0.00000  Uiso   1.00
C148   C     0.20052   0.50290   0.15288   0.00000  Uiso   1.00
C149   C     0.29358   0.55510   0.02623   0.00000  Uiso   1.00
C150   C     0.22097   0.50960   0.09760   0.00000  Uiso   1.00
C151   C     0.05122   0.46933   0.42337   0.00000  Uiso   1.00
C152   C     0.03420   0.45567   0.47423   0.00000  Uiso   1.00
C153   C     0.13962   0.49855   0.48706   0.00000  Uiso   1.00
C154   C     0.07807   0.46847   0.00541   0.00000  Uiso   1.00
C155   C     0.10279   0.65150   0.20177   0.00000  Uiso   1.00
C156   C     0.21546   0.59608   0.38500   0.00000  Uiso   1.00
C157   C     0.15417   0.51816   0.43680   0.00000  Uiso   1.00
C158   C     0.18672   0.51077   0.01724   0.00000  Uiso   1.00
C159   C     0.24640   0.54310   0.49733   0.00000  Uiso   1.00
C160   C     0.25683   0.56672   0.45062   0.00000  Uiso   1.00
C161   C     0.20999   0.55737   0.42219   0.00000  Uiso   1.00
C162   C     0.17601   0.49317   0.06723   0.00000  Uiso   1.00
C163   C     0.28082   0.53866   0.07631   0.00000  Uiso   1.00
Cu164  Cu    0.10710   0.49439   0.24436   0.00000  Uiso   1.00
Cu165  Cu    0.22623   0.50561   0.25565   0.00000  Uiso   1.00
H166   H     0.31628   0.55134   0.09921   0.00000  Uiso   1.00
H167   H     0.22793   0.34571   0.26577   0.00000  Uiso   1.00
H168   H     0.05751   0.66236   0.20701   0.00000  Uiso   1.00
H169   H     0.00363   0.53938   0.28969   0.00000  Uiso   1.00
H170   H     0.32969   0.46063   0.21031   0.00000  Uiso   1.00
H171   H     0.30017   0.59553   0.43794   0.00000  Uiso   1.00
H172   H     0.00603   0.57947   0.01094   0.00000  Uiso   1.00
H173   H     0.13191   0.46851   0.08470   0.00000  Uiso   1.00
H174   H     0.01770   0.45498   0.39902   0.00000  Uiso   1.00
H175   H     0.06166   0.45468   0.04381   0.00000  Uiso   1.00
H176   H     0.32068   0.43297   0.48912   0.00000  Uiso   1.00
N177   N     0.31574   0.51407   0.26416   0.00000  Uiso   1.00
N178   N     0.01759   0.48593   0.23584   0.00000  Uiso   1.00
N179   N     0.22008   0.62812   0.35618   0.00000  Uiso   1.00
O180   O     0.12797   0.57141   0.24633   0.00000  Uiso   1.00
O181   O     0.22858   0.58089   0.25586   0.00000  Uiso   1.00
O182   O     0.09181   0.49293   0.31840   0.00000  Uiso   1.00
O183   O     0.19242   0.50241   0.32793   0.00000  Uiso   1.00
O184   O     0.10476   0.41911   0.24414   0.00000  Uiso   1.00
O185   O     0.20536   0.42859   0.25367   0.00000  Uiso   1.00
O186   O     0.14092   0.49759   0.17207   0.00000  Uiso   1.00
O187   O     0.24152   0.50707   0.18160   0.00000  Uiso   1.00
O188   O     0.11639   0.61969   0.16767   0.00000  Uiso   1.00
C189   C     0.51596   0.59993   0.24870   0.00000  Uiso   1.00
C190   C     0.44516   0.49835   0.40344   0.00000  Uiso   1.00
C191   C     0.52383   0.65586   0.24821   0.00000  Uiso   1.00
C192   C     0.46642   0.49951   0.34729   0.00000  Uiso   1.00
C193   C     0.48242   0.34499   0.23325   0.00000  Uiso   1.00
C194   C     0.48627   0.40010   0.24502   0.00000  Uiso   1.00
C195   C     0.53385   0.50290   0.15288   0.00000  Uiso   1.00
C196   C     0.62692   0.55510   0.02623   0.00000  Uiso   1.00
C197   C     0.55430   0.50960   0.09760   0.00000  Uiso   1.00
C198   C     0.38456   0.46933   0.42337   0.00000  Uiso   1.00
C199   C     0.36753   0.45567   0.47423   0.00000  Uiso   1.00
C200   C     0.47295   0.49855   0.48706   0.00000  Uiso   1.00
C201   C     0.41141   0.46847   0.00541   0.00000  Uiso   1.00
C202   C     0.43612   0.65150   0.20177   0.00000  Uiso   1.00
C203   C     0.54879   0.59608   0.38500   0.00000  Uiso   1.00
C204   C     0.48750   0.51816   0.43680   0.00000  Uiso   1.00
C205   C     0.52006   0.51077   0.01724   0.00000  Uiso   1.00
C206   C     0.57974   0.54310   0.49733   0.00000  Uiso   1.00
C207   C     0.59017   0.56672   0.45062   0.00000  Uiso   1.00
C208   C     0.54333   0.55737   0.42219   0.00000  Uiso   1.00
C209   C     0.50935   0.49317   0.06723   0.00000  Uiso   1.00
C210   C     0.61415   0.53866   0.07631   0.00000  Uiso   1.00
Cu211  Cu    0.44043   0.49439   0.24436   0.00000  Uiso   1.00
Cu212  Cu    0.55957   0.50561   0.25565   0.00000  Uiso   1.00
H213   H     0.64961   0.55134   0.09921   0.00000  Uiso   1.00
H214   H     0.56126   0.34571   0.26577   0.00000  Uiso   1.00
H215   H     0.39085   0.66236   0.20701   0.00000  Uiso   1.00
H216   H     0.33697   0.53938   0.28969   0.00000  Uiso   1.00
H217   H     0.66303   0.46063   0.21031   0.00000  Uiso   1.00
H218   H     0.63350   0.59553   0.43794   0.00000  Uiso   1.00
H219   H     0.33936   0.57947   0.01094   0.00000  Uiso   1.00
H220   H     0.46524   0.46851   0.08470   0.00000  Uiso   1.00
H221   H     0.35104   0.45498   0.39902   0.00000  Uiso   1.00
H222   H     0.39499   0.45468   0.04381   0.00000  Uiso   1.00
H223   H     0.65401   0.43297   0.48912   0.00000  Uiso   1.00
N224   N     0.64908   0.51407   0.26416   0.00000  Uiso   1.00
N225   N     0.35092   0.48593   0.23584   0.00000  Uiso   1.00
N226   N     0.55341   0.62812   0.35618   0.00000  Uiso   1.00
O227   O     0.46131   0.57141   0.24633   0.00000  Uiso   1.00
O228   O     0.56191   0.58089   0.25586   0.00000  Uiso   1.00
O229   O     0.42515   0.49293   0.31840   0.00000  Uiso   1.00
O230   O     0.52575   0.50241   0.32793   0.00000  Uiso   1.00
O231   O     0.43809   0.41911   0.24414   0.00000  Uiso   1.00
O232   O     0.53869   0.42859   0.25367   0.00000  Uiso   1.00
O233   O     0.47425   0.49759   0.17207   0.00000  Uiso   1.00
O234   O     0.57485   0.50707   0.18160   0.00000  Uiso   1.00
O235   O     0.44972   0.61969   0.16767   0.00000  Uiso   1.00
C236   C     0.84930   0.59993   0.24870   0.00000  Uiso   1.00
C237   C     0.77850   0.49835   0.40344   0.00000  Uiso   1.00
C238   C     0.85716   0.65586   0.24821   0.00000  Uiso   1.00
C239   C     0.79975   0.49951   0.34729   0.00000  Uiso   1.00
C240   C     0.81575   0.34499   0.23325   0.00000  Uiso   1.00
C241   C     0.81960   0.40010   0.24502   0.00000  Uiso   1.00
C242   C     0.86719   0.50290   0.15288   0.00000  Uiso   1.00
C243   C     0.96025   0.55510   0.02623   0.00000  Uiso   1.00
C244   C     0.88764   0.50960   0.09760   0.00000  Uiso   1.00
C245   C     0.71789   0.46933   0.42337   0.00000  Uiso   1.00
C246   C     0.70087   0.45567   0.47423   0.00000  Uiso   1.00
C247   C     0.80629   0.49855   0.48706   0.00000  Uiso   1.00
C248   C     0.74474   0.46847   0.00541   0.00000  Uiso   1.00
C249   C     0.76945   0.65150   0.20177   0.00000  Uiso   1.00
C250   C     0.88212   0.59608   0.38500   0.00000  Uiso   1.00
C251   C     0.82083   0.51816   0.43680   0.00000  Uiso   1.00
C252   C     0.85339   0.51077   0.01724   0.00000  Uiso   1.00
C253   C     0.91307   0.54310   0.49733   0.00000  Uiso   1.00
C254   C     0.92350   0.56672   0.45062   0.00000  Uiso   1.00
C255   C     0.87666   0.55737   0.42219   0.00000  Uiso   1.00
C256   C     0.84268   0.49317   0.06723   0.00000  Uiso   1.00
C257   C     0.94749   0.53866   0.07631   0.00000  Uiso   1.00
Cu258  Cu    0.77377   0.49439   0.24436   0.00000  Uiso   1.00
Cu259  Cu    0.89290   0.50561   0.25565   0.00000  Uiso   1.00
H260   H     0.98295   0.55134   0.09921   0.00000  Uiso   1.00
H261   H     0.89460   0.34571   0.26577   0.00000  Uiso   1.00
H262   H     0.72418   0.66236   0.20701   0.00000  Uiso   1.00
H263   H     0.67030   0.53938   0.28969   0.00000  Uiso   1.00
H264   H     0.99636   0.46063   0.21031   0.00000  Uiso   1.00
H265   H     0.96683   0.59553   0.43794   0.00000  Uiso   1.00
H266   H     0.67270   0.57947   0.01094   0.00000  Uiso   1.00
H267   H     0.79858   0.46851   0.08470   0.00000  Uiso   1.00
H268   H     0.68437   0.45498   0.39902   0.00000  Uiso   1.00
H269   H     0.72833   0.45468   0.04381   0.00000  Uiso   1.00
H270   H     0.98734   0.43297   0.48912   0.00000  Uiso   1.00
N271   N     0.98241   0.51407   0.26416   0.00000  Uiso   1.00
N272   N     0.68426   0.48593   0.23584   0.00000  Uiso   1.00
N273   N     0.88674   0.62812   0.35618   0.00000  Uiso   1.00
O274   O     0.79464   0.57141   0.24633   0.00000  Uiso   1.00
O275   O     0.89524   0.58089   0.25586   0.00000  Uiso   1.00
O276   O     0.75848   0.49293   0.31840   0.00000  Uiso   1.00
O277   O     0.85908   0.50241   0.32793   0.00000  Uiso   1.00
O278   O     0.77142   0.41911   0.24414   0.00000  Uiso   1.00
O279   O     0.87203   0.42859   0.25367   0.00000  Uiso   1.00
O280   O     0.80758   0.49759   0.17207   0.00000  Uiso   1.00
O281   O     0.90819   0.50707   0.18160   0.00000  Uiso   1.00
O282   O     0.78305   0.61969   0.16767   0.00000  Uiso   1.00
C283   C     0.18263   0.93327   0.24870   0.00000  Uiso   1.00
C284   C     0.11183   0.83168   0.40344   0.00000  Uiso   1.00
C285   C     0.19050   0.98919   0.24821   0.00000  Uiso   1.00
C286   C     0.13309   0.83285   0.34729   0.00000  Uiso   1.00
C287   C     0.14908   0.67832   0.23325   0.00000  Uiso   1.00
C288   C     0.15293   0.73344   0.24502   0.00000  Uiso   1.00
C289   C     0.20052   0.83623   0.15288   0.00000  Uiso   1.00
C290   C     0.29358   0.88844   0.02623   0.00000  Uiso   1.00
C291   C     0.22097   0.84294   0.09760   0.00000  Uiso   1.00
C292   C     0.05122   0.80266   0.42337   0.00000  Uiso   1.00
C293   C     0.03420   0.78900   0.47423   0.00000  Uiso   1.00
C294   C     0.13962   0.83189   0.48706   0.00000  Uiso   1.00
C295   C     0.07807   0.80180   0.00541   0.00000  Uiso   1.00
C296   C     0.10279   0.98483   0.20177   0.00000  Uiso   1.00
C297   C     0.21546   0.92941   0.38500   0.00000  Uiso   1.00
C298   C     0.15417   0.85150   0.43680   0.00000  Uiso   1.00
C299   C     0.18672   0.84410   0.01724   0.00000  Uiso   1.00
C300   C     0.24640   0.87643   0.49733   0.00000  Uiso   1.00
C301   C     0.25683   0.90005   0.45062   0.00000  Uiso   1.00
C302   C     0.20999   0.89070   0.42219   0.00000  Uiso   1.00
C303   C     0.17601   0.82651   0.06723   0.00000  Uiso   1.00
C304   C     0.28082   0.87199   0.07631   0.00000  Uiso   1.00
Cu305  Cu    0.10710   0.82772   0.24436   0.00000  Uiso   1.00
Cu306  Cu    0.22623   0.83895   0.25565   0.00000  Uiso   1.00
H307   H     0.31628   0.88467   0.09921   0.00000  Uiso   1.00
H308   H     0.22793   0.67904   0.26577   0.00000  Uiso   1.00
H309   H     0.05751   0.99570   0.20701   0.00000  Uiso   1.00
H310   H     0.00363   0.87272   0.28969   0.00000  Uiso   1.00
H311   H     0.32969   0.79396   0.21031   0.00000  Uiso   1.00
H312   H     0.30017   0.92886   0.43794   0.00000  Uiso   1.00
H313   H     0.00603   0.91280   0.01094   0.00000  Uiso   1.00
H314   H     0.13191   0.80185   0.08470   0.00000  Uiso   1.00
H315   H     0.01770   0.78831   0.39902   0.00000  Uiso   1.00
H316   H     0.06166   0.78801   0.04381   0.00000  Uiso   1.00
H317   H     0.32068   0.76630   0.48912   0.00000  Uiso   1.00
N318   N     0.31574   0.84741   0.26416   0.00000  Uiso   1.00
N319   N     0.01759   0.81926   0.23584   0.00000  Uiso   1.00
N320   N     0.22008   0.96145   0.35618   0.00000  Uiso   1.00
O321   O     0.12797   0.90474   0.24633   0.00000  Uiso   1.00
O322   O     0.22858   0.91422   0.25586   0.00000  Uiso   1.00
O323   O     0.09181   0.82627   0.31840   0.00000  Uiso   1.00
O324   O     0.19242   0.83575   0.32793   0.00000  Uiso   1.00
O325   O     0.10476   0.75245   0.24414   0.00000  Uiso   1.00
O326   O     0.20536   0.76193   0.25367   0.00000  Uiso   1.00
O327   O     0.14092   0.83092   0.17207   0.00000  Uiso   1.00
O328   O     0.24152   0.84040   0.18160   0.00000  Uiso   1.00
O329   O     0.11639   0.95302   0.16767   0.00000  Uiso   1.00
C330   C     0.51596   0.93327   0.24870   0.00000  Uiso   1.00
C331   C     0.44516   0.83168   0.40344   0.00000  Uiso   1.00
C332   C     0.52383   0.98919   0.24821   0.00000  Uiso   1.00
C333   C     0.46642   0.83285   0.34729   0.00000  Uiso   1.00
C334   C     0.48242   0.67832   0.23325   0.00000  Uiso   1.00
C335   C     0.48627   0.73344   0.24502   0.00000  Uiso   1.00
C336   C     0.53385   0.83623   0.15288   0.00000  Uiso   1.00
C337   C     0.62692   0.88844   0.02623   0.00000  Uiso   1.00
C338   C     0.55430   0.84294   0.09760   0.00000  Uiso   1.00
C339   C     0.38456   0.80266   0.42337   0.00000  Uiso   1.00
C340   C     0.36753   0.78900   0.47423   0.00000  Uiso   1.00
C341   C     0.47295   0.83189   0.48706   0.00000  Uiso   1.00
C342   C     0.41141   0.80180   0.00541   0.00000  Uiso   1.00
C343   C     0.43612   0.98483   0.20177   0.00000  Uiso   1.00
C344   C     0.54879   0.92941   0.38500   0.00000  Uiso   1.00
C345   C     0.48750   0.85150   0.43680   0.00000  Uiso   1.00
C346   C     0.52006   0.84410   0.01724   0.00000  Uiso   1.00
C347   C     0.57974   0.87643   0.49733   0.00000  Uiso   1.00
C348   C     0.59017   0.90005   0.45062   0.00000  Uiso   1.00
C349   C     0.54333   0.89070   0.42219   0.00000  Uiso   1.00
C350   C     0.50935   0.82651   0.06723   0.00000  Uiso   1.00
C351   C     0.61415   0.87199   0.07631   0.00000  Uiso   1.00
Cu352  Cu    0.44043   0.82772   0.24436   0.00000  Uiso   1.00
Cu353  Cu    0.55957   0.83895   0.25565   0.00000  Uiso   1.00
H354   H     0.64961   0.88467   0.09921   0.00000  Uiso   1.00
H355   H     0.56126   0.67904   0.26577   0.00000  Uiso   1.00
H356   H     0.39085   0.99570   0.20701   0.00000  Uiso   1.00
H357   H     0.33697   0.87272   0.28969   0.00000  Uiso   1.00
H358   H     0.66303   0.79396   0.21031   0.00000  Uiso   1.00
H359   H     0.63350   0.92886   0.43794   0.00000  Uiso   1.00
H360   H     0.33936   0.91280   0.01094   0.00000  Uiso   1.00
H361   H     0.46524   0.80185   0.08470   0.00000  Uiso   1.00
H362   H     0.35104   0.78831   0.39902   0.00000  Uiso   1.00
H363   H     0.39499   0.78801   0.04381   0.00000  Uiso   1.00
H364   H     0.65401   0.76630   0.48912   0.00000  Uiso   1.00
N365   N     0.64908   0.84741   0.26416   0.00000  Uiso   1.00
N366   N     0.35092   0.81926   0.23584   0.00000  Uiso   1.00
N367   N     0.55341   0.96145   0.35618   0.00000  Uiso   1.00
O368   O     0.46131   0.90474   0.24633   0.00000  Uiso   1.00
O369   O     0.56191   0.91422   0.25586   0.00000  Uiso   1.00
O370   O     0.42515   0.82627   0.31840   0.00000  Uiso   1.00
O371   O     0.52575   0.83575   0.32793   0.00000  Uiso   1.00
O372   O     0.43809   0.75245   0.24414   0.00000  Uiso   1.00
O373   O     0.53869   0.76193   0.25367   0.00000  Uiso   1.00
O374   O     0.47425   0.83092   0.17207   0.00000  Uiso   1.00
O375   O     0.57485   0.84040   0.18160   0.00000  Uiso   1.00
O376   O     0.44972   0.95302   0.16767   0.00000  Uiso   1.00
C377   C     0.84930   0.93327   0.24870   0.00000  Uiso   1.00
C378   C     0.77850   0.83168   0.40344   0.00000  Uiso   1.00
C379   C     0.85716   0.98919   0.24821   0.00000  Uiso   1.00
C380   C     0.79975   0.83285   0.34729   0.00000  Uiso   1.00
C381   C     0.81575   0.67832   0.23325   0.00000  Uiso   1.00
C382   C     0.81960   0.73344   0.24502   0.00000  Uiso   1.00
C383   C     0.86719   0.83623   0.15288   0.00000  Uiso   1.00
C384   C     0.96025   0.88844   0.02623   0.00000  Uiso   1.00
C385   C     0.88764   0.84294   0.09760   0.00000  Uiso   1.00
C386   C     0.71789   0.80266   0.42337   0.00000  Uiso   1.00
C387   C     0.70087   0.78900   0.47423   0.00000  Uiso   1.00
C388   C     0.80629   0.83189   0.48706   0.00000  Uiso   1.00
C389   C     0.74474   0.80180   0.00541   0.00000  Uiso   1.00
C390   C     0.76945   0.98483   0.20177   0.00000  Uiso   1.00
C391   C     0.88212   0.92941   0.38500   0.00000  Uiso   1.00
C392   C     0.82083   0.85150   0.43680   0.00000  Uiso   1.00
C393   C     0.85339   0.84410   0.01724   0.00000  Uiso   1.00
C394   C     0.91307   0.87643   0.49733   0.00000  Uiso   1.00
C395   C     0.92350   0.90005   0.45062   0.00000  Uiso   1.00
C396   C     0.87666   0.89070   0.42219   0.00000  Uiso   1.00
C397   C     0.84268   0.82651   0.06723   0.00000  Uiso   1.00
C398   C     0.94749   0.87199   0.07631   0.00000  Uiso   1.00
Cu399  Cu    0.77377   0.82772   0.24436   0.00000  Uiso   1.00
Cu400  Cu    0.89290   0.83895   0.25565   0.00000  Uiso   1.00
H401   H     0.98295   0.88467   0.09921   0.00000  Uiso   1.00
H402   H     0.89460   0.67904   0.26577   0.00000  Uiso   1.00
H403   H     0.72418   0.99570   0.20701   0.00000  Uiso   1.00
H404   H     0.67030   0.87272   0.28969   0.00000  Uiso   1.00
H405   H     0.99636   0.79396   0.21031   0.00000  Uiso   1.00
H406   H     0.96683   0.92886   0.43794   0.00000  Uiso   1.00
H407   H     0.67270   0.91280   0.01094   0.00000  Uiso   1.00
H408   H     0.79858   0.80185   0.08470   0.00000  Uiso   1.00
H409   H     0.68437   0.78831   0.39902   0.00000  Uiso   1.00
H410   H     0.72833   0.78801   0.04381   0.00000  Uiso   1.00
H411   H     0.98734   0.76630   0.48912   0.00000  Uiso   1.00
N412   N     0.98241   0.84741   0.26416   0.00000  Uiso   1.00
N413   N     0.68426   0.81926   0.23584   0.00000  Uiso   1.00
N414   N     0.88674   0.96145   0.35618   0.00000  Uiso   1.00
O415   O     0.79464   0.90474   0.24633   0.00000  Uiso   1.00
O416   O     0.89524   0.91422   0.25586   0.00000  Uiso   1.00
O417   O     0.75848   0.82627   0.31840   0.00000  Uiso   1.00
O418   O     0.85908   0.83575   0.32793   0.00000  Uiso   1.00
O419   O     0.77142   0.75245   0.24414   0.00000  Uiso   1.00
O420   O     0.87203   0.76193   0.25367   0.00000  Uiso   1.00
O421   O     0.80758   0.83092   0.17207   0.00000  Uiso   1.00
O422   O     0.90819   0.84040   0.18160   0.00000  Uiso   1.00
O423   O     0.78305   0.95302   0.16767   0.00000  Uiso   1.00
C424   C     0.18263   0.26660   0.74870   0.00000  Uiso   1.00
C425   C     0.11183   0.16502   0.90344   0.00000  Uiso   1.00
C426   C     0.19050   0.32252   0.74821   0.00000  Uiso   1.00
C427   C     0.13309   0.16618   0.84729   0.00000  Uiso   1.00
C428   C     0.14908   0.01166   0.73325   0.00000  Uiso   1.00
C429   C     0.15293   0.06677   0.74502   0.00000  Uiso   1.00
C430   C     0.20052   0.16956   0.65288   0.00000  Uiso   1.00
C431   C     0.29358   0.22177   0.52623   0.00000  Uiso   1.00
C432   C     0.22097   0.17627   0.59760   0.00000  Uiso   1.00
C433   C     0.05122   0.13599   0.92337   0.00000  Uiso   1.00
C434   C     0.03420   0.12234   0.97423   0.00000  Uiso   1.00
C435   C     0.13962   0.16522   0.98706   0.00000  Uiso   1.00
C436   C     0.07807   0.13514   0.50541   0.00000  Uiso   1.00
C437   C     0.10279   0.31817   0.70177   0.00000  Uiso   1.00
C438   C     0.21546   0.26274   0.88500   0.00000  Uiso   1.00
C439   C     0.15417   0.18483   0.93680   0.00000  Uiso   1.00
C440   C     0.18672   0.17743   0.51724   0.00000  Uiso   1.00
C441   C     0.24640   0.20977   0.99733   0.00000  Uiso   1.00
C442   C     0.25683   0.23339   0.95062   0.00000  Uiso   1.00
C443   C     0.20999   0.22403   0.92219   0.00000  Uiso   1.00
C444   C     0.17601   0.15984   0.56723   0.00000  Uiso   1.00
C445   C     0.28082   0.20532   0.57631   0.00000  Uiso   1.00
Cu446  Cu    0.10710   0.16105   0.74436   0.00000  Uiso   1.00
Cu447  Cu    0.22623   0.17228   0.75565   0.00000  Uiso   1.00
H448   H     0.31628   0.21801   0.59921   0.00000  Uiso   1.00
H449   H     0.22793   0.01237   0.76577   0.00000  Uiso   1.00
H450   H     0.05751   0.32903   0.70701   0.00000  Uiso   1.00
H451   H     0.00363   0.20605   0.78969   0.00000  Uiso   1.00
H452   H     0.32969   0.12730   0.71031   0.00000  Uiso   1.00
H453   H     0.30017   0.26220   0.93794   0.00000  Uiso   1.00
H454   H     0.00603   0.24614   0.51094   0.00000  Uiso   1.00
H455   H     0.13191   0.13518   0.58470   0.00000  Uiso   1.00
H456   H     0.01770   0.12165   0.89902   0.00000  Uiso   1.00
H457   H     0.06166   0.12134   0.54381   0.00000  Uiso   1.00
H458   H     0.32068   0.09963   0.98912   0.00000  Uiso   1.00
N459   N     0.31574   0.18074   0.76416   0.00000  Uiso   1.00
N460   N     0.01759   0.15259   0.73584   0.00000  Uiso   1.00
N461   N     0.22008   0.29478   0.85618   0.00000  Uiso   1.00
O462   O     0.12797   0.23807   0.74633   0.00000  Uiso   1.00
O463   O     0.22858   0.24755   0.75586   0.00000  Uiso   1.00
O464   O     0.09181   0.15960   0.81840   0.00000  Uiso   1.00
O465   O     0.19242   0.16908   0.82793   0.00000  Uiso   1.00
O466   O     0.10476   0.08578   0.74414   0.00000  Uiso   1.00
O467   O     0.20536   0.09526   0.75367   0.00000  Uiso   1.00
O468   O     0.14092   0.16425   0.67207   0.00000  Uiso   1.00
O469   O     0.24152   0.17373   0.68160   0.00000  Uiso   1.00
O470   O     0.11639   0.28636   0.66767   0.00000  Uiso   1.00
C471   C     0.51596   0.26660   0.74870   0.00000  Uiso   1.00
C472   C     0.44516   0.16502   0.90344   0.00000  Uiso   1.00
C473   C     0.52383   0.32252   0.74821   0.00000  Uiso   1.00
C474   C     0.46642   0.16618   0.84729   0.00000  Uiso   1.00
C475   C     0.48242   0.01166   0.73325   0.00000  Uiso   1.00
C476   C     0.48627   0.06677   0.74502   0.00000  Uiso   1.00
C477   C     0.53385   0.16956   0.65288   0.00000  Uiso   1.00
C478   C     0.62692   0.22177   0.52623   0.00000  Uiso   1.00
C479   C     0.55430   0.17627   0.59760   0.00000  Uiso   1.00
C480   C     0.38456   0.13599   0.92337   0.00000  Uiso   1.00
C481   C     0.36753   0.12234   0.97423   0.00000  Uiso   1.00
C482   C     0.47295   0.16522   0.98706   0.00000  Uiso   1.00
C483   C     0.41141   0.13514   0.50541   0.00000  Uiso   1.00
C484   C     0.43612   0.31817   0.70177   0.00000  Uiso   1.00
C485   C     0.54879   0.26274   0.88500   0.00000  Uiso   1.00
C486   C     0.48750   0.18483   0.93680   0.00000  Uiso   1.00
C487   C     0.52006   0.17743   0.51724   0.00000  Uiso   1.00
C488   C     0.57974   0.20977   0.99733   0.00000  Uiso   1.00
C489   C     0.59017   0.23339   0.95062   0.00000  Uiso   1.00
C490   C     0.54333   0.22403   0.92219   0.00000  Uiso   1.00
C491   C     0.50935   0.15984   0.56723   0.00000  Uiso   1.00
C492   C     0.61415   0.20532   0.57631   0.00000  Uiso   1.00
Cu493  Cu    0.44043   0.16105   0.74436   0.00000  Uiso   1.00
Cu494  Cu    0.55957   0.17228   0.75565   0.00000  Uiso   1.00
H495   H     0.64961   0.21801   0.59921   0.00000  Uiso   1.00
H496   H     0.56126   0.01237   0.76577   0.00000  Uiso   1.00
H497   H     0.39085   0.32903   0.70701   0.00000  Uiso   1.00
H498   H     0.33697   0.20605   0.78969   0.00000  Uiso   1.00
H499   H     0.66303   0.12730   0.71031   0.00000  Uiso   1.00
H500   H     0.63350   0.26220   0.93794   0.00000  Uiso   1.00
H501   H     0.33936   0.24614   0.51094   0.00000  Uiso   1.00
H502   H     0.46524   0.13518   0.58470   0.00000  Uiso   1.00
H503   H     0.35104   0.12165   0.89902   0.00000  Uiso   1.00
H504   H     0.39499   0.12134   0.54381   0.00000  Uiso   1.00
H505   H     0.65401   0.09963   0.98912   0.00000  Uiso   1.00
N506   N     0.64908   0.18074   0.76416   0.00000  Uiso   1.00
N507   N     0.35092   0.15259   0.73584   0.00000  Uiso   1.00
N508   N     0.55341   0.29478   0.85618   0.00000  Uiso   1.00
O509   O     0.46131   0.23807   0.74633   0.00000  Uiso   1.00
O510   O     0.56191   0.24755   0.75586   0.00000  Uiso   1.00
O511   O     0.42515   0.15960   0.81840   0.00000  Uiso   1.00
O512   O     0.52575   0.16908   0.82793   0.00000  Uiso   1.00
O513   O     0.43809   0.08578   0.74414   0.00000  Uiso   1.00
O514   O     0.53869   0.09526   0.75367   0.00000  Uiso   1.00
O515   O     0.47425   0.16425   0.67207   0.00000  Uiso   1.00
O516   O     0.57485   0.17373   0.68160   0.00000  Uiso   1.00
O517   O     0.44972   0.28636   0.66767   0.00000  Uiso   1.00
C518   C     0.84930   0.26660   0.74870   0.00000  Uiso   1.00
C519   C     0.77850   0.16502   0.90344   0.00000  Uiso   1.00
C520   C     0.85716   0.32252   0.74821   0.00000  Uiso   1.00
C521   C     0.79975   0.16618   0.84729   0.00000  Uiso   1.00
C522   C     0.81575   0.01166   0.73325   0.00000  Uiso   1.00
C523   C     0.81960   0.06677   0.74502   0.00000  Uiso   1.00
C524   C     0.86719   0.16956   0.65288   0.00000  Uiso   1.00
C525   C     0.96025   0.22177   0.52623   0.00000  Uiso   1.00
C526   C     0.88764   0.17627   0.59760   0.00000  Uiso   1.00
C527   C     0.71789   0.13599   0.92337   0.00000  Uiso   1.00
C528   C     0.70087   0.12234   0.97423   0.00000  Uiso   1.00
C529   C     0.80629   0.16522   0.98706   0.00000  Uiso   1.00
C530   C     0.74474   0.13514   0.50541   0.00000  Uiso   1.00
C531   C     0.76945   0.31817   0.70177   0.00000  Uiso   1.00
C532   C     0.88212   0.26274   0.88500   0.00000  Uiso   1.00
C533   C     0.82083   0.18483   0.93680   0.00000  Uiso   1.00
C534   C     0.85339   0.17743   0.51724   0.00000  Uiso   1.00
C535   C     0.91307   0.20977   0.99733   0.00000  Uiso   1.00
C536   C     0.92350   0.23339   0.95062   0.00000  Uiso   1.00
C537   C     0.87666   0.22403   0.92219   0.00000  Uiso   1.00
C538   C     0.84268   0.15984   0.56723   0.00000  Uiso   1.00
C539   C     0.94749   0.20532   0.57631   0.00000  Uiso   1.00
Cu540  Cu    0.77377   0.16105   0.74436   0.00000  Uiso   1.00
Cu541  Cu    0.89290   0.17228   0.75565   0.00000  Uiso   1.00
H542   H     0.98295   0.21801   0.59921   0.00000  Uiso   1.00
H543   H     0.89460   0.01237   0.76577   0.00000  Uiso   1.00
H544   H     0.72418   0.32903   0.70701   0.00000  Uiso   1.00
H545   H     0.67030   0.20605   0.78969   0.00000  Uiso   1.00
H546   H     0.99636   0.12730   0.71031   0.00000  Uiso   1.00
H547   H     0.96683   0.26220   0.93794   0.00000  Uiso   1.00
H548   H     0.67270   0.24614   0.51094   0.00000  Uiso   1.00
H549   H     0.79858   0.13518   0.58470   0.00000  Uiso   1.00
H550   H     0.68437   0.12165   0.89902   0.00000  Uiso   1.00
H551   H     0.72833   0.12134   0.54381   0.00000  Uiso   1.00
H552   H     0.98734   0.09963   0.98912   0.00000  Uiso   1.00
N553   N     0.98241   0.18074   0.76416   0.00000  Uiso   1.00
N554   N     0.68426   0.15259   0.73584   0.00000  Uiso   1.00
N555   N     0.88674   0.29478   0.85618   0.00000  Uiso   1.00
O556   O     0.79464   0.23807   0.74633   0.00000  Uiso   1.00
O557   O     0.89524   0.24755   0.75586   0.00000  Uiso   1.00
O558   O     0.75848   0.15960   0.81840   0.00000  Uiso   1.00
O559   O     0.85908   0.16908   0.82793   0.00000  Uiso   1.00
O560   O     0.77142   0.08578   0.74414   0.00000  Uiso   1.00
O561   O     0.87203   0.09526   0.75367   0.00000  Uiso   1.00
O562   O     0.80758   0.16425   0.67207   0.00000  Uiso   1.00
O563   O     0.90819   0.17373   0.68160   0.00000  Uiso   1.00
O564   O     0.78305   0.28636   0.66767   0.00000  Uiso   1.00
C565   C     0.18263   0.59993   0.74870   0.00000  Uiso   1.00
C566   C     0.11183   0.49835   0.90344   0.00000  Uiso   1.00
C567   C     0.19050   0.65586   0.74821   0.00000  Uiso   1.00
C568   C     0.13309   0.49951   0.84729   0.00000  Uiso   1.00
C569   C     0.14908   0.34499   0.73325   0.00000  Uiso   1.00
C570   C     0.15293   0.40010   0.74502   0.00000  Uiso   1.00
C571   C     0.20052   0.50290   0.65288   0.00000  Uiso   1.00
C572   C     0.29358   0.55510   0.52623   0.00000  Uiso   1.00
C573   C     0.22097   0.50960   0.59760   0.00000  Uiso   1.00
C574   C     0.05122   0.46933   0.92337   0.00000  Uiso   1.00
C575   C     0.03420   0.45567   0.97423   0.00000  Uiso   1.00
C576   C     0.13962   0.49855   0.98706   0.00000  Uiso   1.00
C577   C     0.07807   0.46847   0.50541   0.00000  Uiso   1.00
C578   C     0.10279   0.65150   0.70177   0.00000  Uiso   1.00
C579   C     0.21546   0.59608   0.88500   0.00000  Uiso   1.00
C580   C     0.15417   0.51816   0.93680   0.00000  Uiso   1.00
C581   C     0.18672   0.51077   0.51724   0.00000  Uiso   1.00
C582   C     0.24640   0.54310   0.99733   0.00000  Uiso   1.00
C583   C     0.25683   0.56672   0.95062   0.00000  Uiso   1.00
C584   C     0.20999   0.55737   0.92219   0.00000  Uiso   1.00
C585   C     0.17601   0.49317   0.56723   0.00000  Uiso   1.00
C586   C     0.28082   0.53866   0.57631   0.00000  Uiso   1.00
Cu587  Cu    0.10710   0.49439   0.74436   0.00000  Uiso   1.00
Cu588  Cu    0.22623   0.50561   0.75565   0.00000  Uiso   1.00
H589   H     0.31628   0.55134   0.59921   0.00000  Uiso   1.00
H590   H     0.22793   0.34571   0.76577   0.00000  Uiso   1.00
H591   H     0.05751   0.66236   0.70701   0.00000  Uiso   1.00
H592   H     0.00363   0.53938   0.78969   0.00000  Uiso   1.00
H593   H     0.32969   0.46063   0.71031   0.00000  Uiso   1.00
H594   H     0.30017   0.59553   0.93794   0.00000  Uiso   1.00
H595   H     0.00603   0.57947   0.51094   0.00000  Uiso   1.00
H596   H     0.13191   0.46851   0.58470   0.00000  Uiso   1.00
H597   H     0.01770   0.45498   0.89902   0.00000  Uiso   1.00
H598   H     0.06166   0.45468   0.54381   0.00000  Uiso   1.00
H599   H     0.32068   0.43297   0.98912   0.00000  Uiso   1.00
N600   N     0.31574   0.51407   0.76416   0.00000  Uiso   1.00
N601   N     0.01759   0.48593   0.73584   0.00000  Uiso   1.00
N602   N     0.22008   0.62812   0.85618   0.00000  Uiso   1.00
O603   O     0.12797   0.57141   0.74633   0.00000  Uiso   1.00
O604   O     0.22858   0.58089   0.75586   0.00000  Uiso   1.00
O605   O     0.09181   0.49293   0.81840   0.00000  Uiso   1.00
O606   O     0.19242   0.50241   0.82793   0.00000  Uiso   1.00
O607   O     0.10476   0.41911   0.74414   0.00000  Uiso   1.00
O608   O     0.20536   0.42859   0.75367   0.00000  Uiso   1.00
O609   O     0.14092   0.49759   0.67207   0.00000  Uiso   1.00
O610   O     0.24152   0.50707   0.68160   0.00000  Uiso   1.00
O611   O     0.11639   0.61969   0.66767   0.00000  Uiso   1.00
C612   C     0.51596   0.59993   0.74870   0.00000  Uiso   1.00
C613   C     0.44516   0.49835   0.90344   0.00000  Uiso   1.00
C614   C     0.52383   0.65586   0.74821   0.00000  Uiso   1.00
C615   C     0.46642   0.49951   0.84729   0.00000  Uiso   1.00
C616   C     0.48242   0.34499   0.73325   0.00000  Uiso   1.00
C617   C     0.48627   0.40010   0.74502   0.00000  Uiso   1.00
C618   C     0.53385   0.50290   0.65288   0.00000  Uiso   1.00
C619   C     0.62692   0.55510   0.52623   0.00000  Uiso   1.00
C620   C     0.55430   0.50960   0.59760   0.00000  Uiso   1.00
C621   C     0.38456   0.46933   0.92337   0.00000  Uiso   1.00
C622   C     0.36753   0.45567   0.97423   0.00000  Uiso   1.00
C623   C     0.47295   0.49855   0.98706   0.00000  Uiso   1.00
C624   C     0.41141   0.46847   0.50541   0.00000  Uiso   1.00
C625   C     0.43612   0.65150   0.70177   0.00000  Uiso   1.00
C626   C     0.54879   0.59608   0.88500   0.00000  Uiso   1.00
C627   C     0.48750   0.51816   0.93680   0.00000  Uiso   1.00
C628   C     0.52006   0.51077   0.51724   0.00000  Uiso   1.00
C629   C     0.57974   0.54310   0.99733   0.00000  Uiso   1.00
C630   C     0.59017   0.56672   0.95062   0.00000  Uiso   1.00
C631   C     0.54333   0.55737   0.92219   0.00000  Uiso   1.00
C632   C     0.50935   0.49317   0.56723   0.00000  Uiso   1.00
C633   C     0.61415   0.53866   0.57631   0.00000  Uiso   1.00
Cu634  Cu    0.44043   0.49439   0.74436   0.00000  Uiso   1.00
Cu635  Cu    0.55957   0.50561   0.75565   0.00000  Uiso   1.00
H636   H     0.64961   0.55134   0.59921   0.00000  Uiso   1.00
H637   H     0.56126   0.34571   0.76577   0.00000  Uiso   1.00
H638   H     0.39085   0.66236   0.70701   0.00000  Uiso   1.00
H639   H     0.33697   0.53938   0.78969   0.00000  Uiso   1.00
H640   H     0.66303   0.46063   0.71031   0.00000  Uiso   1.00
H641   H     0.63350   0.59553   0.93794   0.00000  Uiso   1.00
H642   H     0.33936   0.57947   0.51094   0.00000  Uiso   1.00
H643   H     0.46524   0.46851   0.58470   0.00000  Uiso   1.00
H644   H     0.35104   0.45498   0.89902   0.00000  Uiso   1.00
H645   H     0.39499   0.45468   0.54381   0.00000  Uiso   1.00
H646   H     0.65401   0.43297   0.98912   0.00000  Uiso   1.00
N647   N     0.64908   0.51407   0.76416   0.00000  Uiso   1.00
N648   N     0.35092   0.48593   0.73584   0.00000  Uiso   1.00
N649   N     0.55341   0.62812   0.85618   0.00000  Uiso   1.00
O650   O     0.46131   0.57141   0.74633   0.00000  Uiso   1.00
O651   O     0.56191   0.58089   0.75586   0.00000  Uiso   1.00
O652   O     0.42515   0.49293   0.81840   0.00000  Uiso   1.00
O653   O     0.52575   0.50241   0.82793   0.00000  Uiso   1.00
O654   O     0.43809   0.41911   0.74414   0.00000  Uiso   1.00
O655   O     0.53869   0.42859   0.75367   0.00000  Uiso   1.00
O656   O     0.47425   0.49759   0.67207   0.00000  Uiso   1.00
O657   O     0.57485   0.50707   0.68160   0.00000  Uiso   1.00
O658   O     0.44972   0.61969   0.66767   0.00000  Uiso   1.00
C659   C     0.84930   0.59993   0.74870   0.00000  Uiso   1.00
C660   C     0.77850   0.49835   0.90344   0.00000  Uiso   1.00
C661   C     0.85716   0.65586   0.74821   0.00000  Uiso   1.00
C662   C     0.79975   0.49951   0.84729   0.00000  Uiso   1.00
C663   C     0.81575   0.34499   0.73325   0.00000  Uiso   1.00
C664   C     0.81960   0.40010   0.74502   0.00000  Uiso   1.00
C665   C     0.86719   0.50290   0.65288   0.00000  Uiso   1.00
C666   C     0.96025   0.55510   0.52623   0.00000  Uiso   1.00
C667   C     0.88764   0.50960   0.59760   0.00000  Uiso   1.00
C668   C     0.71789   0.46933   0.92337   0.00000  Uiso   1.00
C669   C     0.70087   0.45567   0.97423   0.00000  Uiso   1.00
C670   C     0.80629   0.49855   0.98706   0.00000  Uiso   1.00
C671   C     0.74474   0.46847   0.50541   0.00000  Uiso   1.00
C672   C     0.76945   0.65150   0.70177   0.00000  Uiso   1.00
C673   C     0.88212   0.59608   0.88500   0.00000  Uiso   1.00
C674   C     0.82083   0.51816   0.93680   0.00000  Uiso   1.00
C675   C     0.85339   0.51077   0.51724   0.00000  Uiso   1.00
C676   C     0.91307   0.54310   0.99733   0.00000  Uiso   1.00
C677   C     0.92350   0.56672   0.95062   0.00000  Uiso   1.00
C678   C     0.87666   0.55737   0.92219   0.00000  Uiso   1.00
C679   C     0.84268   0.49317   0.56723   0.00000  Uiso   1.00
C680   C     0.94749   0.53866   0.57631   0.00000  Uiso   1.00
Cu681  Cu    0.77377   0.49439   0.74436   0.00000  Uiso   1.00
Cu682  Cu    0.89290   0.50561   0.75565   0.00000  Uiso   1.00
H683   H     0.98295   0.55134   0.59921   0.00000  Uiso   1.00
H684   H     0.89460   0.34571   0.76577   0.00000  Uiso   1.00
H685   H     0.72418   0.66236   0.70701   0.00000  Uiso   1.00
H686   H     0.67030   0.53938   0.78969   0.00000  Uiso   1.00
H687   H     0.99636   0.46063   0.71031   0.00000  Uiso   1.00
H688   H     0.96683   0.59553   0.93794   0.00000  Uiso   1.00
H689   H     0.67270   0.57947   0.51094   0.00000  Uiso   1.00
H690   H     0.79858   0.46851   0.58470   0.00000  Uiso   1.00
H691   H     0.68437   0.45498   0.89902   0.00000  Uiso   1.00
H692   H     0.72833   0.45468   0.54381   0.00000  Uiso   1.00
H693   H     0.98734   0.43297   0.98912   0.00000  Uiso   1.00
N694   N     0.98241   0.51407   0.76416   0.00000  Uiso   1.00
N695   N     0.68426   0.48593   0.73584   0.00000  Uiso   1.00
N696   N     0.88674   0.62812   0.85618   0.00000  Uiso   1.00
O697   O     0.79464   0.57141   0.74633   0.00000  Uiso   1.00
O698   O     0.89524   0.58089   0.75586   0.00000  Uiso   1.00
O699   O     0.75848   0.49293   0.81840   0.00000  Uiso   1.00
O700   O     0.85908   0.50241   0.82793   0.00000  Uiso   1.00
O701   O     0.77142   0.41911   0.74414   0.00000  Uiso   1.00
O702   O     0.87203   0.42859   0.75367   0.00000  Uiso   1.00
O703   O     0.80758   0.49759   0.67207   0.00000  Uiso   1.00
O704   O     0.90819   0.50707   0.68160   0.00000  Uiso   1.00
O705   O     0.78305   0.61969   0.66767   0.00000  Uiso   1.00
C706   C     0.18263   0.93327   0.74870   0.00000  Uiso   1.00
C707   C     0.11183   0.83168   0.90344   0.00000  Uiso   1.00
C708   C     0.19050   0.98919   0.74821   0.00000  Uiso   1.00
C709   C     0.13309   0.83285   0.84729   0.00000  Uiso   1.00
C710   C     0.14908   0.67832   0.73325   0.00000  Uiso   1.00
C711   C     0.15293   0.73344   0.74502   0.00000  Uiso   1.00
C712   C     0.20052   0.83623   0.65288   0.00000  Uiso   1.00
C713   C     0.29358   0.88844   0.52623   0.00000  Uiso   1.00
C714   C     0.22097   0.84294   0.59760   0.00000  Uiso   1.00
C715   C     0.05122   0.80266   0.92337   0.00000  Uiso   1.00
C716   C     0.03420   0.78900   0.97423   0.00000  Uiso   1.00
C717   C     0.13962   0.83189   0.98706   0.00000  Uiso   1.00
C718   C     0.07807   0.80180   0.50541   0.00000  Uiso   1.00
C719   C     0.10279   0.98483   0.70177   0.00000  Uiso   1.00
C720   C     0.21546   0.92941   0.88500   0.00000  Uiso   1.00
C721   C     0.15417   0.85150   0.93680   0.00000  Uiso   1.00
C722   C     0.18672   0.84410   0.51724   0.00000  Uiso   1.00
C723   C     0.24640   0.87643   0.99733   0.00000  Uiso   1.00
C724   C     0.25683   0.90005   0.95062   0.00000  Uiso   1.00
C725   C     0.20999   0.89070   0.92219   0.00000  Uiso   1.00
C726   C     0.17601   0.82651   0.56723   0.00000  Uiso   1.00
C727   C     0.28082   0.87199   0.57631   0.00000  Uiso   1.00
Cu728  Cu    0.10710   0.82772   0.74436   0.00000  Uiso   1.00
Cu729  Cu    0.22623   0.83895   0.75565   0.00000  Uiso   1.00
H730   H     0.31628   0.88467   0.59921   0.00000  Uiso   1.00
H731   H     0.22793   0.67904   0.76577   0.00000  Uiso   1.00
H732   H     0.05751   0.99570   0.70701   0.00000  Uiso   1.00
H733   H     0.00363   0.87272   0.78969   0.00000  Uiso   1.00
H734   H     0.32969   0.79396   0.71031   0.00000  Uiso   1.00
H735   H     0.30017   0.92886   0.93794   0.00000  Uiso   1.00
H736   H     0.00603   0.91280   0.51094   0.00000  Uiso   1.00
H737   H     0.13191   0.80185   0.58470   0.00000  Uiso   1.00
H738   H     0.01770   0.78831   0.89902   0.00000  Uiso   1.00
H739   H     0.06166   0.78801   0.54381   0.00000  Uiso   1.00
H740   H     0.32068   0.76630   0.98912   0.00000  Uiso   1.00
N741   N     0.31574   0.84741   0.76416   0.00000  Uiso   1.00
N742   N     0.01759   0.81926   0.73584   0.00000  Uiso   1.00
N743   N     0.22008   0.96145   0.85618   0.00000  Uiso   1.00
O744   O     0.12797   0.90474   0.74633   0.00000  Uiso   1.00
O745   O     0.22858   0.91422   0.75586   0.00000  Uiso   1.00
O746   O     0.09181   0.82627   0.81840   0.00000  Uiso   1.00
O747   O     0.19242   0.83575   0.82793   0.00000  Uiso   1.00
O748   O     0.10476   0.75245   0.74414   0.00000  Uiso   1.00
O749   O     0.20536   0.76193   0.75367   0.00000  Uiso   1.00
O750   O     0.14092   0.83092   0.67207   0.00000  Uiso   1.00
O751   O     0.24152   0.84040   0.68160   0.00000  Uiso   1.00
O752   O     0.11639   0.95302   0.66767   0.00000  Uiso   1.00
C753   C     0.51596   0.93327   0.74870   0.00000  Uiso   1.00
C754   C     0.44516   0.83168   0.90344   0.00000  Uiso   1.00
C755   C     0.52383   0.98919   0.74821   0.00000  Uiso   1.00
C756   C     0.46642   0.83285   0.84729   0.00000  Uiso   1.00
C757   C     0.48242   0.67832   0.73325   0.00000  Uiso   1.00
C758   C     0.48627   0.73344   0.74502   0.00000  Uiso   1.00
C759   C     0.53385   0.83623   0.65288   0.00000  Uiso   1.00
C760   C     0.62692   0.88844   0.52623   0.00000  Uiso   1.00
C761   C     0.55430   0.84294   0.59760   0.00000  Uiso   1.00
C762   C     0.38456   0.80266   0.92337   0.00000  Uiso   1.00
C763   C     0.36753   0.78900   0.97423   0.00000  Uiso   1.00
C764   C     0.47295   0.83189   0.98706   0.00000  Uiso   1.00
C765   C     0.41141   0.80180   0.50541   0.00000  Uiso   1.00
C766   C     0.43612   0.98483   0.70177   0.00000  Uiso   1.00
C767   C     0.54879   0.92941   0.88500   0.00000  Uiso   1.00
C768   C     0.48750   0.85150   0.93680   0.00000  Uiso   1.00
C769   C     0.52006   0.84410   0.51724   0.00000  Uiso   1.00
C770   C     0.57974   0.87643   0.99733   0.00000  Uiso   1.00
C771   C     0.59017   0.90005   0.95062   0.00000  Uiso   1.00
C772   C     0.54333   0.89070   0.92219   0.00000  Uiso   1.00
C773   C     0.50935   0.82651   0.56723   0.00000  Uiso   1.00
C774   C     0.61415   0.87199   0.57631   0.00000  Uiso   1.00
Cu775  Cu    0.44043   0.82772   0.74436   0.00000  Uiso   1.00
Cu776  Cu    0.55957   0.83895   0.75565   0.00000  Uiso   1.00
H777   H     0.64961   0.88467   0.59921   0.00000  Uiso   1.00
H778   H     0.56126   0.67904   0.76577   0.00000  Uiso   1.00
H779   H     0.39085   0.99570   0.70701   0.00000  Uiso   1.00
H780   H     0.33697   0.87272   0.78969   0.00000  Uiso   1.00
H781   H     0.66303   0.79396   0.71031   0.00000  Uiso   1.00
H782   H     0.63350   0.92886   0.93794   0.00000  Uiso   1.00
H783   H     0.33936   0.91280   0.51094   0.00000  Uiso   1.00
H784   H     0.46524   0.80185   0.58470   0.00000  Uiso   1.00
H785   H     0.35104   0.78831   0.89902   0.00000  Uiso   1.00
H786   H     0.39499   0.78801   0.54381   0.00000  Uiso   1.00
H787   H     0.65401   0.76630   0.98912   0.00000  Uiso   1.00
N788   N     0.64908   0.84741   0.76416   0.00000  Uiso   1.00
N789   N     0.35092   0.81926   0.73584   0.00000  Uiso   1.00
N790   N     0.55341   0.96145   0.85618   0.00000  Uiso   1.00
O791   O     0.46131   0.90474   0.74633   0.00000  Uiso   1.00
O792   O     0.56191   0.91422   0.75586   0.00000  Uiso   1.00
O793   O     0.42515   0.82627   0.81840   0.00000  Uiso   1.00
O794   O     0.52575   0.83575   0.82793   0.00000  Uiso   1.00
O795   O     0.43809   0.75245   0.74414   0.00000  Uiso   1.00
O796   O     0.53869   0.76193   0.75367   0.00000  Uiso   1.00
O797   O     0.47425   0.83092   0.67207   0.00000  Uiso   1.00
O798   O     0.57485   0.84040   0.68160   0.00000  Uiso   1.00
O799   O     0.44972   0.95302   0.66767   0.00000  Uiso   1.00
C800   C     0.84930   0.93327   0.74870   0.00000  Uiso   1.00
C801   C     0.77850   0.83168   0.90344   0.00000  Uiso   1.00
C802   C     0.85716   0.98919   0.74821   0.00000  Uiso   1.00
C803   C     0.79975   0.83285   0.84729   0.00000  Uiso   1.00
C804   C     0.81575   0.67832   0.73325   0.00000  Uiso   1.00
C805   C     0.81960   0.73344   0.74502   0.00000  Uiso   1.00
C806   C     0.86719   0.83623   0.65288   0.00000  Uiso   1.00
C807   C     0.96025   0.88844   0.52623   0.00000  Uiso   1.00
C808   C     0.88764   0.84294   0.59760   0.00000  Uiso   1.00
C809   C     0.71789   0.80266   0.92337   0.00000  Uiso   1.00
C810   C     0.70087   0.78900   0.97423   0.00000  Uiso   1.00
C811   C     0.80629   0.83189   0.98706   0.00000  Uiso   1.00
C812   C     0.74474   0.80180   0.50541   0.00000  Uiso   1.00
C813   C     0.76945   0.98483   0.70177   0.00000  Uiso   1.00
C814   C     0.88212   0.92941   0.88500   0.00000  Uiso   1.00
C815   C     0.82083   0.85150   0.93680   0.00000  Uiso   1.00
C816   C     0.85339   0.84410   0.51724   0.00000  Uiso   1.00
C817   C     0.91307   0.87643   0.99733   0.00000  Uiso   1.00
C818   C     0.92350   0.90005   0.95062   0.00000  Uiso   1.00
C819   C     0.87666   0.89070   0.92219   0.00000  Uiso   1.00
C820   C     0.84268   0.82651   0.56723   0.00000  Uiso   1.00
C821   C     0.94749   0.87199   0.57631   0.00000  Uiso   1.00
Cu822  Cu    0.77377   0.82772   0.74436   0.00000  Uiso   1.00
Cu823  Cu    0.89290   0.83895   0.75565   0.00000  Uiso   1.00
H824   H     0.98295   0.88467   0.59921   0.00000  Uiso   1.00
H825   H     0.89460   0.67904   0.76577   0.00000  Uiso   1.00
H826   H     0.72418   0.99570   0.70701   0.00000  Uiso   1.00
H827   H     0.67030   0.87272   0.78969   0.00000  Uiso   1.00
H828   H     0.99636   0.79396   0.71031   0.00000  Uiso   1.00
H829   H     0.96683   0.92886   0.93794   0.00000  Uiso   1.00
H830   H     0.67270   0.91280   0.51094   0.00000  Uiso   1.00
H831   H     0.79858   0.80185   0.58470   0.00000  Uiso   1.00
H832   H     0.68437   0.78831   0.89902   0.00000  Uiso   1.00
H833   H     0.72833   0.78801   0.54381   0.00000  Uiso   1.00
H834   H     0.98734   0.76630   0.98912   0.00000  Uiso   1.00
N835   N     0.98241   0.84741   0.76416   0.00000  Uiso   1.00
N836   N     0.68426   0.81926   0.73584   0.00000  Uiso   1.00
N837   N     0.88674   0.96145   0.85618   0.00000  Uiso   1.00
O838   O     0.79464   0.90474   0.74633   0.00000  Uiso   1.00
O839   O     0.89524   0.91422   0.75586   0.00000  Uiso   1.00
O840   O     0.75848   0.82627   0.81840   0.00000  Uiso   1.00
O841   O     0.85908   0.83575   0.82793   0.00000  Uiso   1.00
O842   O     0.77142   0.75245   0.74414   0.00000  Uiso   1.00
O843   O     0.87203   0.76193   0.75367   0.00000  Uiso   1.00
O844   O     0.80758   0.83092   0.67207   0.00000  Uiso   1.00
O845   O     0.90819   0.84040   0.68160   0.00000  Uiso   1.00
O846   O     0.78305   0.95302   0.66767   0.00000  Uiso   1.00
loop_
_geom_bond_atom_site_label_1
_geom_bond_atom_site_label_2
_geom_bond_distance
_geom_bond_site_symmetry_2
_ccdc_geom_bond_type
C1     O39     1.287   .     A
C1     O40     1.290   .     A
C1     C3      1.432   .     S
C2     C16     1.427   .     A
C2     C4      1.477   .     S
C2     C10     1.401   .     A
C3     C146    1.342   .     S
C3     H167    1.087   .     S
C4     O42     1.296   .     A
C4     O41     1.302   .     A
C5     C6      1.437   .     S
C5     C285    1.342   1_545 S
C5     C296    1.493   1_545 S
C6     O44     1.292   .     A
C6     O43     1.286   .     A
C7     O45     1.294   .     A
C7     O46     1.300   .     A
C7     C9      1.465   .     S
C8     C22     1.392   .     A
C8     C441    1.405   1_554 S
C8     H78     1.084   .     S
C9     C21     1.400   .     A
C9     C22     1.397   .     A
C10    H33     1.083   .     S
C10    C11     1.386   .     A
C11    C436    1.390   .     S
C11    H129    1.083   1_455 S
C12    C16     1.423   .     A
C12    C436    1.419   .     S
C12    C440    1.428   .     S
C13    H34     1.076   .     S
C13    C434    1.390   1_554 S
C13    C435    1.419   1_554 S
C14    O47     1.222   .     D
C14    H27     1.085   .     S
C14    C146    1.493   .     S
C15    N38     1.156   .     T
C15    C20     1.443   .     S
C16    C20     1.421   .     A
C17    C21     1.405   .     A
C17    C435    1.428   1_554 S
C17    C441    1.419   1_554 S
C18    C19     1.390   .     A
C18    C440    1.419   .     S
C18    C431    1.405   .     S
C19    C20     1.391   .     A
C19    H30     1.086   .     S
C21    H32     1.076   .     S
C22    H25     1.083   .     S
Cu23   Cu24    2.684   .     S
Cu23   O45     1.921   .     S
Cu23   O41     1.942   .     S
Cu23   O43     1.955   .     S
Cu23   O39     1.959   .     S
Cu23   N37     2.017   .     S
Cu24   O46     1.942   .     S
Cu24   N36     2.017   .     S
Cu24   O40     1.955   .     S
Cu24   O44     1.959   .     S
Cu24   O42     1.921   .     S
H26    C285    1.087   1_545 S
H28    N130    1.029   1_455 S
H29    N84     1.029   .     S
H31    C102    1.084   1_455 S
H35    C58     1.083   .     S
N36    H75     1.029   .     S
N36    N84     1.282   .     S
N37    N130    1.282   1_455 S
N37    H123    1.029   1_455 S
C48    O86     1.287   .     A
C48    O87     1.290   .     A
C48    C50     1.432   .     S
C49    C63     1.427   .     A
C49    C51     1.477   .     S
C49    C57     1.401   .     A
C50    C193    1.342   .     S
C50    H214    1.087   .     S
C51    O89     1.296   .     A
C51    O88     1.302   .     A
C52    C53     1.437   .     S
C52    C332    1.342   1_545 S
C52    C343    1.493   1_545 S
C53    O91     1.292   .     A
C53    O90     1.286   .     A
C54    O92     1.294   .     A
C54    O93     1.300   .     A
C54    C56     1.465   .     S
C55    C69     1.392   .     A
C55    C488    1.405   1_554 S
C55    H125    1.084   .     S
C56    C68     1.400   .     A
C56    C69     1.397   .     A
C57    H80     1.083   .     S
C57    C58     1.386   .     A
C58    C483    1.390   .     S
C59    C63     1.423   .     A
C59    C483    1.419   .     S
C59    C487    1.428   .     S
C60    H81     1.076   .     S
C60    C481    1.390   1_554 S
C60    C482    1.419   1_554 S
C61    O94     1.222   .     D
C61    H74     1.085   .     S
C61    C193    1.493   .     S
C62    N85     1.156   .     T
C62    C67     1.443   .     S
C63    C67     1.421   .     A
C64    C68     1.405   .     A
C64    C482    1.428   1_554 S
C64    C488    1.419   1_554 S
C65    C66     1.390   .     A
C65    C487    1.419   .     S
C65    C478    1.405   .     S
C66    C67     1.391   .     A
C66    H77     1.086   .     S
C68    H79     1.076   .     S
C69    H72     1.083   .     S
Cu70   Cu71    2.684   .     S
Cu70   O92     1.921   .     S
Cu70   O88     1.942   .     S
Cu70   O90     1.955   .     S
Cu70   O86     1.959   .     S
Cu70   N84     2.017   .     S
Cu71   O93     1.942   .     S
Cu71   N83     2.017   .     S
Cu71   O87     1.955   .     S
Cu71   O91     1.959   .     S
Cu71   O89     1.921   .     S
H73    C332    1.087   1_545 S
H76    N131    1.029   .     S
H82    C105    1.083   .     S
N83    H122    1.029   .     S
N83    N131    1.282   .     S
C95    O133    1.287   .     A
C95    O134    1.290   .     A
C95    C97     1.432   .     S
C96    C110    1.427   .     A
C96    C98     1.477   .     S
C96    C104    1.401   .     A
C97    C240    1.342   .     S
C97    H261    1.087   .     S
C98    O136    1.296   .     A
C98    O135    1.302   .     A
C99    C100    1.437   .     S
C99    C379    1.342   1_545 S
C99    C390    1.493   1_545 S
C100   O138    1.292   .     A
C100   O137    1.286   .     A
C101   O139    1.294   .     A
C101   O140    1.300   .     A
C101   C103    1.465   .     S
C102   C116    1.392   .     A
C102   C535    1.405   1_554 S
C102   H31     1.084   1_655 S
C103   C115    1.400   .     A
C103   C116    1.397   .     A
C104   H127    1.083   .     S
C104   C105    1.386   .     A
C105   C530    1.390   .     S
C106   C110    1.423   .     A
C106   C530    1.419   .     S
C106   C534    1.428   .     S
C107   H128    1.076   .     S
C107   C528    1.390   1_554 S
C107   C529    1.419   1_554 S
C108   O141    1.222   .     D
C108   H121    1.085   .     S
C108   C240    1.493   .     S
C109   N132    1.156   .     T
C109   C114    1.443   .     S
C110   C114    1.421   .     A
C111   C115    1.405   .     A
C111   C529    1.428   1_554 S
C111   C535    1.419   1_554 S
C112   C113    1.390   .     A
C112   C534    1.419   .     S
C112   C525    1.405   .     S
C113   C114    1.391   .     A
C113   H124    1.086   .     S
C115   H126    1.076   .     S
C116   H119    1.083   .     S
Cu117  Cu118   2.684   .     S
Cu117  O139    1.921   .     S
Cu117  O135    1.942   .     S
Cu117  O137    1.955   .     S
Cu117  O133    1.959   .     S
Cu117  N131    2.017   .     S
Cu118  O140    1.942   .     S
Cu118  N130    2.017   .     S
Cu118  O134    1.955   .     S
Cu118  O138    1.959   .     S
Cu118  O136    1.921   .     S
H120   C379    1.087   1_545 S
H123   N37     1.029   1_655 S
H129   C11     1.083   1_655 S
N130   H28     1.029   1_655 S
N130   N37     1.282   1_655 S
C142   O180    1.287   .     A
C142   O181    1.290   .     A
C142   C144    1.432   .     S
C143   C157    1.427   .     A
C143   C145    1.477   .     S
C143   C151    1.401   .     A
C144   C287    1.342   .     S
C144   H308    1.087   .     S
C145   O183    1.296   .     A
C145   O182    1.302   .     A
C146   C147    1.437   .     S
C147   O185    1.292   .     A
C147   O184    1.286   .     A
C148   O186    1.294   .     A
C148   O187    1.300   .     A
C148   C150    1.465   .     S
C149   C163    1.392   .     A
C149   C582    1.405   1_554 S
C149   H219    1.084   .     S
C150   C162    1.400   .     A
C150   C163    1.397   .     A
C151   H174    1.083   .     S
C151   C152    1.386   .     A
C152   C577    1.390   .     S
C152   H270    1.083   1_455 S
C153   C157    1.423   .     A
C153   C577    1.419   .     S
C153   C581    1.428   .     S
C154   H175    1.076   .     S
C154   C575    1.390   1_554 S
C154   C576    1.419   1_554 S
C155   O188    1.222   .     D
C155   H168    1.085   .     S
C155   C287    1.493   .     S
C156   N179    1.156   .     T
C156   C161    1.443   .     S
C157   C161    1.421   .     A
C158   C162    1.405   .     A
C158   C576    1.428   1_554 S
C158   C582    1.419   1_554 S
C159   C160    1.390   .     A
C159   C581    1.419   .     S
C159   C572    1.405   .     S
C160   C161    1.391   .     A
C160   H171    1.086   .     S
C162   H173    1.076   .     S
C163   H166    1.083   .     S
Cu164  Cu165   2.684   .     S
Cu164  O186    1.921   .     S
Cu164  O182    1.942   .     S
Cu164  O184    1.955   .     S
Cu164  O180    1.959   .     S
Cu164  N178    2.017   .     S
Cu165  O187    1.942   .     S
Cu165  N177    2.017   .     S
Cu165  O181    1.955   .     S
Cu165  O185    1.959   .     S
Cu165  O183    1.921   .     S
H169   N271    1.029   1_455 S
H170   N225    1.029   .     S
H172   C243    1.084   1_455 S
H176   C199    1.083   .     S
N177   H216    1.029   .     S
N177   N225    1.282   .     S
N178   N271    1.282   1_455 S
N178   H264    1.029   1_455 S
C189   O227    1.287   .     A
C189   O228    1.290   .     A
C189   C191    1.432   .     S
C190   C204    1.427   .     A
C190   C192    1.477   .     S
C190   C198    1.401   .     A
C191   C334    1.342   .     S
C191   H355    1.087   .     S
C192   O230    1.296   .     A
C192   O229    1.302   .     A
C193   C194    1.437   .     S
C194   O232    1.292   .     A
C194   O231    1.286   .     A
C195   O233    1.294   .     A
C195   O234    1.300   .     A
C195   C197    1.465   .     S
C196   C210    1.392   .     A
C196   C629    1.405   1_554 S
C196   H266    1.084   .     S
C197   C209    1.400   .     A
C197   C210    1.397   .     A
C198   H221    1.083   .     S
C198   C199    1.386   .     A
C199   C624    1.390   .     S
C200   C204    1.423   .     A
C200   C624    1.419   .     S
C200   C628    1.428   .     S
C201   H222    1.076   .     S
C201   C622    1.390   1_554 S
C201   C623    1.419   1_554 S
C202   O235    1.222   .     D
C202   H215    1.085   .     S
C202   C334    1.493   .     S
C203   N226    1.156   .     T
C203   C208    1.443   .     S
C204   C208    1.421   .     A
C205   C209    1.405   .     A
C205   C623    1.428   1_554 S
C205   C629    1.419   1_554 S
C206   C207    1.390   .     A
C206   C628    1.419   .     S
C206   C619    1.405   .     S
C207   C208    1.391   .     A
C207   H218    1.086   .     S
C209   H220    1.076   .     S
C210   H213    1.083   .     S
Cu211  Cu212   2.684   .     S
Cu211  O233    1.921   .     S
Cu211  O229    1.942   .     S
Cu211  O231    1.955   .     S
Cu211  O227    1.959   .     S
Cu211  N225    2.017   .     S
Cu212  O234    1.942   .     S
Cu212  N224    2.017   .     S
Cu212  O228    1.955   .     S
Cu212  O232    1.959   .     S
Cu212  O230    1.921   .     S
H217   N272    1.029   .     S
H223   C246    1.083   .     S
N224   H263    1.029   .     S
N224   N272    1.282   .     S
C236   O274    1.287   .     A
C236   O275    1.290   .     A
C236   C238    1.432   .     S
C237   C251    1.427   .     A
C237   C239    1.477   .     S
C237   C245    1.401   .     A
C238   C381    1.342   .     S
C238   H402    1.087   .     S
C239   O277    1.296   .     A
C239   O276    1.302   .     A
C240   C241    1.437   .     S
C241   O279    1.292   .     A
C241   O278    1.286   .     A
C242   O280    1.294   .     A
C242   O281    1.300   .     A
C242   C244    1.465   .     S
C243   C257    1.392   .     A
C243   C676    1.405   1_554 S
C243   H172    1.084   1_655 S
C244   C256    1.400   .     A
C244   C257    1.397   .     A
C245   H268    1.083   .     S
C245   C246    1.386   .     A
C246   C671    1.390   .     S
C247   C251    1.423   .     A
C247   C671    1.419   .     S
C247   C675    1.428   .     S
C248   H269    1.076   .     S
C248   C669    1.390   1_554 S
C248   C670    1.419   1_554 S
C249   O282    1.222   .     D
C249   H262    1.085   .     S
C249   C381    1.493   .     S
C250   N273    1.156   .     T
C250   C255    1.443   .     S
C251   C255    1.421   .     A
C252   C256    1.405   .     A
C252   C670    1.428   1_554 S
C252   C676    1.419   1_554 S
C253   C254    1.390   .     A
C253   C675    1.419   .     S
C253   C666    1.405   .     S
C254   C255    1.391   .     A
C254   H265    1.086   .     S
C256   H267    1.076   .     S
C257   H260    1.083   .     S
Cu258  Cu259   2.684   .     S
Cu258  O280    1.921   .     S
Cu258  O276    1.942   .     S
Cu258  O278    1.955   .     S
Cu258  O274    1.959   .     S
Cu258  N272    2.017   .     S
Cu259  O281    1.942   .     S
Cu259  N271    2.017   .     S
Cu259  O275    1.955   .     S
Cu259  O279    1.959   .     S
Cu259  O277    1.921   .     S
H264   N178    1.029   1_655 S
H270   C152    1.083   1_655 S
N271   H169    1.029   1_655 S
N271   N178    1.282   1_655 S
C283   O321    1.287   .     A
C283   O322    1.290   .     A
C283   C285    1.432   .     S
C284   C298    1.427   .     A
C284   C286    1.477   .     S
C284   C292    1.401   .     A
C285   C5      1.342   1_565 S
C285   H26     1.087   1_565 S
C286   O324    1.296   .     A
C286   O323    1.302   .     A
C287   C288    1.437   .     S
C288   O326    1.292   .     A
C288   O325    1.286   .     A
C289   O327    1.294   .     A
C289   O328    1.300   .     A
C289   C291    1.465   .     S
C290   C304    1.392   .     A
C290   C723    1.405   1_554 S
C290   H360    1.084   .     S
C291   C303    1.400   .     A
C291   C304    1.397   .     A
C292   H315    1.083   .     S
C292   C293    1.386   .     A
C293   C718    1.390   .     S
C293   H411    1.083   1_455 S
C294   C298    1.423   .     A
C294   C718    1.419   .     S
C294   C722    1.428   .     S
C295   H316    1.076   .     S
C295   C716    1.390   1_554 S
C295   C717    1.419   1_554 S
C296   O329    1.222   .     D
C296   H309    1.085   .     S
C296   C5      1.493   1_565 S
C297   N320    1.156   .     T
C297   C302    1.443   .     S
C298   C302    1.421   .     A
C299   C303    1.405   .     A
C299   C717    1.428   1_554 S
C299   C723    1.419   1_554 S
C300   C301    1.390   .     A
C300   C722    1.419   .     S
C300   C713    1.405   .     S
C301   C302    1.391   .     A
C301   H312    1.086   .     S
C303   H314    1.076   .     S
C304   H307    1.083   .     S
Cu305  Cu306   2.684   .     S
Cu305  O327    1.921   .     S
Cu305  O323    1.942   .     S
Cu305  O325    1.955   .     S
Cu305  O321    1.959   .     S
Cu305  N319    2.017   .     S
Cu306  O328    1.942   .     S
Cu306  N318    2.017   .     S
Cu306  O322    1.955   .     S
Cu306  O326    1.959   .     S
Cu306  O324    1.921   .     S
H310   N412    1.029   1_455 S
H311   N366    1.029   .     S
H313   C384    1.084   1_455 S
H317   C340    1.083   .     S
N318   H357    1.029   .     S
N318   N366    1.282   .     S
N319   N412    1.282   1_455 S
N319   H405    1.029   1_455 S
C330   O368    1.287   .     A
C330   O369    1.290   .     A
C330   C332    1.432   .     S
C331   C345    1.427   .     A
C331   C333    1.477   .     S
C331   C339    1.401   .     A
C332   C52     1.342   1_565 S
C332   H73     1.087   1_565 S
C333   O371    1.296   .     A
C333   O370    1.302   .     A
C334   C335    1.437   .     S
C335   O373    1.292   .     A
C335   O372    1.286   .     A
C336   O374    1.294   .     A
C336   O375    1.300   .     A
C336   C338    1.465   .     S
C337   C351    1.392   .     A
C337   C770    1.405   1_554 S
C337   H407    1.084   .     S
C338   C350    1.400   .     A
C338   C351    1.397   .     A
C339   H362    1.083   .     S
C339   C340    1.386   .     A
C340   C765    1.390   .     S
C341   C345    1.423   .     A
C341   C765    1.419   .     S
C341   C769    1.428   .     S
C342   H363    1.076   .     S
C342   C763    1.390   1_554 S
C342   C764    1.419   1_554 S
C343   O376    1.222   .     D
C343   H356    1.085   .     S
C343   C52     1.493   1_565 S
C344   N367    1.156   .     T
C344   C349    1.443   .     S
C345   C349    1.421   .     A
C346   C350    1.405   .     A
C346   C764    1.428   1_554 S
C346   C770    1.419   1_554 S
C347   C348    1.390   .     A
C347   C769    1.419   .     S
C347   C760    1.405   .     S
C348   C349    1.391   .     A
C348   H359    1.086   .     S
C350   H361    1.076   .     S
C351   H354    1.083   .     S
Cu352  Cu353   2.684   .     S
Cu352  O374    1.921   .     S
Cu352  O370    1.942   .     S
Cu352  O372    1.955   .     S
Cu352  O368    1.959   .     S
Cu352  N366    2.017   .     S
Cu353  O375    1.942   .     S
Cu353  N365    2.017   .     S
Cu353  O369    1.955   .     S
Cu353  O373    1.959   .     S
Cu353  O371    1.921   .     S
H358   N413    1.029   .     S
H364   C387    1.083   .     S
N365   H404    1.029   .     S
N365   N413    1.282   .     S
C377   O415    1.287   .     A
C377   O416    1.290   .     A
C377   C379    1.432   .     S
C378   C392    1.427   .     A
C378   C380    1.477   .     S
C378   C386    1.401   .     A
C379   C99     1.342   1_565 S
C379   H120    1.087   1_565 S
C380   O418    1.296   .     A
C380   O417    1.302   .     A
C381   C382    1.437   .     S
C382   O420    1.292   .     A
C382   O419    1.286   .     A
C383   O421    1.294   .     A
C383   O422    1.300   .     A
C383   C385    1.465   .     S
C384   C398    1.392   .     A
C384   C817    1.405   1_554 S
C384   H313    1.084   1_655 S
C385   C397    1.400   .     A
C385   C398    1.397   .     A
C386   H409    1.083   .     S
C386   C387    1.386   .     A
C387   C812    1.390   .     S
C388   C392    1.423   .     A
C388   C812    1.419   .     S
C388   C816    1.428   .     S
C389   H410    1.076   .     S
C389   C810    1.390   1_554 S
C389   C811    1.419   1_554 S
C390   O423    1.222   .     D
C390   H403    1.085   .     S
C390   C99     1.493   1_565 S
C391   N414    1.156   .     T
C391   C396    1.443   .     S
C392   C396    1.421   .     A
C393   C397    1.405   .     A
C393   C811    1.428   1_554 S
C393   C817    1.419   1_554 S
C394   C395    1.390   .     A
C394   C816    1.419   .     S
C394   C807    1.405   .     S
C395   C396    1.391   .     A
C395   H406    1.086   .     S
C397   H408    1.076   .     S
C398   H401    1.083   .     S
Cu399  Cu400   2.684   .     S
Cu399  O421    1.921   .     S
Cu399  O417    1.942   .     S
Cu399  O419    1.955   .     S
Cu399  O415    1.959   .     S
Cu399  N413    2.017   .     S
Cu400  O422    1.942   .     S
Cu400  N412    2.017   .     S
Cu400  O416    1.955   .     S
Cu400  O420    1.959   .     S
Cu400  O418    1.921   .     S
H405   N319    1.029   1_655 S
H411   C293    1.083   1_655 S
N412   H310    1.029   1_655 S
N412   N319    1.282   1_655 S
C424   O462    1.287   .     A
C424   O463    1.290   .     A
C424   C426    1.432   .     S
C425   C439    1.427   .     A
C425   C427    1.477   .     S
C425   C433    1.401   .     A
C426   C569    1.342   .     S
C426   H590    1.087   .     S
C427   O465    1.296   .     A
C427   O464    1.302   .     A
C428   C429    1.437   .     S
C428   C708    1.342   1_545 S
C428   C719    1.493   1_545 S
C429   O467    1.292   .     A
C429   O466    1.286   .     A
C430   O468    1.294   .     A
C430   O469    1.300   .     A
C430   C432    1.465   .     S
C431   C445    1.392   .     A
C431   H501    1.084   .     S
C432   C444    1.400   .     A
C432   C445    1.397   .     A
C433   H456    1.083   .     S
C433   C434    1.386   .     A
C434   C13     1.390   1_556 S
C434   H552    1.083   1_455 S
C435   C439    1.423   .     A
C435   C13     1.419   1_556 S
C435   C17     1.428   1_556 S
C436   H457    1.076   .     S
C437   O470    1.222   .     D
C437   H450    1.085   .     S
C437   C569    1.493   .     S
C438   N461    1.156   .     T
C438   C443    1.443   .     S
C439   C443    1.421   .     A
C440   C444    1.405   .     A
C441   C442    1.390   .     A
C441   C17     1.419   1_556 S
C441   C8      1.405   1_556 S
C442   C443    1.391   .     A
C442   H453    1.086   .     S
C444   H455    1.076   .     S
C445   H448    1.083   .     S
Cu446  Cu447   2.684   .     S
Cu446  O468    1.921   .     S
Cu446  O464    1.942   .     S
Cu446  O466    1.955   .     S
Cu446  O462    1.959   .     S
Cu446  N460    2.017   .     S
Cu447  O469    1.942   .     S
Cu447  N459    2.017   .     S
Cu447  O463    1.955   .     S
Cu447  O467    1.959   .     S
Cu447  O465    1.921   .     S
H449   C708    1.087   1_545 S
H451   N553    1.029   1_455 S
H452   N507    1.029   .     S
H454   C525    1.084   1_455 S
H458   C481    1.083   .     S
N459   H498    1.029   .     S
N459   N507    1.282   .     S
N460   N553    1.282   1_455 S
N460   H546    1.029   1_455 S
C471   O509    1.287   .     A
C471   O510    1.290   .     A
C471   C473    1.432   .     S
C472   C486    1.427   .     A
C472   C474    1.477   .     S
C472   C480    1.401   .     A
C473   C616    1.342   .     S
C473   H637    1.087   .     S
C474   O512    1.296   .     A
C474   O511    1.302   .     A
C475   C476    1.437   .     S
C475   C755    1.342   1_545 S
C475   C766    1.493   1_545 S
C476   O514    1.292   .     A
C476   O513    1.286   .     A
C477   O515    1.294   .     A
C477   O516    1.300   .     A
C477   C479    1.465   .     S
C478   C492    1.392   .     A
C478   H548    1.084   .     S
C479   C491    1.400   .     A
C479   C492    1.397   .     A
C480   H503    1.083   .     S
C480   C481    1.386   .     A
C481   C60     1.390   1_556 S
C482   C486    1.423   .     A
C482   C60     1.419   1_556 S
C482   C64     1.428   1_556 S
C483   H504    1.076   .     S
C484   O517    1.222   .     D
C484   H497    1.085   .     S
C484   C616    1.493   .     S
C485   N508    1.156   .     T
C485   C490    1.443   .     S
C486   C490    1.421   .     A
C487   C491    1.405   .     A
C488   C489    1.390   .     A
C488   C64     1.419   1_556 S
C488   C55     1.405   1_556 S
C489   C490    1.391   .     A
C489   H500    1.086   .     S
C491   H502    1.076   .     S
C492   H495    1.083   .     S
Cu493  Cu494   2.684   .     S
Cu493  O515    1.921   .     S
Cu493  O511    1.942   .     S
Cu493  O513    1.955   .     S
Cu493  O509    1.959   .     S
Cu493  N507    2.017   .     S
Cu494  O516    1.942   .     S
Cu494  N506    2.017   .     S
Cu494  O510    1.955   .     S
Cu494  O514    1.959   .     S
Cu494  O512    1.921   .     S
H496   C755    1.087   1_545 S
H499   N554    1.029   .     S
H505   C528    1.083   .     S
N506   H545    1.029   .     S
N506   N554    1.282   .     S
C518   O556    1.287   .     A
C518   O557    1.290   .     A
C518   C520    1.432   .     S
C519   C533    1.427   .     A
C519   C521    1.477   .     S
C519   C527    1.401   .     A
C520   C663    1.342   .     S
C520   H684    1.087   .     S
C521   O559    1.296   .     A
C521   O558    1.302   .     A
C522   C523    1.437   .     S
C522   C802    1.342   1_545 S
C522   C813    1.493   1_545 S
C523   O561    1.292   .     A
C523   O560    1.286   .     A
C524   O562    1.294   .     A
C524   O563    1.300   .     A
C524   C526    1.465   .     S
C525   C539    1.392   .     A
C525   H454    1.084   1_655 S
C526   C538    1.400   .     A
C526   C539    1.397   .     A
C527   H550    1.083   .     S
C527   C528    1.386   .     A
C528   C107    1.390   1_556 S
C529   C533    1.423   .     A
C529   C107    1.419   1_556 S
C529   C111    1.428   1_556 S
C530   H551    1.076   .     S
C531   O564    1.222   .     D
C531   H544    1.085   .     S
C531   C663    1.493   .     S
C532   N555    1.156   .     T
C532   C537    1.443   .     S
C533   C537    1.421   .     A
C534   C538    1.405   .     A
C535   C536    1.390   .     A
C535   C111    1.419   1_556 S
C535   C102    1.405   1_556 S
C536   C537    1.391   .     A
C536   H547    1.086   .     S
C538   H549    1.076   .     S
C539   H542    1.083   .     S
Cu540  Cu541   2.684   .     S
Cu540  O562    1.921   .     S
Cu540  O558    1.942   .     S
Cu540  O560    1.955   .     S
Cu540  O556    1.959   .     S
Cu540  N554    2.017   .     S
Cu541  O563    1.942   .     S
Cu541  N553    2.017   .     S
Cu541  O557    1.955   .     S
Cu541  O561    1.959   .     S
Cu541  O559    1.921   .     S
H543   C802    1.087   1_545 S
H546   N460    1.029   1_655 S
H552   C434    1.083   1_655 S
N553   H451    1.029   1_655 S
N553   N460    1.282   1_655 S
C565   O603    1.287   .     A
C565   O604    1.290   .     A
C565   C567    1.432   .     S
C566   C580    1.427   .     A
C566   C568    1.477   .     S
C566   C574    1.401   .     A
C567   C710    1.342   .     S
C567   H731    1.087   .     S
C568   O606    1.296   .     A
C568   O605    1.302   .     A
C569   C570    1.437   .     S
C570   O608    1.292   .     A
C570   O607    1.286   .     A
C571   O609    1.294   .     A
C571   O610    1.300   .     A
C571   C573    1.465   .     S
C572   C586    1.392   .     A
C572   H642    1.084   .     S
C573   C585    1.400   .     A
C573   C586    1.397   .     A
C574   H597    1.083   .     S
C574   C575    1.386   .     A
C575   C154    1.390   1_556 S
C575   H693    1.083   1_455 S
C576   C580    1.423   .     A
C576   C154    1.419   1_556 S
C576   C158    1.428   1_556 S
C577   H598    1.076   .     S
C578   O611    1.222   .     D
C578   H591    1.085   .     S
C578   C710    1.493   .     S
C579   N602    1.156   .     T
C579   C584    1.443   .     S
C580   C584    1.421   .     A
C581   C585    1.405   .     A
C582   C583    1.390   .     A
C582   C158    1.419   1_556 S
C582   C149    1.405   1_556 S
C583   C584    1.391   .     A
C583   H594    1.086   .     S
C585   H596    1.076   .     S
C586   H589    1.083   .     S
Cu587  Cu588   2.684   .     S
Cu587  O609    1.921   .     S
Cu587  O605    1.942   .     S
Cu587  O607    1.955   .     S
Cu587  O603    1.959   .     S
Cu587  N601    2.017   .     S
Cu588  O610    1.942   .     S
Cu588  N600    2.017   .     S
Cu588  O604    1.955   .     S
Cu588  O608    1.959   .     S
Cu588  O606    1.921   .     S
H592   N694    1.029   1_455 S
H593   N648    1.029   .     S
H595   C666    1.084   1_455 S
H599   C622    1.083   .     S
N600   H639    1.029   .     S
N600   N648    1.282   .     S
N601   N694    1.282   1_455 S
N601   H687    1.029   1_455 S
C612   O650    1.287   .     A
C612   O651    1.290   .     A
C612   C614    1.432   .     S
C613   C627    1.427   .     A
C613   C615    1.477   .     S
C613   C621    1.401   .     A
C614   C757    1.342   .     S
C614   H778    1.087   .     S
C615   O653    1.296   .     A
C615   O652    1.302   .     A
C616   C617    1.437   .     S
C617   O655    1.292   .     A
C617   O654    1.286   .     A
C618   O656    1.294   .     A
C618   O657    1.300   .     A
C618   C620    1.465   .     S
C619   C633    1.392   .     A
C619   H689    1.084   .     S
C620   C632    1.400   .     A
C620   C633    1.397   .     A
C621   H644    1.083   .     S
C621   C622    1.386   .     A
C622   C201    1.390   1_556 S
C623   C627    1.423   .     A
C623   C201    1.419   1_556 S
C623   C205    1.428   1_556 S
C624   H645    1.076   .     S
C625   O658    1.222   .     D
C625   H638    1.085   .     S
C625   C757    1.493   .     S
C626   N649    1.156   .     T
C626   C631    1.443   .     S
C627   C631    1.421   .     A
C628   C632    1.405   .     A
C629   C630    1.390   .     A
C629   C205    1.419   1_556 S
C629   C196    1.405   1_556 S
C630   C631    1.391   .     A
C630   H641    1.086   .     S
C632   H643    1.076   .     S
C633   H636    1.083   .     S
Cu634  Cu635   2.684   .     S
Cu634  O656    1.921   .     S
Cu634  O652    1.942   .     S
Cu634  O654    1.955   .     S
Cu634  O650    1.959   .     S
Cu634  N648    2.017   .     S
Cu635  O657    1.942   .     S
Cu635  N647    2.017   .     S
Cu635  O651    1.955   .     S
Cu635  O655    1.959   .     S
Cu635  O653    1.921   .     S
H640   N695    1.029   .     S
H646   C669    1.083   .     S
N647   H686    1.029   .     S
N647   N695    1.282   .     S
C659   O697    1.287   .     A
C659   O698    1.290   .     A
C659   C661    1.432   .     S
C660   C674    1.427   .     A
C660   C662    1.477   .     S
C660   C668    1.401   .     A
C661   C804    1.342   .     S
C661   H825    1.087   .     S
C662   O700    1.296   .     A
C662   O699    1.302   .     A
C663   C664    1.437   .     S
C664   O702    1.292   .     A
C664   O701    1.286   .     A
C665   O703    1.294   .     A
C665   O704    1.300   .     A
C665   C667    1.465   .     S
C666   C680    1.392   .     A
C666   H595    1.084   1_655 S
C667   C679    1.400   .     A
C667   C680    1.397   .     A
C668   H691    1.083   .     S
C668   C669    1.386   .     A
C669   C248    1.390   1_556 S
C670   C674    1.423   .     A
C670   C248    1.419   1_556 S
C670   C252    1.428   1_556 S
C671   H692    1.076   .     S
C672   O705    1.222   .     D
C672   H685    1.085   .     S
C672   C804    1.493   .     S
C673   N696    1.156   .     T
C673   C678    1.443   .     S
C674   C678    1.421   .     A
C675   C679    1.405   .     A
C676   C677    1.390   .     A
C676   C252    1.419   1_556 S
C676   C243    1.405   1_556 S
C677   C678    1.391   .     A
C677   H688    1.086   .     S
C679   H690    1.076   .     S
C680   H683    1.083   .     S
Cu681  Cu682   2.684   .     S
Cu681  O703    1.921   .     S
Cu681  O699    1.942   .     S
Cu681  O701    1.955   .     S
Cu681  O697    1.959   .     S
Cu681  N695    2.017   .     S
Cu682  O704    1.942   .     S
Cu682  N694    2.017   .     S
Cu682  O698    1.955   .     S
Cu682  O702    1.959   .     S
Cu682  O700    1.921   .     S
H687   N601    1.029   1_655 S
H693   C575    1.083   1_655 S
N694   H592    1.029   1_655 S
N694   N601    1.282   1_655 S
C706   O744    1.287   .     A
C706   O745    1.290   .     A
C706   C708    1.432   .     S
C707   C721    1.427   .     A
C707   C709    1.477   .     S
C707   C715    1.401   .     A
C708   C428    1.342   1_565 S
C708   H449    1.087   1_565 S
C709   O747    1.296   .     A
C709   O746    1.302   .     A
C710   C711    1.437   .     S
C711   O749    1.292   .     A
C711   O748    1.286   .     A
C712   O750    1.294   .     A
C712   O751    1.300   .     A
C712   C714    1.465   .     S
C713   C727    1.392   .     A
C713   H783    1.084   .     S
C714   C726    1.400   .     A
C714   C727    1.397   .     A
C715   H738    1.083   .     S
C715   C716    1.386   .     A
C716   C295    1.390   1_556 S
C716   H834    1.083   1_455 S
C717   C721    1.423   .     A
C717   C295    1.419   1_556 S
C717   C299    1.428   1_556 S
C718   H739    1.076   .     S
C719   O752    1.222   .     D
C719   H732    1.085   .     S
C719   C428    1.493   1_565 S
C720   N743    1.156   .     T
C720   C725    1.443   .     S
C721   C725    1.421   .     A
C722   C726    1.405   .     A
C723   C724    1.390   .     A
C723   C299    1.419   1_556 S
C723   C290    1.405   1_556 S
C724   C725    1.391   .     A
C724   H735    1.086   .     S
C726   H737    1.076   .     S
C727   H730    1.083   .     S
Cu728  Cu729   2.684   .     S
Cu728  O750    1.921   .     S
Cu728  O746    1.942   .     S
Cu728  O748    1.955   .     S
Cu728  O744    1.959   .     S
Cu728  N742    2.017   .     S
Cu729  O751    1.942   .     S
Cu729  N741    2.017   .     S
Cu729  O745    1.955   .     S
Cu729  O749    1.959   .     S
Cu729  O747    1.921   .     S
H733   N835    1.029   1_455 S
H734   N789    1.029   .     S
H736   C807    1.084   1_455 S
H740   C763    1.083   .     S
N741   H780    1.029   .     S
N741   N789    1.282   .     S
N742   N835    1.282   1_455 S
N742   H828    1.029   1_455 S
C753   O791    1.287   .     A
C753   O792    1.290   .     A
C753   C755    1.432   .     S
C754   C768    1.427   .     A
C754   C756    1.477   .     S
C754   C762    1.401   .     A
C755   C475    1.342   1_565 S
C755   H496    1.087   1_565 S
C756   O794    1.296   .     A
C756   O793    1.302   .     A
C757   C758    1.437   .     S
C758   O796    1.292   .     A
C758   O795    1.286   .     A
C759   O797    1.294   .     A
C759   O798    1.300   .     A
C759   C761    1.465   .     S
C760   C774    1.392   .     A
C760   H830    1.084   .     S
C761   C773    1.400   .     A
C761   C774    1.397   .     A
C762   H785    1.083   .     S
C762   C763    1.386   .     A
C763   C342    1.390   1_556 S
C764   C768    1.423   .     A
C764   C342    1.419   1_556 S
C764   C346    1.428   1_556 S
C765   H786    1.076   .     S
C766   O799    1.222   .     D
C766   H779    1.085   .     S
C766   C475    1.493   1_565 S
C767   N790    1.156   .     T
C767   C772    1.443   .     S
C768   C772    1.421   .     A
C769   C773    1.405   .     A
C770   C771    1.390   .     A
C770   C346    1.419   1_556 S
C770   C337    1.405   1_556 S
C771   C772    1.391   .     A
C771   H782    1.086   .     S
C773   H784    1.076   .     S
C774   H777    1.083   .     S
Cu775  Cu776   2.684   .     S
Cu775  O797    1.921   .     S
Cu775  O793    1.942   .     S
Cu775  O795    1.955   .     S
Cu775  O791    1.959   .     S
Cu775  N789    2.017   .     S
Cu776  O798    1.942   .     S
Cu776  N788    2.017   .     S
Cu776  O792    1.955   .     S
Cu776  O796    1.959   .     S
Cu776  O794    1.921   .     S
H781   N836    1.029   .     S
H787   C810    1.083   .     S
N788   H827    1.029   .     S
N788   N836    1.282   .     S
C800   O838    1.287   .     A
C800   O839    1.290   .     A
C800   C802    1.432   .     S
C801   C815    1.427   .     A
C801   C803    1.477   .     S
C801   C809    1.401   .     A
C802   C522    1.342   1_565 S
C802   H543    1.087   1_565 S
C803   O841    1.296   .     A
C803   O840    1.302   .     A
C804   C805    1.437   .     S
C805   O843    1.292   .     A
C805   O842    1.286   .     A
C806   O844    1.294   .     A
C806   O845    1.300   .     A
C806   C808    1.465   .     S
C807   C821    1.392   .     A
C807   H736    1.084   1_655 S
C808   C820    1.400   .     A
C808   C821    1.397   .     A
C809   H832    1.083   .     S
C809   C810    1.386   .     A
C810   C389    1.390   1_556 S
C811   C815    1.423   .     A
C811   C389    1.419   1_556 S
C811   C393    1.428   1_556 S
C812   H833    1.076   .     S
C813   O846    1.222   .     D
C813   H826    1.085   .     S
C813   C522    1.493   1_565 S
C814   N837    1.156   .     T
C814   C819    1.443   .     S
C815   C819    1.421   .     A
C816   C820    1.405   .     A
C817   C818    1.390   .     A
C817   C393    1.419   1_556 S
C817   C384    1.405   1_556 S
C818   C819    1.391   .     A
C818   H829    1.086   .     S
C820   H831    1.076   .     S
C821   H824    1.083   .     S
Cu822  Cu823   2.684   .     S
Cu822  O844    1.921   .     S
Cu822  O840    1.942   .     S
Cu822  O842    1.955   .     S
Cu822  O838    1.959   .     S
Cu822  N836    2.017   .     S
Cu823  O845    1.942   .     S
Cu823  N835    2.017   .     S
Cu823  O839    1.955   .     S
Cu823  O843    1.959   .     S
Cu823  O841    1.921   .     S
H828   N742    1.029   1_655 S
H834   C716    1.083   1_655 S
N835   H733    1.029   1_655 S
N835   N742    1.282   1_655 S
