data_str_m3_o1_o10_pcu_sym.87
_audit_creation_date              2020-01-03
_audit_creation_method            'Materials Studio'
_symmetry_space_group_name_H-M    'P1'
_symmetry_Int_Tables_number       1
_symmetry_cell_setting            triclinic
loop_
_symmetry_equiv_pos_as_xyz
  x,y,z
_cell_length_a                    26.0549
_cell_length_b                    31.7270
_cell_length_c                    29.8216
_cell_angle_alpha                 89.3945
_cell_angle_beta                  97.6999
_cell_angle_gamma                 91.8339
loop_
_atom_site_label
_atom_site_type_symbol
_atom_site_fract_x
_atom_site_fract_y
_atom_site_fract_z
_atom_site_U_iso_or_equiv
_atom_site_adp_type
_atom_site_occupancy
C1     C     0.16691   0.08696   0.16687   0.00000  Uiso   1.00
C2     C     0.11956   0.02067   0.16545   0.00000  Uiso   1.00
C3     C     0.16695   0.29059   0.16669   0.00000  Uiso   1.00
C4     C     0.16692   0.04283   0.16719   0.00000  Uiso   1.00
C5     C     0.19162   0.19834   0.02587   0.00000  Uiso   1.00
C6     C     0.14146   0.13500   0.30727   0.00000  Uiso   1.00
C7     C     0.19348   0.19721   0.31171   0.00000  Uiso   1.00
C8     C     0.14199   0.13477   0.02200   0.00000  Uiso   1.00
C9     C     0.27373   0.05236   0.12667   0.00000  Uiso   1.00
C10    C     0.06028   0.27854   0.20677   0.00000  Uiso   1.00
C11    C     0.27388   0.22213   0.30104   0.00000  Uiso   1.00
C12    C     0.16671   0.24641   0.16656   0.00000  Uiso   1.00
C13    C     0.13396   0.06397   0.03918   0.00000  Uiso   1.00
C14    C     0.06745   0.16665   0.15512   0.00000  Uiso   1.00
C15    C     0.26586   0.16667   0.17816   0.00000  Uiso   1.00
C16    C     0.01344   0.17226   0.14955   0.00000  Uiso   1.00
C17    C     0.31976   0.16076   0.18348   0.00000  Uiso   1.00
C18    C     0.21423   0.02318   0.16776   0.00000  Uiso   1.00
C19    C     0.11959   0.31032   0.16669   0.00000  Uiso   1.00
C20    C     0.21446   0.31300   0.16833   0.00000  Uiso   1.00
H21    H     0.01025   0.22320   0.10746   0.00000  Uiso   1.00
H22    H     0.04337   0.30653   0.22043   0.00000  Uiso   1.00
H23    H     0.26228   0.27315   0.14274   0.00000  Uiso   1.00
H24    H     0.26653   0.27275   0.19992   0.00000  Uiso   1.00
H25    H     0.05302   0.03712   0.18835   0.00000  Uiso   1.00
H26    H     0.04881   0.03124   0.13140   0.00000  Uiso   1.00
H27    H     0.18449   0.25360   0.05680   0.00000  Uiso   1.00
H28    H     0.23599   0.22473   0.07981   0.00000  Uiso   1.00
H29    H     0.14307   0.07966   0.27528   0.00000  Uiso   1.00
H30    H     0.09596   0.11190   0.25190   0.00000  Uiso   1.00
H31    H     0.29404   0.23913   0.27544   0.00000  Uiso   1.00
H32    H     0.32928   0.17633   0.08118   0.00000  Uiso   1.00
H33    H     0.28388   0.18830   0.29998   0.00000  Uiso   1.00
H34    H     0.28917   0.23551   0.00127   0.00000  Uiso   1.00
H35    H     0.12924   0.04560   0.07024   0.00000  Uiso   1.00
H36    H     0.17595   0.06446   0.03525   0.00000  Uiso   1.00
H37    H     0.11103   0.04659   0.01081   0.00000  Uiso   1.00
H38    H     0.32206   0.10970   0.22537   0.00000  Uiso   1.00
H39    H     0.00490   0.15633   0.25166   0.00000  Uiso   1.00
H40    H     0.30661   0.07560   0.12825   0.00000  Uiso   1.00
H41    H     0.24164   0.06535   0.10271   0.00000  Uiso   1.00
H42    H     0.28617   0.02227   0.11339   0.00000  Uiso   1.00
H43    H     0.09361   0.26801   0.23113   0.00000  Uiso   1.00
H44    H     0.03034   0.25274   0.20436   0.00000  Uiso   1.00
N45    N     0.16665   0.16666   0.28573   0.00000  Uiso   1.00
N46    N     0.16668   0.16668   0.04760   0.00000  Uiso   1.00
N47    N     0.32406   0.19406   0.10949   0.00000  Uiso   1.00
N48    N     0.00899   0.13848   0.22319   0.00000  Uiso   1.00
N49    N     0.26288   0.29215   0.17121   0.00000  Uiso   1.00
N50    N     0.07203   0.04290   0.16015   0.00000  Uiso   1.00
N51    N     0.21428   0.23446   0.04991   0.00000  Uiso   1.00
N52    N     0.11526   0.10079   0.28214   0.00000  Uiso   1.00
O53    O     0.16666   0.10558   0.20487   0.00000  Uiso   1.00
O54    O     0.07342   0.28688   0.16303   0.00000  Uiso   1.00
O55    O     0.22014   0.22842   0.29082   0.00000  Uiso   1.00
O56    O     0.11386   0.10449   0.04313   0.00000  Uiso   1.00
O57    O     0.16667   0.22775   0.12846   0.00000  Uiso   1.00
O58    O     0.16666   0.10559   0.12843   0.00000  Uiso   1.00
O59    O     0.16667   0.22774   0.20490   0.00000  Uiso   1.00
O60    O     0.09058   0.16666   0.19595   0.00000  Uiso   1.00
O61    O     0.24275   0.16667   0.13739   0.00000  Uiso   1.00
O62    O     0.09058   0.16667   0.11950   0.00000  Uiso   1.00
O63    O     0.24275   0.16666   0.21383   0.00000  Uiso   1.00
O64    O     0.26020   0.04674   0.17064   0.00000  Uiso   1.00
Zn65   Zn    0.16667   0.16666   0.21771   0.00000  Uiso   1.00
Zn66   Zn    0.16667   0.16667   0.11563   0.00000  Uiso   1.00
C67    C     0.50024   0.08696   0.16687   0.00000  Uiso   1.00
C68    C     0.45289   0.02067   0.16545   0.00000  Uiso   1.00
C69    C     0.50028   0.29059   0.16669   0.00000  Uiso   1.00
C70    C     0.50026   0.04283   0.16719   0.00000  Uiso   1.00
C71    C     0.52495   0.19834   0.02587   0.00000  Uiso   1.00
C72    C     0.47479   0.13500   0.30727   0.00000  Uiso   1.00
C73    C     0.52681   0.19721   0.31171   0.00000  Uiso   1.00
C74    C     0.47533   0.13477   0.02200   0.00000  Uiso   1.00
C75    C     0.60706   0.05236   0.12667   0.00000  Uiso   1.00
C76    C     0.39361   0.27854   0.20677   0.00000  Uiso   1.00
C77    C     0.60722   0.22213   0.30104   0.00000  Uiso   1.00
C78    C     0.50004   0.24641   0.16656   0.00000  Uiso   1.00
C79    C     0.46729   0.06397   0.03918   0.00000  Uiso   1.00
C80    C     0.40079   0.16665   0.15512   0.00000  Uiso   1.00
C81    C     0.59919   0.16667   0.17816   0.00000  Uiso   1.00
C82    C     0.34677   0.17226   0.14955   0.00000  Uiso   1.00
C83    C     0.65309   0.16076   0.18348   0.00000  Uiso   1.00
C84    C     0.54756   0.02318   0.16776   0.00000  Uiso   1.00
C85    C     0.45292   0.31032   0.16669   0.00000  Uiso   1.00
C86    C     0.54780   0.31300   0.16833   0.00000  Uiso   1.00
H87    H     0.34358   0.22320   0.10746   0.00000  Uiso   1.00
H88    H     0.37671   0.30653   0.22043   0.00000  Uiso   1.00
H89    H     0.59561   0.27315   0.14274   0.00000  Uiso   1.00
H90    H     0.59986   0.27275   0.19992   0.00000  Uiso   1.00
H91    H     0.38636   0.03712   0.18835   0.00000  Uiso   1.00
H92    H     0.38214   0.03124   0.13140   0.00000  Uiso   1.00
H93    H     0.51783   0.25360   0.05680   0.00000  Uiso   1.00
H94    H     0.56932   0.22473   0.07981   0.00000  Uiso   1.00
H95    H     0.47640   0.07966   0.27528   0.00000  Uiso   1.00
H96    H     0.42930   0.11190   0.25190   0.00000  Uiso   1.00
H97    H     0.62737   0.23913   0.27544   0.00000  Uiso   1.00
H98    H     0.66262   0.17633   0.08118   0.00000  Uiso   1.00
H99    H     0.61721   0.18830   0.29998   0.00000  Uiso   1.00
H100   H     0.62250   0.23551   0.00127   0.00000  Uiso   1.00
H101   H     0.46258   0.04560   0.07024   0.00000  Uiso   1.00
H102   H     0.50928   0.06446   0.03525   0.00000  Uiso   1.00
H103   H     0.44437   0.04659   0.01081   0.00000  Uiso   1.00
H104   H     0.65539   0.10970   0.22537   0.00000  Uiso   1.00
H105   H     0.33824   0.15633   0.25166   0.00000  Uiso   1.00
H106   H     0.63994   0.07560   0.12825   0.00000  Uiso   1.00
H107   H     0.57498   0.06535   0.10271   0.00000  Uiso   1.00
H108   H     0.61950   0.02227   0.11339   0.00000  Uiso   1.00
H109   H     0.42694   0.26801   0.23113   0.00000  Uiso   1.00
H110   H     0.36367   0.25274   0.20436   0.00000  Uiso   1.00
N111   N     0.49999   0.16666   0.28573   0.00000  Uiso   1.00
N112   N     0.50001   0.16668   0.04760   0.00000  Uiso   1.00
N113   N     0.65739   0.19406   0.10949   0.00000  Uiso   1.00
N114   N     0.34232   0.13848   0.22319   0.00000  Uiso   1.00
N115   N     0.59622   0.29215   0.17121   0.00000  Uiso   1.00
N116   N     0.40537   0.04290   0.16015   0.00000  Uiso   1.00
N117   N     0.54762   0.23446   0.04991   0.00000  Uiso   1.00
N118   N     0.44860   0.10079   0.28214   0.00000  Uiso   1.00
O119   O     0.50000   0.10558   0.20487   0.00000  Uiso   1.00
O120   O     0.40676   0.28688   0.16303   0.00000  Uiso   1.00
O121   O     0.55348   0.22842   0.29082   0.00000  Uiso   1.00
O122   O     0.44719   0.10449   0.04313   0.00000  Uiso   1.00
O123   O     0.50000   0.22775   0.12846   0.00000  Uiso   1.00
O124   O     0.50000   0.10559   0.12843   0.00000  Uiso   1.00
O125   O     0.50000   0.22774   0.20490   0.00000  Uiso   1.00
O126   O     0.42392   0.16666   0.19595   0.00000  Uiso   1.00
O127   O     0.57608   0.16667   0.13739   0.00000  Uiso   1.00
O128   O     0.42392   0.16667   0.11950   0.00000  Uiso   1.00
O129   O     0.57608   0.16666   0.21383   0.00000  Uiso   1.00
O130   O     0.59353   0.04674   0.17064   0.00000  Uiso   1.00
Zn131  Zn    0.50000   0.16666   0.21771   0.00000  Uiso   1.00
Zn132  Zn    0.50000   0.16667   0.11563   0.00000  Uiso   1.00
C133   C     0.83358   0.08696   0.16687   0.00000  Uiso   1.00
C134   C     0.78623   0.02067   0.16545   0.00000  Uiso   1.00
C135   C     0.83362   0.29059   0.16669   0.00000  Uiso   1.00
C136   C     0.83359   0.04283   0.16719   0.00000  Uiso   1.00
C137   C     0.85829   0.19834   0.02587   0.00000  Uiso   1.00
C138   C     0.80812   0.13500   0.30727   0.00000  Uiso   1.00
C139   C     0.86015   0.19721   0.31171   0.00000  Uiso   1.00
C140   C     0.80866   0.13477   0.02200   0.00000  Uiso   1.00
C141   C     0.94039   0.05236   0.12667   0.00000  Uiso   1.00
C142   C     0.72694   0.27854   0.20677   0.00000  Uiso   1.00
C143   C     0.94055   0.22213   0.30104   0.00000  Uiso   1.00
C144   C     0.83338   0.24641   0.16656   0.00000  Uiso   1.00
C145   C     0.80062   0.06397   0.03918   0.00000  Uiso   1.00
C146   C     0.73412   0.16665   0.15512   0.00000  Uiso   1.00
C147   C     0.93252   0.16667   0.17816   0.00000  Uiso   1.00
C148   C     0.68010   0.17226   0.14955   0.00000  Uiso   1.00
C149   C     0.98642   0.16076   0.18348   0.00000  Uiso   1.00
C150   C     0.88090   0.02318   0.16776   0.00000  Uiso   1.00
C151   C     0.78626   0.31032   0.16669   0.00000  Uiso   1.00
C152   C     0.88113   0.31300   0.16833   0.00000  Uiso   1.00
H153   H     0.67692   0.22320   0.10746   0.00000  Uiso   1.00
H154   H     0.71004   0.30653   0.22043   0.00000  Uiso   1.00
H155   H     0.92894   0.27315   0.14274   0.00000  Uiso   1.00
H156   H     0.93319   0.27275   0.19992   0.00000  Uiso   1.00
H157   H     0.71969   0.03712   0.18835   0.00000  Uiso   1.00
H158   H     0.71548   0.03124   0.13140   0.00000  Uiso   1.00
H159   H     0.85116   0.25360   0.05680   0.00000  Uiso   1.00
H160   H     0.90266   0.22473   0.07981   0.00000  Uiso   1.00
H161   H     0.80973   0.07966   0.27528   0.00000  Uiso   1.00
H162   H     0.76263   0.11190   0.25190   0.00000  Uiso   1.00
H163   H     0.96070   0.23913   0.27544   0.00000  Uiso   1.00
H164   H     0.99595   0.17633   0.08118   0.00000  Uiso   1.00
H165   H     0.95054   0.18830   0.29998   0.00000  Uiso   1.00
H166   H     0.95584   0.23551   0.00127   0.00000  Uiso   1.00
H167   H     0.79591   0.04560   0.07024   0.00000  Uiso   1.00
H168   H     0.84261   0.06446   0.03525   0.00000  Uiso   1.00
H169   H     0.77770   0.04659   0.01081   0.00000  Uiso   1.00
H170   H     0.98872   0.10970   0.22537   0.00000  Uiso   1.00
H171   H     0.67157   0.15633   0.25166   0.00000  Uiso   1.00
H172   H     0.97328   0.07560   0.12825   0.00000  Uiso   1.00
H173   H     0.90831   0.06535   0.10271   0.00000  Uiso   1.00
H174   H     0.95284   0.02227   0.11339   0.00000  Uiso   1.00
H175   H     0.76027   0.26801   0.23113   0.00000  Uiso   1.00
H176   H     0.69700   0.25274   0.20436   0.00000  Uiso   1.00
N177   N     0.83332   0.16666   0.28573   0.00000  Uiso   1.00
N178   N     0.83335   0.16668   0.04760   0.00000  Uiso   1.00
N179   N     0.99072   0.19406   0.10949   0.00000  Uiso   1.00
N180   N     0.67566   0.13848   0.22319   0.00000  Uiso   1.00
N181   N     0.92955   0.29215   0.17121   0.00000  Uiso   1.00
N182   N     0.73870   0.04290   0.16015   0.00000  Uiso   1.00
N183   N     0.88095   0.23446   0.04991   0.00000  Uiso   1.00
N184   N     0.78193   0.10079   0.28214   0.00000  Uiso   1.00
O185   O     0.83333   0.10558   0.20487   0.00000  Uiso   1.00
O186   O     0.74009   0.28688   0.16303   0.00000  Uiso   1.00
O187   O     0.88681   0.22842   0.29082   0.00000  Uiso   1.00
O188   O     0.78053   0.10449   0.04313   0.00000  Uiso   1.00
O189   O     0.83334   0.22775   0.12846   0.00000  Uiso   1.00
O190   O     0.83333   0.10559   0.12843   0.00000  Uiso   1.00
O191   O     0.83334   0.22774   0.20490   0.00000  Uiso   1.00
O192   O     0.75725   0.16666   0.19595   0.00000  Uiso   1.00
O193   O     0.90942   0.16667   0.13739   0.00000  Uiso   1.00
O194   O     0.75725   0.16667   0.11950   0.00000  Uiso   1.00
O195   O     0.90942   0.16666   0.21383   0.00000  Uiso   1.00
O196   O     0.92687   0.04674   0.17064   0.00000  Uiso   1.00
Zn197  Zn    0.83333   0.16666   0.21771   0.00000  Uiso   1.00
Zn198  Zn    0.83333   0.16667   0.11563   0.00000  Uiso   1.00
C199   C     0.16691   0.42029   0.16687   0.00000  Uiso   1.00
C200   C     0.11956   0.35401   0.16545   0.00000  Uiso   1.00
C201   C     0.16695   0.62393   0.16669   0.00000  Uiso   1.00
C202   C     0.16692   0.37616   0.16719   0.00000  Uiso   1.00
C203   C     0.19162   0.53168   0.02587   0.00000  Uiso   1.00
C204   C     0.14146   0.46833   0.30727   0.00000  Uiso   1.00
C205   C     0.19348   0.53054   0.31171   0.00000  Uiso   1.00
C206   C     0.14199   0.46810   0.02200   0.00000  Uiso   1.00
C207   C     0.27373   0.38569   0.12667   0.00000  Uiso   1.00
C208   C     0.06028   0.61188   0.20677   0.00000  Uiso   1.00
C209   C     0.27388   0.55547   0.30104   0.00000  Uiso   1.00
C210   C     0.16671   0.57975   0.16656   0.00000  Uiso   1.00
C211   C     0.13396   0.39730   0.03918   0.00000  Uiso   1.00
C212   C     0.06745   0.49999   0.15512   0.00000  Uiso   1.00
C213   C     0.26586   0.50001   0.17816   0.00000  Uiso   1.00
C214   C     0.01344   0.50560   0.14955   0.00000  Uiso   1.00
C215   C     0.31976   0.49409   0.18348   0.00000  Uiso   1.00
C216   C     0.21423   0.35652   0.16776   0.00000  Uiso   1.00
C217   C     0.11959   0.64365   0.16669   0.00000  Uiso   1.00
C218   C     0.21446   0.64633   0.16833   0.00000  Uiso   1.00
H219   H     0.01025   0.55653   0.10746   0.00000  Uiso   1.00
H220   H     0.04337   0.63987   0.22043   0.00000  Uiso   1.00
H221   H     0.26228   0.60648   0.14274   0.00000  Uiso   1.00
H222   H     0.26653   0.60608   0.19992   0.00000  Uiso   1.00
H223   H     0.05302   0.37046   0.18835   0.00000  Uiso   1.00
H224   H     0.04881   0.36457   0.13140   0.00000  Uiso   1.00
H225   H     0.18449   0.58694   0.05680   0.00000  Uiso   1.00
H226   H     0.23599   0.55806   0.07981   0.00000  Uiso   1.00
H227   H     0.14307   0.41299   0.27528   0.00000  Uiso   1.00
H228   H     0.09596   0.44523   0.25190   0.00000  Uiso   1.00
H229   H     0.29404   0.57246   0.27544   0.00000  Uiso   1.00
H230   H     0.32928   0.50967   0.08118   0.00000  Uiso   1.00
H231   H     0.28388   0.52163   0.29998   0.00000  Uiso   1.00
H232   H     0.28917   0.56884   0.00127   0.00000  Uiso   1.00
H233   H     0.12924   0.37893   0.07024   0.00000  Uiso   1.00
H234   H     0.17595   0.39779   0.03525   0.00000  Uiso   1.00
H235   H     0.11103   0.37992   0.01081   0.00000  Uiso   1.00
H236   H     0.32206   0.44304   0.22537   0.00000  Uiso   1.00
H237   H     0.00490   0.48966   0.25166   0.00000  Uiso   1.00
H238   H     0.30661   0.40893   0.12825   0.00000  Uiso   1.00
H239   H     0.24164   0.39869   0.10271   0.00000  Uiso   1.00
H240   H     0.28617   0.35560   0.11339   0.00000  Uiso   1.00
H241   H     0.09361   0.60134   0.23113   0.00000  Uiso   1.00
H242   H     0.03034   0.58607   0.20436   0.00000  Uiso   1.00
N243   N     0.16665   0.49999   0.28573   0.00000  Uiso   1.00
N244   N     0.16668   0.50001   0.04760   0.00000  Uiso   1.00
N245   N     0.32406   0.52740   0.10949   0.00000  Uiso   1.00
N246   N     0.00899   0.47182   0.22319   0.00000  Uiso   1.00
N247   N     0.26288   0.62548   0.17121   0.00000  Uiso   1.00
N248   N     0.07203   0.37624   0.16015   0.00000  Uiso   1.00
N249   N     0.21428   0.56779   0.04991   0.00000  Uiso   1.00
N250   N     0.11526   0.43412   0.28214   0.00000  Uiso   1.00
O251   O     0.16666   0.43892   0.20487   0.00000  Uiso   1.00
O252   O     0.07342   0.62022   0.16303   0.00000  Uiso   1.00
O253   O     0.22014   0.56175   0.29082   0.00000  Uiso   1.00
O254   O     0.11386   0.43783   0.04313   0.00000  Uiso   1.00
O255   O     0.16667   0.56108   0.12846   0.00000  Uiso   1.00
O256   O     0.16666   0.43893   0.12843   0.00000  Uiso   1.00
O257   O     0.16667   0.56107   0.20490   0.00000  Uiso   1.00
O258   O     0.09058   0.50000   0.19595   0.00000  Uiso   1.00
O259   O     0.24275   0.50000   0.13739   0.00000  Uiso   1.00
O260   O     0.09058   0.50000   0.11950   0.00000  Uiso   1.00
O261   O     0.24275   0.50000   0.21383   0.00000  Uiso   1.00
O262   O     0.26020   0.38008   0.17064   0.00000  Uiso   1.00
Zn263  Zn    0.16667   0.49999   0.21771   0.00000  Uiso   1.00
Zn264  Zn    0.16667   0.50001   0.11563   0.00000  Uiso   1.00
C265   C     0.50024   0.42029   0.16687   0.00000  Uiso   1.00
C266   C     0.45289   0.35401   0.16545   0.00000  Uiso   1.00
C267   C     0.50028   0.62393   0.16669   0.00000  Uiso   1.00
C268   C     0.50026   0.37616   0.16719   0.00000  Uiso   1.00
C269   C     0.52495   0.53168   0.02587   0.00000  Uiso   1.00
C270   C     0.47479   0.46833   0.30727   0.00000  Uiso   1.00
C271   C     0.52681   0.53054   0.31171   0.00000  Uiso   1.00
C272   C     0.47533   0.46810   0.02200   0.00000  Uiso   1.00
C273   C     0.60706   0.38569   0.12667   0.00000  Uiso   1.00
C274   C     0.39361   0.61188   0.20677   0.00000  Uiso   1.00
C275   C     0.60722   0.55547   0.30104   0.00000  Uiso   1.00
C276   C     0.50004   0.57975   0.16656   0.00000  Uiso   1.00
C277   C     0.46729   0.39730   0.03918   0.00000  Uiso   1.00
C278   C     0.40079   0.49999   0.15512   0.00000  Uiso   1.00
C279   C     0.59919   0.50001   0.17816   0.00000  Uiso   1.00
C280   C     0.34677   0.50560   0.14955   0.00000  Uiso   1.00
C281   C     0.65309   0.49409   0.18348   0.00000  Uiso   1.00
C282   C     0.54756   0.35652   0.16776   0.00000  Uiso   1.00
C283   C     0.45292   0.64365   0.16669   0.00000  Uiso   1.00
C284   C     0.54780   0.64633   0.16833   0.00000  Uiso   1.00
H285   H     0.34358   0.55653   0.10746   0.00000  Uiso   1.00
H286   H     0.37671   0.63987   0.22043   0.00000  Uiso   1.00
H287   H     0.59561   0.60648   0.14274   0.00000  Uiso   1.00
H288   H     0.59986   0.60608   0.19992   0.00000  Uiso   1.00
H289   H     0.38636   0.37046   0.18835   0.00000  Uiso   1.00
H290   H     0.38214   0.36457   0.13140   0.00000  Uiso   1.00
H291   H     0.51783   0.58694   0.05680   0.00000  Uiso   1.00
H292   H     0.56932   0.55806   0.07981   0.00000  Uiso   1.00
H293   H     0.47640   0.41299   0.27528   0.00000  Uiso   1.00
H294   H     0.42930   0.44523   0.25190   0.00000  Uiso   1.00
H295   H     0.62737   0.57246   0.27544   0.00000  Uiso   1.00
H296   H     0.66262   0.50967   0.08118   0.00000  Uiso   1.00
H297   H     0.61721   0.52163   0.29998   0.00000  Uiso   1.00
H298   H     0.62250   0.56884   0.00127   0.00000  Uiso   1.00
H299   H     0.46258   0.37893   0.07024   0.00000  Uiso   1.00
H300   H     0.50928   0.39779   0.03525   0.00000  Uiso   1.00
H301   H     0.44437   0.37992   0.01081   0.00000  Uiso   1.00
H302   H     0.65539   0.44304   0.22537   0.00000  Uiso   1.00
H303   H     0.33824   0.48966   0.25166   0.00000  Uiso   1.00
H304   H     0.63994   0.40893   0.12825   0.00000  Uiso   1.00
H305   H     0.57498   0.39869   0.10271   0.00000  Uiso   1.00
H306   H     0.61950   0.35560   0.11339   0.00000  Uiso   1.00
H307   H     0.42694   0.60134   0.23113   0.00000  Uiso   1.00
H308   H     0.36367   0.58607   0.20436   0.00000  Uiso   1.00
N309   N     0.49999   0.49999   0.28573   0.00000  Uiso   1.00
N310   N     0.50001   0.50001   0.04760   0.00000  Uiso   1.00
N311   N     0.65739   0.52740   0.10949   0.00000  Uiso   1.00
N312   N     0.34232   0.47182   0.22319   0.00000  Uiso   1.00
N313   N     0.59622   0.62548   0.17121   0.00000  Uiso   1.00
N314   N     0.40537   0.37624   0.16015   0.00000  Uiso   1.00
N315   N     0.54762   0.56779   0.04991   0.00000  Uiso   1.00
N316   N     0.44860   0.43412   0.28214   0.00000  Uiso   1.00
O317   O     0.50000   0.43892   0.20487   0.00000  Uiso   1.00
O318   O     0.40676   0.62022   0.16303   0.00000  Uiso   1.00
O319   O     0.55348   0.56175   0.29082   0.00000  Uiso   1.00
O320   O     0.44719   0.43783   0.04313   0.00000  Uiso   1.00
O321   O     0.50000   0.56108   0.12846   0.00000  Uiso   1.00
O322   O     0.50000   0.43893   0.12843   0.00000  Uiso   1.00
O323   O     0.50000   0.56107   0.20490   0.00000  Uiso   1.00
O324   O     0.42392   0.50000   0.19595   0.00000  Uiso   1.00
O325   O     0.57608   0.50000   0.13739   0.00000  Uiso   1.00
O326   O     0.42392   0.50000   0.11950   0.00000  Uiso   1.00
O327   O     0.57608   0.50000   0.21383   0.00000  Uiso   1.00
O328   O     0.59353   0.38008   0.17064   0.00000  Uiso   1.00
Zn329  Zn    0.50000   0.49999   0.21771   0.00000  Uiso   1.00
Zn330  Zn    0.50000   0.50001   0.11563   0.00000  Uiso   1.00
C331   C     0.83358   0.42029   0.16687   0.00000  Uiso   1.00
C332   C     0.78623   0.35401   0.16545   0.00000  Uiso   1.00
C333   C     0.83362   0.62393   0.16669   0.00000  Uiso   1.00
C334   C     0.83359   0.37616   0.16719   0.00000  Uiso   1.00
C335   C     0.85829   0.53168   0.02587   0.00000  Uiso   1.00
C336   C     0.80812   0.46833   0.30727   0.00000  Uiso   1.00
C337   C     0.86015   0.53054   0.31171   0.00000  Uiso   1.00
C338   C     0.80866   0.46810   0.02200   0.00000  Uiso   1.00
C339   C     0.94039   0.38569   0.12667   0.00000  Uiso   1.00
C340   C     0.72694   0.61188   0.20677   0.00000  Uiso   1.00
C341   C     0.94055   0.55547   0.30104   0.00000  Uiso   1.00
C342   C     0.83338   0.57975   0.16656   0.00000  Uiso   1.00
C343   C     0.80062   0.39730   0.03918   0.00000  Uiso   1.00
C344   C     0.73412   0.49999   0.15512   0.00000  Uiso   1.00
C345   C     0.93252   0.50001   0.17816   0.00000  Uiso   1.00
C346   C     0.68010   0.50560   0.14955   0.00000  Uiso   1.00
C347   C     0.98642   0.49409   0.18348   0.00000  Uiso   1.00
C348   C     0.88090   0.35652   0.16776   0.00000  Uiso   1.00
C349   C     0.78626   0.64365   0.16669   0.00000  Uiso   1.00
C350   C     0.88113   0.64633   0.16833   0.00000  Uiso   1.00
H351   H     0.67692   0.55653   0.10746   0.00000  Uiso   1.00
H352   H     0.71004   0.63987   0.22043   0.00000  Uiso   1.00
H353   H     0.92894   0.60648   0.14274   0.00000  Uiso   1.00
H354   H     0.93319   0.60608   0.19992   0.00000  Uiso   1.00
H355   H     0.71969   0.37046   0.18835   0.00000  Uiso   1.00
H356   H     0.71548   0.36457   0.13140   0.00000  Uiso   1.00
H357   H     0.85116   0.58694   0.05680   0.00000  Uiso   1.00
H358   H     0.90266   0.55806   0.07981   0.00000  Uiso   1.00
H359   H     0.80973   0.41299   0.27528   0.00000  Uiso   1.00
H360   H     0.76263   0.44523   0.25190   0.00000  Uiso   1.00
H361   H     0.96070   0.57246   0.27544   0.00000  Uiso   1.00
H362   H     0.99595   0.50967   0.08118   0.00000  Uiso   1.00
H363   H     0.95054   0.52163   0.29998   0.00000  Uiso   1.00
H364   H     0.95584   0.56884   0.00127   0.00000  Uiso   1.00
H365   H     0.79591   0.37893   0.07024   0.00000  Uiso   1.00
H366   H     0.84261   0.39779   0.03525   0.00000  Uiso   1.00
H367   H     0.77770   0.37992   0.01081   0.00000  Uiso   1.00
H368   H     0.98872   0.44304   0.22537   0.00000  Uiso   1.00
H369   H     0.67157   0.48966   0.25166   0.00000  Uiso   1.00
H370   H     0.97328   0.40893   0.12825   0.00000  Uiso   1.00
H371   H     0.90831   0.39869   0.10271   0.00000  Uiso   1.00
H372   H     0.95284   0.35560   0.11339   0.00000  Uiso   1.00
H373   H     0.76027   0.60134   0.23113   0.00000  Uiso   1.00
H374   H     0.69700   0.58607   0.20436   0.00000  Uiso   1.00
N375   N     0.83332   0.49999   0.28573   0.00000  Uiso   1.00
N376   N     0.83335   0.50001   0.04760   0.00000  Uiso   1.00
N377   N     0.99072   0.52740   0.10949   0.00000  Uiso   1.00
N378   N     0.67566   0.47182   0.22319   0.00000  Uiso   1.00
N379   N     0.92955   0.62548   0.17121   0.00000  Uiso   1.00
N380   N     0.73870   0.37624   0.16015   0.00000  Uiso   1.00
N381   N     0.88095   0.56779   0.04991   0.00000  Uiso   1.00
N382   N     0.78193   0.43412   0.28214   0.00000  Uiso   1.00
O383   O     0.83333   0.43892   0.20487   0.00000  Uiso   1.00
O384   O     0.74009   0.62022   0.16303   0.00000  Uiso   1.00
O385   O     0.88681   0.56175   0.29082   0.00000  Uiso   1.00
O386   O     0.78053   0.43783   0.04313   0.00000  Uiso   1.00
O387   O     0.83334   0.56108   0.12846   0.00000  Uiso   1.00
O388   O     0.83333   0.43893   0.12843   0.00000  Uiso   1.00
O389   O     0.83334   0.56107   0.20490   0.00000  Uiso   1.00
O390   O     0.75725   0.50000   0.19595   0.00000  Uiso   1.00
O391   O     0.90942   0.50000   0.13739   0.00000  Uiso   1.00
O392   O     0.75725   0.50000   0.11950   0.00000  Uiso   1.00
O393   O     0.90942   0.50000   0.21383   0.00000  Uiso   1.00
O394   O     0.92687   0.38008   0.17064   0.00000  Uiso   1.00
Zn395  Zn    0.83333   0.49999   0.21771   0.00000  Uiso   1.00
Zn396  Zn    0.83333   0.50001   0.11563   0.00000  Uiso   1.00
C397   C     0.16691   0.75362   0.16687   0.00000  Uiso   1.00
C398   C     0.11956   0.68734   0.16545   0.00000  Uiso   1.00
C399   C     0.16695   0.95726   0.16669   0.00000  Uiso   1.00
C400   C     0.16692   0.70950   0.16719   0.00000  Uiso   1.00
C401   C     0.19162   0.86501   0.02587   0.00000  Uiso   1.00
C402   C     0.14146   0.80167   0.30727   0.00000  Uiso   1.00
C403   C     0.19348   0.86388   0.31171   0.00000  Uiso   1.00
C404   C     0.14199   0.80143   0.02200   0.00000  Uiso   1.00
C405   C     0.27373   0.71903   0.12667   0.00000  Uiso   1.00
C406   C     0.06028   0.94521   0.20677   0.00000  Uiso   1.00
C407   C     0.27388   0.88880   0.30104   0.00000  Uiso   1.00
C408   C     0.16671   0.91308   0.16656   0.00000  Uiso   1.00
C409   C     0.13396   0.73064   0.03918   0.00000  Uiso   1.00
C410   C     0.06745   0.83332   0.15512   0.00000  Uiso   1.00
C411   C     0.26586   0.83334   0.17816   0.00000  Uiso   1.00
C412   C     0.01344   0.83893   0.14955   0.00000  Uiso   1.00
C413   C     0.31976   0.82743   0.18348   0.00000  Uiso   1.00
C414   C     0.21423   0.68985   0.16776   0.00000  Uiso   1.00
C415   C     0.11959   0.97698   0.16669   0.00000  Uiso   1.00
C416   C     0.21446   0.97967   0.16833   0.00000  Uiso   1.00
H417   H     0.01025   0.88986   0.10746   0.00000  Uiso   1.00
H418   H     0.04337   0.97320   0.22043   0.00000  Uiso   1.00
H419   H     0.26228   0.93981   0.14274   0.00000  Uiso   1.00
H420   H     0.26653   0.93942   0.19992   0.00000  Uiso   1.00
H421   H     0.05302   0.70379   0.18835   0.00000  Uiso   1.00
H422   H     0.04881   0.69791   0.13140   0.00000  Uiso   1.00
H423   H     0.18449   0.92027   0.05680   0.00000  Uiso   1.00
H424   H     0.23599   0.89140   0.07981   0.00000  Uiso   1.00
H425   H     0.14307   0.74632   0.27528   0.00000  Uiso   1.00
H426   H     0.09596   0.77856   0.25190   0.00000  Uiso   1.00
H427   H     0.29404   0.90580   0.27544   0.00000  Uiso   1.00
H428   H     0.32928   0.84300   0.08118   0.00000  Uiso   1.00
H429   H     0.28388   0.85497   0.29998   0.00000  Uiso   1.00
H430   H     0.28917   0.90218   0.00127   0.00000  Uiso   1.00
H431   H     0.12924   0.71227   0.07024   0.00000  Uiso   1.00
H432   H     0.17595   0.73113   0.03525   0.00000  Uiso   1.00
H433   H     0.11103   0.71325   0.01081   0.00000  Uiso   1.00
H434   H     0.32206   0.77637   0.22537   0.00000  Uiso   1.00
H435   H     0.00490   0.82300   0.25166   0.00000  Uiso   1.00
H436   H     0.30661   0.74226   0.12825   0.00000  Uiso   1.00
H437   H     0.24164   0.73202   0.10271   0.00000  Uiso   1.00
H438   H     0.28617   0.68894   0.11339   0.00000  Uiso   1.00
H439   H     0.09361   0.93468   0.23113   0.00000  Uiso   1.00
H440   H     0.03034   0.91941   0.20436   0.00000  Uiso   1.00
N441   N     0.16665   0.83332   0.28573   0.00000  Uiso   1.00
N442   N     0.16668   0.83334   0.04760   0.00000  Uiso   1.00
N443   N     0.32406   0.86073   0.10949   0.00000  Uiso   1.00
N444   N     0.00899   0.80515   0.22319   0.00000  Uiso   1.00
N445   N     0.26288   0.95882   0.17121   0.00000  Uiso   1.00
N446   N     0.07203   0.70957   0.16015   0.00000  Uiso   1.00
N447   N     0.21428   0.90113   0.04991   0.00000  Uiso   1.00
N448   N     0.11526   0.76746   0.28214   0.00000  Uiso   1.00
O449   O     0.16666   0.77225   0.20487   0.00000  Uiso   1.00
O450   O     0.07342   0.95355   0.16303   0.00000  Uiso   1.00
O451   O     0.22014   0.89508   0.29082   0.00000  Uiso   1.00
O452   O     0.11386   0.77116   0.04313   0.00000  Uiso   1.00
O453   O     0.16667   0.89442   0.12846   0.00000  Uiso   1.00
O454   O     0.16666   0.77226   0.12843   0.00000  Uiso   1.00
O455   O     0.16667   0.89441   0.20490   0.00000  Uiso   1.00
O456   O     0.09058   0.83333   0.19595   0.00000  Uiso   1.00
O457   O     0.24275   0.83334   0.13739   0.00000  Uiso   1.00
O458   O     0.09058   0.83334   0.11950   0.00000  Uiso   1.00
O459   O     0.24275   0.83333   0.21383   0.00000  Uiso   1.00
O460   O     0.26020   0.71341   0.17064   0.00000  Uiso   1.00
Zn461  Zn    0.16667   0.83333   0.21771   0.00000  Uiso   1.00
Zn462  Zn    0.16667   0.83334   0.11563   0.00000  Uiso   1.00
C463   C     0.50024   0.75362   0.16687   0.00000  Uiso   1.00
C464   C     0.45289   0.68734   0.16545   0.00000  Uiso   1.00
C465   C     0.50028   0.95726   0.16669   0.00000  Uiso   1.00
C466   C     0.50026   0.70950   0.16719   0.00000  Uiso   1.00
C467   C     0.52495   0.86501   0.02587   0.00000  Uiso   1.00
C468   C     0.47479   0.80167   0.30727   0.00000  Uiso   1.00
C469   C     0.52681   0.86388   0.31171   0.00000  Uiso   1.00
C470   C     0.47533   0.80143   0.02200   0.00000  Uiso   1.00
C471   C     0.60706   0.71903   0.12667   0.00000  Uiso   1.00
C472   C     0.39361   0.94521   0.20677   0.00000  Uiso   1.00
C473   C     0.60722   0.88880   0.30104   0.00000  Uiso   1.00
C474   C     0.50004   0.91308   0.16656   0.00000  Uiso   1.00
C475   C     0.46729   0.73064   0.03918   0.00000  Uiso   1.00
C476   C     0.40079   0.83332   0.15512   0.00000  Uiso   1.00
C477   C     0.59919   0.83334   0.17816   0.00000  Uiso   1.00
C478   C     0.34677   0.83893   0.14955   0.00000  Uiso   1.00
C479   C     0.65309   0.82743   0.18348   0.00000  Uiso   1.00
C480   C     0.54756   0.68985   0.16776   0.00000  Uiso   1.00
C481   C     0.45292   0.97698   0.16669   0.00000  Uiso   1.00
C482   C     0.54780   0.97967   0.16833   0.00000  Uiso   1.00
H483   H     0.34358   0.88986   0.10746   0.00000  Uiso   1.00
H484   H     0.37671   0.97320   0.22043   0.00000  Uiso   1.00
H485   H     0.59561   0.93981   0.14274   0.00000  Uiso   1.00
H486   H     0.59986   0.93942   0.19992   0.00000  Uiso   1.00
H487   H     0.38636   0.70379   0.18835   0.00000  Uiso   1.00
H488   H     0.38214   0.69791   0.13140   0.00000  Uiso   1.00
H489   H     0.51783   0.92027   0.05680   0.00000  Uiso   1.00
H490   H     0.56932   0.89140   0.07981   0.00000  Uiso   1.00
H491   H     0.47640   0.74632   0.27528   0.00000  Uiso   1.00
H492   H     0.42930   0.77856   0.25190   0.00000  Uiso   1.00
H493   H     0.62737   0.90580   0.27544   0.00000  Uiso   1.00
H494   H     0.66262   0.84300   0.08118   0.00000  Uiso   1.00
H495   H     0.61721   0.85497   0.29998   0.00000  Uiso   1.00
H496   H     0.62250   0.90218   0.00127   0.00000  Uiso   1.00
H497   H     0.46258   0.71227   0.07024   0.00000  Uiso   1.00
H498   H     0.50928   0.73113   0.03525   0.00000  Uiso   1.00
H499   H     0.44437   0.71325   0.01081   0.00000  Uiso   1.00
H500   H     0.65539   0.77637   0.22537   0.00000  Uiso   1.00
H501   H     0.33824   0.82300   0.25166   0.00000  Uiso   1.00
H502   H     0.63994   0.74226   0.12825   0.00000  Uiso   1.00
H503   H     0.57498   0.73202   0.10271   0.00000  Uiso   1.00
H504   H     0.61950   0.68894   0.11339   0.00000  Uiso   1.00
H505   H     0.42694   0.93468   0.23113   0.00000  Uiso   1.00
H506   H     0.36367   0.91941   0.20436   0.00000  Uiso   1.00
N507   N     0.49999   0.83332   0.28573   0.00000  Uiso   1.00
N508   N     0.50001   0.83334   0.04760   0.00000  Uiso   1.00
N509   N     0.65739   0.86073   0.10949   0.00000  Uiso   1.00
N510   N     0.34232   0.80515   0.22319   0.00000  Uiso   1.00
N511   N     0.59622   0.95882   0.17121   0.00000  Uiso   1.00
N512   N     0.40537   0.70957   0.16015   0.00000  Uiso   1.00
N513   N     0.54762   0.90113   0.04991   0.00000  Uiso   1.00
N514   N     0.44860   0.76746   0.28214   0.00000  Uiso   1.00
O515   O     0.50000   0.77225   0.20487   0.00000  Uiso   1.00
O516   O     0.40676   0.95355   0.16303   0.00000  Uiso   1.00
O517   O     0.55348   0.89508   0.29082   0.00000  Uiso   1.00
O518   O     0.44719   0.77116   0.04313   0.00000  Uiso   1.00
O519   O     0.50000   0.89442   0.12846   0.00000  Uiso   1.00
O520   O     0.50000   0.77226   0.12843   0.00000  Uiso   1.00
O521   O     0.50000   0.89441   0.20490   0.00000  Uiso   1.00
O522   O     0.42392   0.83333   0.19595   0.00000  Uiso   1.00
O523   O     0.57608   0.83334   0.13739   0.00000  Uiso   1.00
O524   O     0.42392   0.83334   0.11950   0.00000  Uiso   1.00
O525   O     0.57608   0.83333   0.21383   0.00000  Uiso   1.00
O526   O     0.59353   0.71341   0.17064   0.00000  Uiso   1.00
Zn527  Zn    0.50000   0.83333   0.21771   0.00000  Uiso   1.00
Zn528  Zn    0.50000   0.83334   0.11563   0.00000  Uiso   1.00
C529   C     0.83358   0.75362   0.16687   0.00000  Uiso   1.00
C530   C     0.78623   0.68734   0.16545   0.00000  Uiso   1.00
C531   C     0.83362   0.95726   0.16669   0.00000  Uiso   1.00
C532   C     0.83359   0.70950   0.16719   0.00000  Uiso   1.00
C533   C     0.85829   0.86501   0.02587   0.00000  Uiso   1.00
C534   C     0.80812   0.80167   0.30727   0.00000  Uiso   1.00
C535   C     0.86015   0.86388   0.31171   0.00000  Uiso   1.00
C536   C     0.80866   0.80143   0.02200   0.00000  Uiso   1.00
C537   C     0.94039   0.71903   0.12667   0.00000  Uiso   1.00
C538   C     0.72694   0.94521   0.20677   0.00000  Uiso   1.00
C539   C     0.94055   0.88880   0.30104   0.00000  Uiso   1.00
C540   C     0.83338   0.91308   0.16656   0.00000  Uiso   1.00
C541   C     0.80062   0.73064   0.03918   0.00000  Uiso   1.00
C542   C     0.73412   0.83332   0.15512   0.00000  Uiso   1.00
C543   C     0.93252   0.83334   0.17816   0.00000  Uiso   1.00
C544   C     0.68010   0.83893   0.14955   0.00000  Uiso   1.00
C545   C     0.98642   0.82743   0.18348   0.00000  Uiso   1.00
C546   C     0.88090   0.68985   0.16776   0.00000  Uiso   1.00
C547   C     0.78626   0.97698   0.16669   0.00000  Uiso   1.00
C548   C     0.88113   0.97967   0.16833   0.00000  Uiso   1.00
H549   H     0.67692   0.88986   0.10746   0.00000  Uiso   1.00
H550   H     0.71004   0.97320   0.22043   0.00000  Uiso   1.00
H551   H     0.92894   0.93981   0.14274   0.00000  Uiso   1.00
H552   H     0.93319   0.93942   0.19992   0.00000  Uiso   1.00
H553   H     0.71969   0.70379   0.18835   0.00000  Uiso   1.00
H554   H     0.71548   0.69791   0.13140   0.00000  Uiso   1.00
H555   H     0.85116   0.92027   0.05680   0.00000  Uiso   1.00
H556   H     0.90266   0.89140   0.07981   0.00000  Uiso   1.00
H557   H     0.80973   0.74632   0.27528   0.00000  Uiso   1.00
H558   H     0.76263   0.77856   0.25190   0.00000  Uiso   1.00
H559   H     0.96070   0.90580   0.27544   0.00000  Uiso   1.00
H560   H     0.99595   0.84300   0.08118   0.00000  Uiso   1.00
H561   H     0.95054   0.85497   0.29998   0.00000  Uiso   1.00
H562   H     0.95584   0.90218   0.00127   0.00000  Uiso   1.00
H563   H     0.79591   0.71227   0.07024   0.00000  Uiso   1.00
H564   H     0.84261   0.73113   0.03525   0.00000  Uiso   1.00
H565   H     0.77770   0.71325   0.01081   0.00000  Uiso   1.00
H566   H     0.98872   0.77637   0.22537   0.00000  Uiso   1.00
H567   H     0.67157   0.82300   0.25166   0.00000  Uiso   1.00
H568   H     0.97328   0.74226   0.12825   0.00000  Uiso   1.00
H569   H     0.90831   0.73202   0.10271   0.00000  Uiso   1.00
H570   H     0.95284   0.68894   0.11339   0.00000  Uiso   1.00
H571   H     0.76027   0.93468   0.23113   0.00000  Uiso   1.00
H572   H     0.69700   0.91941   0.20436   0.00000  Uiso   1.00
N573   N     0.83332   0.83332   0.28573   0.00000  Uiso   1.00
N574   N     0.83335   0.83334   0.04760   0.00000  Uiso   1.00
N575   N     0.99072   0.86073   0.10949   0.00000  Uiso   1.00
N576   N     0.67566   0.80515   0.22319   0.00000  Uiso   1.00
N577   N     0.92955   0.95882   0.17121   0.00000  Uiso   1.00
N578   N     0.73870   0.70957   0.16015   0.00000  Uiso   1.00
N579   N     0.88095   0.90113   0.04991   0.00000  Uiso   1.00
N580   N     0.78193   0.76746   0.28214   0.00000  Uiso   1.00
O581   O     0.83333   0.77225   0.20487   0.00000  Uiso   1.00
O582   O     0.74009   0.95355   0.16303   0.00000  Uiso   1.00
O583   O     0.88681   0.89508   0.29082   0.00000  Uiso   1.00
O584   O     0.78053   0.77116   0.04313   0.00000  Uiso   1.00
O585   O     0.83334   0.89442   0.12846   0.00000  Uiso   1.00
O586   O     0.83333   0.77226   0.12843   0.00000  Uiso   1.00
O587   O     0.83334   0.89441   0.20490   0.00000  Uiso   1.00
O588   O     0.75725   0.83333   0.19595   0.00000  Uiso   1.00
O589   O     0.90942   0.83334   0.13739   0.00000  Uiso   1.00
O590   O     0.75725   0.83334   0.11950   0.00000  Uiso   1.00
O591   O     0.90942   0.83333   0.21383   0.00000  Uiso   1.00
O592   O     0.92687   0.71341   0.17064   0.00000  Uiso   1.00
Zn593  Zn    0.83333   0.83333   0.21771   0.00000  Uiso   1.00
Zn594  Zn    0.83333   0.83334   0.11563   0.00000  Uiso   1.00
C595   C     0.16691   0.08696   0.50020   0.00000  Uiso   1.00
C596   C     0.11956   0.02067   0.49878   0.00000  Uiso   1.00
C597   C     0.16695   0.29059   0.50002   0.00000  Uiso   1.00
C598   C     0.16692   0.04283   0.50052   0.00000  Uiso   1.00
C599   C     0.19162   0.19834   0.35921   0.00000  Uiso   1.00
C600   C     0.14146   0.13500   0.64060   0.00000  Uiso   1.00
C601   C     0.19348   0.19721   0.64504   0.00000  Uiso   1.00
C602   C     0.14199   0.13477   0.35533   0.00000  Uiso   1.00
C603   C     0.27373   0.05236   0.46000   0.00000  Uiso   1.00
C604   C     0.06028   0.27854   0.54010   0.00000  Uiso   1.00
C605   C     0.27388   0.22213   0.63437   0.00000  Uiso   1.00
C606   C     0.16671   0.24641   0.49990   0.00000  Uiso   1.00
C607   C     0.13396   0.06397   0.37251   0.00000  Uiso   1.00
C608   C     0.06745   0.16665   0.48845   0.00000  Uiso   1.00
C609   C     0.26586   0.16667   0.51150   0.00000  Uiso   1.00
C610   C     0.01344   0.17226   0.48289   0.00000  Uiso   1.00
C611   C     0.31976   0.16076   0.51681   0.00000  Uiso   1.00
C612   C     0.21423   0.02318   0.50110   0.00000  Uiso   1.00
C613   C     0.11959   0.31032   0.50003   0.00000  Uiso   1.00
C614   C     0.21446   0.31300   0.50166   0.00000  Uiso   1.00
H615   H     0.01025   0.22320   0.44080   0.00000  Uiso   1.00
H616   H     0.04337   0.30653   0.55376   0.00000  Uiso   1.00
H617   H     0.26228   0.27315   0.47607   0.00000  Uiso   1.00
H618   H     0.26653   0.27275   0.53326   0.00000  Uiso   1.00
H619   H     0.05302   0.03712   0.52169   0.00000  Uiso   1.00
H620   H     0.04881   0.03124   0.46474   0.00000  Uiso   1.00
H621   H     0.18449   0.25360   0.39013   0.00000  Uiso   1.00
H622   H     0.23599   0.22473   0.41314   0.00000  Uiso   1.00
H623   H     0.14307   0.07966   0.60862   0.00000  Uiso   1.00
H624   H     0.09596   0.11190   0.58524   0.00000  Uiso   1.00
H625   H     0.29404   0.23913   0.60877   0.00000  Uiso   1.00
H626   H     0.32928   0.17633   0.41451   0.00000  Uiso   1.00
H627   H     0.28388   0.18830   0.63331   0.00000  Uiso   1.00
H628   H     0.28917   0.23551   0.33460   0.00000  Uiso   1.00
H629   H     0.12924   0.04560   0.40357   0.00000  Uiso   1.00
H630   H     0.17595   0.06446   0.36859   0.00000  Uiso   1.00
H631   H     0.11103   0.04659   0.34415   0.00000  Uiso   1.00
H632   H     0.32206   0.10970   0.55871   0.00000  Uiso   1.00
H633   H     0.00490   0.15633   0.58500   0.00000  Uiso   1.00
H634   H     0.30661   0.07560   0.46158   0.00000  Uiso   1.00
H635   H     0.24164   0.06535   0.43605   0.00000  Uiso   1.00
H636   H     0.28617   0.02227   0.44672   0.00000  Uiso   1.00
H637   H     0.09361   0.26801   0.56446   0.00000  Uiso   1.00
H638   H     0.03034   0.25274   0.53769   0.00000  Uiso   1.00
N639   N     0.16665   0.16666   0.61907   0.00000  Uiso   1.00
N640   N     0.16668   0.16668   0.38093   0.00000  Uiso   1.00
N641   N     0.32406   0.19406   0.44283   0.00000  Uiso   1.00
N642   N     0.00899   0.13848   0.55652   0.00000  Uiso   1.00
N643   N     0.26288   0.29215   0.50454   0.00000  Uiso   1.00
N644   N     0.07203   0.04290   0.49349   0.00000  Uiso   1.00
N645   N     0.21428   0.23446   0.38324   0.00000  Uiso   1.00
N646   N     0.11526   0.10079   0.61547   0.00000  Uiso   1.00
O647   O     0.16666   0.10558   0.53821   0.00000  Uiso   1.00
O648   O     0.07342   0.28688   0.49636   0.00000  Uiso   1.00
O649   O     0.22014   0.22842   0.62415   0.00000  Uiso   1.00
O650   O     0.11386   0.10449   0.37647   0.00000  Uiso   1.00
O651   O     0.16667   0.22775   0.46179   0.00000  Uiso   1.00
O652   O     0.16666   0.10559   0.46176   0.00000  Uiso   1.00
O653   O     0.16667   0.22774   0.53824   0.00000  Uiso   1.00
O654   O     0.09058   0.16666   0.52928   0.00000  Uiso   1.00
O655   O     0.24275   0.16667   0.47072   0.00000  Uiso   1.00
O656   O     0.09058   0.16667   0.45284   0.00000  Uiso   1.00
O657   O     0.24275   0.16666   0.54716   0.00000  Uiso   1.00
O658   O     0.26020   0.04674   0.50397   0.00000  Uiso   1.00
Zn659  Zn    0.16667   0.16666   0.55104   0.00000  Uiso   1.00
Zn660  Zn    0.16667   0.16667   0.44896   0.00000  Uiso   1.00
C661   C     0.50024   0.08696   0.50020   0.00000  Uiso   1.00
C662   C     0.45289   0.02067   0.49878   0.00000  Uiso   1.00
C663   C     0.50028   0.29059   0.50002   0.00000  Uiso   1.00
C664   C     0.50026   0.04283   0.50052   0.00000  Uiso   1.00
C665   C     0.52495   0.19834   0.35921   0.00000  Uiso   1.00
C666   C     0.47479   0.13500   0.64060   0.00000  Uiso   1.00
C667   C     0.52681   0.19721   0.64504   0.00000  Uiso   1.00
C668   C     0.47533   0.13477   0.35533   0.00000  Uiso   1.00
C669   C     0.60706   0.05236   0.46000   0.00000  Uiso   1.00
C670   C     0.39361   0.27854   0.54010   0.00000  Uiso   1.00
C671   C     0.60722   0.22213   0.63437   0.00000  Uiso   1.00
C672   C     0.50004   0.24641   0.49990   0.00000  Uiso   1.00
C673   C     0.46729   0.06397   0.37251   0.00000  Uiso   1.00
C674   C     0.40079   0.16665   0.48845   0.00000  Uiso   1.00
C675   C     0.59919   0.16667   0.51150   0.00000  Uiso   1.00
C676   C     0.34677   0.17226   0.48289   0.00000  Uiso   1.00
C677   C     0.65309   0.16076   0.51681   0.00000  Uiso   1.00
C678   C     0.54756   0.02318   0.50110   0.00000  Uiso   1.00
C679   C     0.45292   0.31032   0.50003   0.00000  Uiso   1.00
C680   C     0.54780   0.31300   0.50166   0.00000  Uiso   1.00
H681   H     0.34358   0.22320   0.44080   0.00000  Uiso   1.00
H682   H     0.37671   0.30653   0.55376   0.00000  Uiso   1.00
H683   H     0.59561   0.27315   0.47607   0.00000  Uiso   1.00
H684   H     0.59986   0.27275   0.53326   0.00000  Uiso   1.00
H685   H     0.38636   0.03712   0.52169   0.00000  Uiso   1.00
H686   H     0.38214   0.03124   0.46474   0.00000  Uiso   1.00
H687   H     0.51783   0.25360   0.39013   0.00000  Uiso   1.00
H688   H     0.56932   0.22473   0.41314   0.00000  Uiso   1.00
H689   H     0.47640   0.07966   0.60862   0.00000  Uiso   1.00
H690   H     0.42930   0.11190   0.58524   0.00000  Uiso   1.00
H691   H     0.62737   0.23913   0.60877   0.00000  Uiso   1.00
H692   H     0.66262   0.17633   0.41451   0.00000  Uiso   1.00
H693   H     0.61721   0.18830   0.63331   0.00000  Uiso   1.00
H694   H     0.62250   0.23551   0.33460   0.00000  Uiso   1.00
H695   H     0.46258   0.04560   0.40357   0.00000  Uiso   1.00
H696   H     0.50928   0.06446   0.36859   0.00000  Uiso   1.00
H697   H     0.44437   0.04659   0.34415   0.00000  Uiso   1.00
H698   H     0.65539   0.10970   0.55871   0.00000  Uiso   1.00
H699   H     0.33824   0.15633   0.58500   0.00000  Uiso   1.00
H700   H     0.63994   0.07560   0.46158   0.00000  Uiso   1.00
H701   H     0.57498   0.06535   0.43605   0.00000  Uiso   1.00
H702   H     0.61950   0.02227   0.44672   0.00000  Uiso   1.00
H703   H     0.42694   0.26801   0.56446   0.00000  Uiso   1.00
H704   H     0.36367   0.25274   0.53769   0.00000  Uiso   1.00
N705   N     0.49999   0.16666   0.61907   0.00000  Uiso   1.00
N706   N     0.50001   0.16668   0.38093   0.00000  Uiso   1.00
N707   N     0.65739   0.19406   0.44283   0.00000  Uiso   1.00
N708   N     0.34232   0.13848   0.55652   0.00000  Uiso   1.00
N709   N     0.59622   0.29215   0.50454   0.00000  Uiso   1.00
N710   N     0.40537   0.04290   0.49349   0.00000  Uiso   1.00
N711   N     0.54762   0.23446   0.38324   0.00000  Uiso   1.00
N712   N     0.44860   0.10079   0.61547   0.00000  Uiso   1.00
O713   O     0.50000   0.10558   0.53821   0.00000  Uiso   1.00
O714   O     0.40676   0.28688   0.49636   0.00000  Uiso   1.00
O715   O     0.55348   0.22842   0.62415   0.00000  Uiso   1.00
O716   O     0.44719   0.10449   0.37647   0.00000  Uiso   1.00
O717   O     0.50000   0.22775   0.46179   0.00000  Uiso   1.00
O718   O     0.50000   0.10559   0.46176   0.00000  Uiso   1.00
O719   O     0.50000   0.22774   0.53824   0.00000  Uiso   1.00
O720   O     0.42392   0.16666   0.52928   0.00000  Uiso   1.00
O721   O     0.57608   0.16667   0.47072   0.00000  Uiso   1.00
O722   O     0.42392   0.16667   0.45284   0.00000  Uiso   1.00
O723   O     0.57608   0.16666   0.54716   0.00000  Uiso   1.00
O724   O     0.59353   0.04674   0.50397   0.00000  Uiso   1.00
Zn725  Zn    0.50000   0.16666   0.55104   0.00000  Uiso   1.00
Zn726  Zn    0.50000   0.16667   0.44896   0.00000  Uiso   1.00
C727   C     0.83358   0.08696   0.50020   0.00000  Uiso   1.00
C728   C     0.78623   0.02067   0.49878   0.00000  Uiso   1.00
C729   C     0.83362   0.29059   0.50002   0.00000  Uiso   1.00
C730   C     0.83359   0.04283   0.50052   0.00000  Uiso   1.00
C731   C     0.85829   0.19834   0.35921   0.00000  Uiso   1.00
C732   C     0.80812   0.13500   0.64060   0.00000  Uiso   1.00
C733   C     0.86015   0.19721   0.64504   0.00000  Uiso   1.00
C734   C     0.80866   0.13477   0.35533   0.00000  Uiso   1.00
C735   C     0.94039   0.05236   0.46000   0.00000  Uiso   1.00
C736   C     0.72694   0.27854   0.54010   0.00000  Uiso   1.00
C737   C     0.94055   0.22213   0.63437   0.00000  Uiso   1.00
C738   C     0.83338   0.24641   0.49990   0.00000  Uiso   1.00
C739   C     0.80062   0.06397   0.37251   0.00000  Uiso   1.00
C740   C     0.73412   0.16665   0.48845   0.00000  Uiso   1.00
C741   C     0.93252   0.16667   0.51150   0.00000  Uiso   1.00
C742   C     0.68010   0.17226   0.48289   0.00000  Uiso   1.00
C743   C     0.98642   0.16076   0.51681   0.00000  Uiso   1.00
C744   C     0.88090   0.02318   0.50110   0.00000  Uiso   1.00
C745   C     0.78626   0.31032   0.50003   0.00000  Uiso   1.00
C746   C     0.88113   0.31300   0.50166   0.00000  Uiso   1.00
H747   H     0.67692   0.22320   0.44080   0.00000  Uiso   1.00
H748   H     0.71004   0.30653   0.55376   0.00000  Uiso   1.00
H749   H     0.92894   0.27315   0.47607   0.00000  Uiso   1.00
H750   H     0.93319   0.27275   0.53326   0.00000  Uiso   1.00
H751   H     0.71969   0.03712   0.52169   0.00000  Uiso   1.00
H752   H     0.71548   0.03124   0.46474   0.00000  Uiso   1.00
H753   H     0.85116   0.25360   0.39013   0.00000  Uiso   1.00
H754   H     0.90266   0.22473   0.41314   0.00000  Uiso   1.00
H755   H     0.80973   0.07966   0.60862   0.00000  Uiso   1.00
H756   H     0.76263   0.11190   0.58524   0.00000  Uiso   1.00
H757   H     0.96070   0.23913   0.60877   0.00000  Uiso   1.00
H758   H     0.99595   0.17633   0.41451   0.00000  Uiso   1.00
H759   H     0.95054   0.18830   0.63331   0.00000  Uiso   1.00
H760   H     0.95584   0.23551   0.33460   0.00000  Uiso   1.00
H761   H     0.79591   0.04560   0.40357   0.00000  Uiso   1.00
H762   H     0.84261   0.06446   0.36859   0.00000  Uiso   1.00
H763   H     0.77770   0.04659   0.34415   0.00000  Uiso   1.00
H764   H     0.98872   0.10970   0.55871   0.00000  Uiso   1.00
H765   H     0.67157   0.15633   0.58500   0.00000  Uiso   1.00
H766   H     0.97328   0.07560   0.46158   0.00000  Uiso   1.00
H767   H     0.90831   0.06535   0.43605   0.00000  Uiso   1.00
H768   H     0.95284   0.02227   0.44672   0.00000  Uiso   1.00
H769   H     0.76027   0.26801   0.56446   0.00000  Uiso   1.00
H770   H     0.69700   0.25274   0.53769   0.00000  Uiso   1.00
N771   N     0.83332   0.16666   0.61907   0.00000  Uiso   1.00
N772   N     0.83335   0.16668   0.38093   0.00000  Uiso   1.00
N773   N     0.99072   0.19406   0.44283   0.00000  Uiso   1.00
N774   N     0.67566   0.13848   0.55652   0.00000  Uiso   1.00
N775   N     0.92955   0.29215   0.50454   0.00000  Uiso   1.00
N776   N     0.73870   0.04290   0.49349   0.00000  Uiso   1.00
N777   N     0.88095   0.23446   0.38324   0.00000  Uiso   1.00
N778   N     0.78193   0.10079   0.61547   0.00000  Uiso   1.00
O779   O     0.83333   0.10558   0.53821   0.00000  Uiso   1.00
O780   O     0.74009   0.28688   0.49636   0.00000  Uiso   1.00
O781   O     0.88681   0.22842   0.62415   0.00000  Uiso   1.00
O782   O     0.78053   0.10449   0.37647   0.00000  Uiso   1.00
O783   O     0.83334   0.22775   0.46179   0.00000  Uiso   1.00
O784   O     0.83333   0.10559   0.46176   0.00000  Uiso   1.00
O785   O     0.83334   0.22774   0.53824   0.00000  Uiso   1.00
O786   O     0.75725   0.16666   0.52928   0.00000  Uiso   1.00
O787   O     0.90942   0.16667   0.47072   0.00000  Uiso   1.00
O788   O     0.75725   0.16667   0.45284   0.00000  Uiso   1.00
O789   O     0.90942   0.16666   0.54716   0.00000  Uiso   1.00
O790   O     0.92687   0.04674   0.50397   0.00000  Uiso   1.00
Zn791  Zn    0.83333   0.16666   0.55104   0.00000  Uiso   1.00
Zn792  Zn    0.83333   0.16667   0.44896   0.00000  Uiso   1.00
C793   C     0.16691   0.42029   0.50020   0.00000  Uiso   1.00
C794   C     0.11956   0.35401   0.49878   0.00000  Uiso   1.00
C795   C     0.16695   0.62393   0.50002   0.00000  Uiso   1.00
C796   C     0.16692   0.37616   0.50052   0.00000  Uiso   1.00
C797   C     0.19162   0.53168   0.35921   0.00000  Uiso   1.00
C798   C     0.14146   0.46833   0.64060   0.00000  Uiso   1.00
C799   C     0.19348   0.53054   0.64504   0.00000  Uiso   1.00
C800   C     0.14199   0.46810   0.35533   0.00000  Uiso   1.00
C801   C     0.27373   0.38569   0.46000   0.00000  Uiso   1.00
C802   C     0.06028   0.61188   0.54010   0.00000  Uiso   1.00
C803   C     0.27388   0.55547   0.63437   0.00000  Uiso   1.00
C804   C     0.16671   0.57975   0.49990   0.00000  Uiso   1.00
C805   C     0.13396   0.39730   0.37251   0.00000  Uiso   1.00
C806   C     0.06745   0.49999   0.48845   0.00000  Uiso   1.00
C807   C     0.26586   0.50001   0.51150   0.00000  Uiso   1.00
C808   C     0.01344   0.50560   0.48289   0.00000  Uiso   1.00
C809   C     0.31976   0.49409   0.51681   0.00000  Uiso   1.00
C810   C     0.21423   0.35652   0.50110   0.00000  Uiso   1.00
C811   C     0.11959   0.64365   0.50003   0.00000  Uiso   1.00
C812   C     0.21446   0.64633   0.50166   0.00000  Uiso   1.00
H813   H     0.01025   0.55653   0.44080   0.00000  Uiso   1.00
H814   H     0.04337   0.63987   0.55376   0.00000  Uiso   1.00
H815   H     0.26228   0.60648   0.47607   0.00000  Uiso   1.00
H816   H     0.26653   0.60608   0.53326   0.00000  Uiso   1.00
H817   H     0.05302   0.37046   0.52169   0.00000  Uiso   1.00
H818   H     0.04881   0.36457   0.46474   0.00000  Uiso   1.00
H819   H     0.18449   0.58694   0.39013   0.00000  Uiso   1.00
H820   H     0.23599   0.55806   0.41314   0.00000  Uiso   1.00
H821   H     0.14307   0.41299   0.60862   0.00000  Uiso   1.00
H822   H     0.09596   0.44523   0.58524   0.00000  Uiso   1.00
H823   H     0.29404   0.57246   0.60877   0.00000  Uiso   1.00
H824   H     0.32928   0.50967   0.41451   0.00000  Uiso   1.00
H825   H     0.28388   0.52163   0.63331   0.00000  Uiso   1.00
H826   H     0.28917   0.56884   0.33460   0.00000  Uiso   1.00
H827   H     0.12924   0.37893   0.40357   0.00000  Uiso   1.00
H828   H     0.17595   0.39779   0.36859   0.00000  Uiso   1.00
H829   H     0.11103   0.37992   0.34415   0.00000  Uiso   1.00
H830   H     0.32206   0.44304   0.55871   0.00000  Uiso   1.00
H831   H     0.00490   0.48966   0.58500   0.00000  Uiso   1.00
H832   H     0.30661   0.40893   0.46158   0.00000  Uiso   1.00
H833   H     0.24164   0.39869   0.43605   0.00000  Uiso   1.00
H834   H     0.28617   0.35560   0.44672   0.00000  Uiso   1.00
H835   H     0.09361   0.60134   0.56446   0.00000  Uiso   1.00
H836   H     0.03034   0.58607   0.53769   0.00000  Uiso   1.00
N837   N     0.16665   0.49999   0.61907   0.00000  Uiso   1.00
N838   N     0.16668   0.50001   0.38093   0.00000  Uiso   1.00
N839   N     0.32406   0.52740   0.44283   0.00000  Uiso   1.00
N840   N     0.00899   0.47182   0.55652   0.00000  Uiso   1.00
N841   N     0.26288   0.62548   0.50454   0.00000  Uiso   1.00
N842   N     0.07203   0.37624   0.49349   0.00000  Uiso   1.00
N843   N     0.21428   0.56779   0.38324   0.00000  Uiso   1.00
N844   N     0.11526   0.43412   0.61547   0.00000  Uiso   1.00
O845   O     0.16666   0.43892   0.53821   0.00000  Uiso   1.00
O846   O     0.07342   0.62022   0.49636   0.00000  Uiso   1.00
O847   O     0.22014   0.56175   0.62415   0.00000  Uiso   1.00
O848   O     0.11386   0.43783   0.37647   0.00000  Uiso   1.00
O849   O     0.16667   0.56108   0.46179   0.00000  Uiso   1.00
O850   O     0.16666   0.43893   0.46176   0.00000  Uiso   1.00
O851   O     0.16667   0.56107   0.53824   0.00000  Uiso   1.00
O852   O     0.09058   0.50000   0.52928   0.00000  Uiso   1.00
O853   O     0.24275   0.50000   0.47072   0.00000  Uiso   1.00
O854   O     0.09058   0.50000   0.45284   0.00000  Uiso   1.00
O855   O     0.24275   0.50000   0.54716   0.00000  Uiso   1.00
O856   O     0.26020   0.38008   0.50397   0.00000  Uiso   1.00
Zn857  Zn    0.16667   0.49999   0.55104   0.00000  Uiso   1.00
Zn858  Zn    0.16667   0.50001   0.44896   0.00000  Uiso   1.00
C859   C     0.50024   0.42029   0.50020   0.00000  Uiso   1.00
C860   C     0.45289   0.35401   0.49878   0.00000  Uiso   1.00
C861   C     0.50028   0.62393   0.50002   0.00000  Uiso   1.00
C862   C     0.50026   0.37616   0.50052   0.00000  Uiso   1.00
C863   C     0.52495   0.53168   0.35921   0.00000  Uiso   1.00
C864   C     0.47479   0.46833   0.64060   0.00000  Uiso   1.00
C865   C     0.52681   0.53054   0.64504   0.00000  Uiso   1.00
C866   C     0.47533   0.46810   0.35533   0.00000  Uiso   1.00
C867   C     0.60706   0.38569   0.46000   0.00000  Uiso   1.00
C868   C     0.39361   0.61188   0.54010   0.00000  Uiso   1.00
C869   C     0.60722   0.55547   0.63437   0.00000  Uiso   1.00
C870   C     0.50004   0.57975   0.49990   0.00000  Uiso   1.00
C871   C     0.46729   0.39730   0.37251   0.00000  Uiso   1.00
C872   C     0.40079   0.49999   0.48845   0.00000  Uiso   1.00
C873   C     0.59919   0.50001   0.51150   0.00000  Uiso   1.00
C874   C     0.34677   0.50560   0.48289   0.00000  Uiso   1.00
C875   C     0.65309   0.49409   0.51681   0.00000  Uiso   1.00
C876   C     0.54756   0.35652   0.50110   0.00000  Uiso   1.00
C877   C     0.45292   0.64365   0.50003   0.00000  Uiso   1.00
C878   C     0.54780   0.64633   0.50166   0.00000  Uiso   1.00
H879   H     0.34358   0.55653   0.44080   0.00000  Uiso   1.00
H880   H     0.37671   0.63987   0.55376   0.00000  Uiso   1.00
H881   H     0.59561   0.60648   0.47607   0.00000  Uiso   1.00
H882   H     0.59986   0.60608   0.53326   0.00000  Uiso   1.00
H883   H     0.38636   0.37046   0.52169   0.00000  Uiso   1.00
H884   H     0.38214   0.36457   0.46474   0.00000  Uiso   1.00
H885   H     0.51783   0.58694   0.39013   0.00000  Uiso   1.00
H886   H     0.56932   0.55806   0.41314   0.00000  Uiso   1.00
H887   H     0.47640   0.41299   0.60862   0.00000  Uiso   1.00
H888   H     0.42930   0.44523   0.58524   0.00000  Uiso   1.00
H889   H     0.62737   0.57246   0.60877   0.00000  Uiso   1.00
H890   H     0.66262   0.50967   0.41451   0.00000  Uiso   1.00
H891   H     0.61721   0.52163   0.63331   0.00000  Uiso   1.00
H892   H     0.62250   0.56884   0.33460   0.00000  Uiso   1.00
H893   H     0.46258   0.37893   0.40357   0.00000  Uiso   1.00
H894   H     0.50928   0.39779   0.36859   0.00000  Uiso   1.00
H895   H     0.44437   0.37992   0.34415   0.00000  Uiso   1.00
H896   H     0.65539   0.44304   0.55871   0.00000  Uiso   1.00
H897   H     0.33824   0.48966   0.58500   0.00000  Uiso   1.00
H898   H     0.63994   0.40893   0.46158   0.00000  Uiso   1.00
H899   H     0.57498   0.39869   0.43605   0.00000  Uiso   1.00
H900   H     0.61950   0.35560   0.44672   0.00000  Uiso   1.00
H901   H     0.42694   0.60134   0.56446   0.00000  Uiso   1.00
H902   H     0.36367   0.58607   0.53769   0.00000  Uiso   1.00
N903   N     0.49999   0.49999   0.61907   0.00000  Uiso   1.00
N904   N     0.50001   0.50001   0.38093   0.00000  Uiso   1.00
N905   N     0.65739   0.52740   0.44283   0.00000  Uiso   1.00
N906   N     0.34232   0.47182   0.55652   0.00000  Uiso   1.00
N907   N     0.59622   0.62548   0.50454   0.00000  Uiso   1.00
N908   N     0.40537   0.37624   0.49349   0.00000  Uiso   1.00
N909   N     0.54762   0.56779   0.38324   0.00000  Uiso   1.00
N910   N     0.44860   0.43412   0.61547   0.00000  Uiso   1.00
O911   O     0.50000   0.43892   0.53821   0.00000  Uiso   1.00
O912   O     0.40676   0.62022   0.49636   0.00000  Uiso   1.00
O913   O     0.55348   0.56175   0.62415   0.00000  Uiso   1.00
O914   O     0.44719   0.43783   0.37647   0.00000  Uiso   1.00
O915   O     0.50000   0.56108   0.46179   0.00000  Uiso   1.00
O916   O     0.50000   0.43893   0.46176   0.00000  Uiso   1.00
O917   O     0.50000   0.56107   0.53824   0.00000  Uiso   1.00
O918   O     0.42392   0.50000   0.52928   0.00000  Uiso   1.00
O919   O     0.57608   0.50000   0.47072   0.00000  Uiso   1.00
O920   O     0.42392   0.50000   0.45284   0.00000  Uiso   1.00
O921   O     0.57608   0.50000   0.54716   0.00000  Uiso   1.00
O922   O     0.59353   0.38008   0.50397   0.00000  Uiso   1.00
Zn923  Zn    0.50000   0.49999   0.55104   0.00000  Uiso   1.00
Zn924  Zn    0.50000   0.50001   0.44896   0.00000  Uiso   1.00
C925   C     0.83358   0.42029   0.50020   0.00000  Uiso   1.00
C926   C     0.78623   0.35401   0.49878   0.00000  Uiso   1.00
C927   C     0.83362   0.62393   0.50002   0.00000  Uiso   1.00
C928   C     0.83359   0.37616   0.50052   0.00000  Uiso   1.00
C929   C     0.85829   0.53168   0.35921   0.00000  Uiso   1.00
C930   C     0.80812   0.46833   0.64060   0.00000  Uiso   1.00
C931   C     0.86015   0.53054   0.64504   0.00000  Uiso   1.00
C932   C     0.80866   0.46810   0.35533   0.00000  Uiso   1.00
C933   C     0.94039   0.38569   0.46000   0.00000  Uiso   1.00
C934   C     0.72694   0.61188   0.54010   0.00000  Uiso   1.00
C935   C     0.94055   0.55547   0.63437   0.00000  Uiso   1.00
C936   C     0.83338   0.57975   0.49990   0.00000  Uiso   1.00
C937   C     0.80062   0.39730   0.37251   0.00000  Uiso   1.00
C938   C     0.73412   0.49999   0.48845   0.00000  Uiso   1.00
C939   C     0.93252   0.50001   0.51150   0.00000  Uiso   1.00
C940   C     0.68010   0.50560   0.48289   0.00000  Uiso   1.00
C941   C     0.98642   0.49409   0.51681   0.00000  Uiso   1.00
C942   C     0.88090   0.35652   0.50110   0.00000  Uiso   1.00
C943   C     0.78626   0.64365   0.50003   0.00000  Uiso   1.00
C944   C     0.88113   0.64633   0.50166   0.00000  Uiso   1.00
H945   H     0.67692   0.55653   0.44080   0.00000  Uiso   1.00
H946   H     0.71004   0.63987   0.55376   0.00000  Uiso   1.00
H947   H     0.92894   0.60648   0.47607   0.00000  Uiso   1.00
H948   H     0.93319   0.60608   0.53326   0.00000  Uiso   1.00
H949   H     0.71969   0.37046   0.52169   0.00000  Uiso   1.00
H950   H     0.71548   0.36457   0.46474   0.00000  Uiso   1.00
H951   H     0.85116   0.58694   0.39013   0.00000  Uiso   1.00
H952   H     0.90266   0.55806   0.41314   0.00000  Uiso   1.00
H953   H     0.80973   0.41299   0.60862   0.00000  Uiso   1.00
H954   H     0.76263   0.44523   0.58524   0.00000  Uiso   1.00
H955   H     0.96070   0.57246   0.60877   0.00000  Uiso   1.00
H956   H     0.99595   0.50967   0.41451   0.00000  Uiso   1.00
H957   H     0.95054   0.52163   0.63331   0.00000  Uiso   1.00
H958   H     0.95584   0.56884   0.33460   0.00000  Uiso   1.00
H959   H     0.79591   0.37893   0.40357   0.00000  Uiso   1.00
H960   H     0.84261   0.39779   0.36859   0.00000  Uiso   1.00
H961   H     0.77770   0.37992   0.34415   0.00000  Uiso   1.00
H962   H     0.98872   0.44304   0.55871   0.00000  Uiso   1.00
H963   H     0.67157   0.48966   0.58500   0.00000  Uiso   1.00
H964   H     0.97328   0.40893   0.46158   0.00000  Uiso   1.00
H965   H     0.90831   0.39869   0.43605   0.00000  Uiso   1.00
H966   H     0.95284   0.35560   0.44672   0.00000  Uiso   1.00
H967   H     0.76027   0.60134   0.56446   0.00000  Uiso   1.00
H968   H     0.69700   0.58607   0.53769   0.00000  Uiso   1.00
N969   N     0.83332   0.49999   0.61907   0.00000  Uiso   1.00
N970   N     0.83335   0.50001   0.38093   0.00000  Uiso   1.00
N971   N     0.99072   0.52740   0.44283   0.00000  Uiso   1.00
N972   N     0.67566   0.47182   0.55652   0.00000  Uiso   1.00
N973   N     0.92955   0.62548   0.50454   0.00000  Uiso   1.00
N974   N     0.73870   0.37624   0.49349   0.00000  Uiso   1.00
N975   N     0.88095   0.56779   0.38324   0.00000  Uiso   1.00
N976   N     0.78193   0.43412   0.61547   0.00000  Uiso   1.00
O977   O     0.83333   0.43892   0.53821   0.00000  Uiso   1.00
O978   O     0.74009   0.62022   0.49636   0.00000  Uiso   1.00
O979   O     0.88681   0.56175   0.62415   0.00000  Uiso   1.00
O980   O     0.78053   0.43783   0.37647   0.00000  Uiso   1.00
O981   O     0.83334   0.56108   0.46179   0.00000  Uiso   1.00
O982   O     0.83333   0.43893   0.46176   0.00000  Uiso   1.00
O983   O     0.83334   0.56107   0.53824   0.00000  Uiso   1.00
O984   O     0.75725   0.50000   0.52928   0.00000  Uiso   1.00
O985   O     0.90942   0.50000   0.47072   0.00000  Uiso   1.00
O986   O     0.75725   0.50000   0.45284   0.00000  Uiso   1.00
O987   O     0.90942   0.50000   0.54716   0.00000  Uiso   1.00
O988   O     0.92687   0.38008   0.50397   0.00000  Uiso   1.00
Zn989  Zn    0.83333   0.49999   0.55104   0.00000  Uiso   1.00
Zn990  Zn    0.83333   0.50001   0.44896   0.00000  Uiso   1.00
C991   C     0.16691   0.75362   0.50020   0.00000  Uiso   1.00
C992   C     0.11956   0.68734   0.49878   0.00000  Uiso   1.00
C993   C     0.16695   0.95726   0.50002   0.00000  Uiso   1.00
C994   C     0.16692   0.70950   0.50052   0.00000  Uiso   1.00
C995   C     0.19162   0.86501   0.35921   0.00000  Uiso   1.00
C996   C     0.14146   0.80167   0.64060   0.00000  Uiso   1.00
C997   C     0.19348   0.86388   0.64504   0.00000  Uiso   1.00
C998   C     0.14199   0.80143   0.35533   0.00000  Uiso   1.00
C999   C     0.27373   0.71903   0.46000   0.00000  Uiso   1.00
C1000  C     0.06028   0.94521   0.54010   0.00000  Uiso   1.00
C1001  C     0.27388   0.88880   0.63437   0.00000  Uiso   1.00
C1002  C     0.16671   0.91308   0.49990   0.00000  Uiso   1.00
C1003  C     0.13396   0.73064   0.37251   0.00000  Uiso   1.00
C1004  C     0.06745   0.83332   0.48845   0.00000  Uiso   1.00
C1005  C     0.26586   0.83334   0.51150   0.00000  Uiso   1.00
C1006  C     0.01344   0.83893   0.48289   0.00000  Uiso   1.00
C1007  C     0.31976   0.82743   0.51681   0.00000  Uiso   1.00
C1008  C     0.21423   0.68985   0.50110   0.00000  Uiso   1.00
C1009  C     0.11959   0.97698   0.50003   0.00000  Uiso   1.00
C1010  C     0.21446   0.97967   0.50166   0.00000  Uiso   1.00
H1011  H     0.01025   0.88986   0.44080   0.00000  Uiso   1.00
H1012  H     0.04337   0.97320   0.55376   0.00000  Uiso   1.00
H1013  H     0.26228   0.93981   0.47607   0.00000  Uiso   1.00
H1014  H     0.26653   0.93942   0.53326   0.00000  Uiso   1.00
H1015  H     0.05302   0.70379   0.52169   0.00000  Uiso   1.00
H1016  H     0.04881   0.69791   0.46474   0.00000  Uiso   1.00
H1017  H     0.18449   0.92027   0.39013   0.00000  Uiso   1.00
H1018  H     0.23599   0.89140   0.41314   0.00000  Uiso   1.00
H1019  H     0.14307   0.74632   0.60862   0.00000  Uiso   1.00
H1020  H     0.09596   0.77856   0.58524   0.00000  Uiso   1.00
H1021  H     0.29404   0.90580   0.60877   0.00000  Uiso   1.00
H1022  H     0.32928   0.84300   0.41451   0.00000  Uiso   1.00
H1023  H     0.28388   0.85497   0.63331   0.00000  Uiso   1.00
H1024  H     0.28917   0.90218   0.33460   0.00000  Uiso   1.00
H1025  H     0.12924   0.71227   0.40357   0.00000  Uiso   1.00
H1026  H     0.17595   0.73113   0.36859   0.00000  Uiso   1.00
H1027  H     0.11103   0.71325   0.34415   0.00000  Uiso   1.00
H1028  H     0.32206   0.77637   0.55871   0.00000  Uiso   1.00
H1029  H     0.00490   0.82300   0.58500   0.00000  Uiso   1.00
H1030  H     0.30661   0.74226   0.46158   0.00000  Uiso   1.00
H1031  H     0.24164   0.73202   0.43605   0.00000  Uiso   1.00
H1032  H     0.28617   0.68894   0.44672   0.00000  Uiso   1.00
H1033  H     0.09361   0.93468   0.56446   0.00000  Uiso   1.00
H1034  H     0.03034   0.91941   0.53769   0.00000  Uiso   1.00
N1035  N     0.16665   0.83332   0.61907   0.00000  Uiso   1.00
N1036  N     0.16668   0.83334   0.38093   0.00000  Uiso   1.00
N1037  N     0.32406   0.86073   0.44283   0.00000  Uiso   1.00
N1038  N     0.00899   0.80515   0.55652   0.00000  Uiso   1.00
N1039  N     0.26288   0.95882   0.50454   0.00000  Uiso   1.00
N1040  N     0.07203   0.70957   0.49349   0.00000  Uiso   1.00
N1041  N     0.21428   0.90113   0.38324   0.00000  Uiso   1.00
N1042  N     0.11526   0.76746   0.61547   0.00000  Uiso   1.00
O1043  O     0.16666   0.77225   0.53821   0.00000  Uiso   1.00
O1044  O     0.07342   0.95355   0.49636   0.00000  Uiso   1.00
O1045  O     0.22014   0.89508   0.62415   0.00000  Uiso   1.00
O1046  O     0.11386   0.77116   0.37647   0.00000  Uiso   1.00
O1047  O     0.16667   0.89442   0.46179   0.00000  Uiso   1.00
O1048  O     0.16666   0.77226   0.46176   0.00000  Uiso   1.00
O1049  O     0.16667   0.89441   0.53824   0.00000  Uiso   1.00
O1050  O     0.09058   0.83333   0.52928   0.00000  Uiso   1.00
O1051  O     0.24275   0.83334   0.47072   0.00000  Uiso   1.00
O1052  O     0.09058   0.83334   0.45284   0.00000  Uiso   1.00
O1053  O     0.24275   0.83333   0.54716   0.00000  Uiso   1.00
O1054  O     0.26020   0.71341   0.50397   0.00000  Uiso   1.00
Zn1055 Zn    0.16667   0.83333   0.55104   0.00000  Uiso   1.00
Zn1056 Zn    0.16667   0.83334   0.44896   0.00000  Uiso   1.00
C1057  C     0.50024   0.75362   0.50020   0.00000  Uiso   1.00
C1058  C     0.45289   0.68734   0.49878   0.00000  Uiso   1.00
C1059  C     0.50028   0.95726   0.50002   0.00000  Uiso   1.00
C1060  C     0.50026   0.70950   0.50052   0.00000  Uiso   1.00
C1061  C     0.52495   0.86501   0.35921   0.00000  Uiso   1.00
C1062  C     0.47479   0.80167   0.64060   0.00000  Uiso   1.00
C1063  C     0.52681   0.86388   0.64504   0.00000  Uiso   1.00
C1064  C     0.47533   0.80143   0.35533   0.00000  Uiso   1.00
C1065  C     0.60706   0.71903   0.46000   0.00000  Uiso   1.00
C1066  C     0.39361   0.94521   0.54010   0.00000  Uiso   1.00
C1067  C     0.60722   0.88880   0.63437   0.00000  Uiso   1.00
C1068  C     0.50004   0.91308   0.49990   0.00000  Uiso   1.00
C1069  C     0.46729   0.73064   0.37251   0.00000  Uiso   1.00
C1070  C     0.40079   0.83332   0.48845   0.00000  Uiso   1.00
C1071  C     0.59919   0.83334   0.51150   0.00000  Uiso   1.00
C1072  C     0.34677   0.83893   0.48289   0.00000  Uiso   1.00
C1073  C     0.65309   0.82743   0.51681   0.00000  Uiso   1.00
C1074  C     0.54756   0.68985   0.50110   0.00000  Uiso   1.00
C1075  C     0.45292   0.97698   0.50003   0.00000  Uiso   1.00
C1076  C     0.54780   0.97967   0.50166   0.00000  Uiso   1.00
H1077  H     0.34358   0.88986   0.44080   0.00000  Uiso   1.00
H1078  H     0.37671   0.97320   0.55376   0.00000  Uiso   1.00
H1079  H     0.59561   0.93981   0.47607   0.00000  Uiso   1.00
H1080  H     0.59986   0.93942   0.53326   0.00000  Uiso   1.00
H1081  H     0.38636   0.70379   0.52169   0.00000  Uiso   1.00
H1082  H     0.38214   0.69791   0.46474   0.00000  Uiso   1.00
H1083  H     0.51783   0.92027   0.39013   0.00000  Uiso   1.00
H1084  H     0.56932   0.89140   0.41314   0.00000  Uiso   1.00
H1085  H     0.47640   0.74632   0.60862   0.00000  Uiso   1.00
H1086  H     0.42930   0.77856   0.58524   0.00000  Uiso   1.00
H1087  H     0.62737   0.90580   0.60877   0.00000  Uiso   1.00
H1088  H     0.66262   0.84300   0.41451   0.00000  Uiso   1.00
H1089  H     0.61721   0.85497   0.63331   0.00000  Uiso   1.00
H1090  H     0.62250   0.90218   0.33460   0.00000  Uiso   1.00
H1091  H     0.46258   0.71227   0.40357   0.00000  Uiso   1.00
H1092  H     0.50928   0.73113   0.36859   0.00000  Uiso   1.00
H1093  H     0.44437   0.71325   0.34415   0.00000  Uiso   1.00
H1094  H     0.65539   0.77637   0.55871   0.00000  Uiso   1.00
H1095  H     0.33824   0.82300   0.58500   0.00000  Uiso   1.00
H1096  H     0.63994   0.74226   0.46158   0.00000  Uiso   1.00
H1097  H     0.57498   0.73202   0.43605   0.00000  Uiso   1.00
H1098  H     0.61950   0.68894   0.44672   0.00000  Uiso   1.00
H1099  H     0.42694   0.93468   0.56446   0.00000  Uiso   1.00
H1100  H     0.36367   0.91941   0.53769   0.00000  Uiso   1.00
N1101  N     0.49999   0.83332   0.61907   0.00000  Uiso   1.00
N1102  N     0.50001   0.83334   0.38093   0.00000  Uiso   1.00
N1103  N     0.65739   0.86073   0.44283   0.00000  Uiso   1.00
N1104  N     0.34232   0.80515   0.55652   0.00000  Uiso   1.00
N1105  N     0.59622   0.95882   0.50454   0.00000  Uiso   1.00
N1106  N     0.40537   0.70957   0.49349   0.00000  Uiso   1.00
N1107  N     0.54762   0.90113   0.38324   0.00000  Uiso   1.00
N1108  N     0.44860   0.76746   0.61547   0.00000  Uiso   1.00
O1109  O     0.50000   0.77225   0.53821   0.00000  Uiso   1.00
O1110  O     0.40676   0.95355   0.49636   0.00000  Uiso   1.00
O1111  O     0.55348   0.89508   0.62415   0.00000  Uiso   1.00
O1112  O     0.44719   0.77116   0.37647   0.00000  Uiso   1.00
O1113  O     0.50000   0.89442   0.46179   0.00000  Uiso   1.00
O1114  O     0.50000   0.77226   0.46176   0.00000  Uiso   1.00
O1115  O     0.50000   0.89441   0.53824   0.00000  Uiso   1.00
O1116  O     0.42392   0.83333   0.52928   0.00000  Uiso   1.00
O1117  O     0.57608   0.83334   0.47072   0.00000  Uiso   1.00
O1118  O     0.42392   0.83334   0.45284   0.00000  Uiso   1.00
O1119  O     0.57608   0.83333   0.54716   0.00000  Uiso   1.00
O1120  O     0.59353   0.71341   0.50397   0.00000  Uiso   1.00
Zn1121 Zn    0.50000   0.83333   0.55104   0.00000  Uiso   1.00
Zn1122 Zn    0.50000   0.83334   0.44896   0.00000  Uiso   1.00
C1123  C     0.83358   0.75362   0.50020   0.00000  Uiso   1.00
C1124  C     0.78623   0.68734   0.49878   0.00000  Uiso   1.00
C1125  C     0.83362   0.95726   0.50002   0.00000  Uiso   1.00
C1126  C     0.83359   0.70950   0.50052   0.00000  Uiso   1.00
C1127  C     0.85829   0.86501   0.35921   0.00000  Uiso   1.00
C1128  C     0.80812   0.80167   0.64060   0.00000  Uiso   1.00
C1129  C     0.86015   0.86388   0.64504   0.00000  Uiso   1.00
C1130  C     0.80866   0.80143   0.35533   0.00000  Uiso   1.00
C1131  C     0.94039   0.71903   0.46000   0.00000  Uiso   1.00
C1132  C     0.72694   0.94521   0.54010   0.00000  Uiso   1.00
C1133  C     0.94055   0.88880   0.63437   0.00000  Uiso   1.00
C1134  C     0.83338   0.91308   0.49990   0.00000  Uiso   1.00
C1135  C     0.80062   0.73064   0.37251   0.00000  Uiso   1.00
C1136  C     0.73412   0.83332   0.48845   0.00000  Uiso   1.00
C1137  C     0.93252   0.83334   0.51150   0.00000  Uiso   1.00
C1138  C     0.68010   0.83893   0.48289   0.00000  Uiso   1.00
C1139  C     0.98642   0.82743   0.51681   0.00000  Uiso   1.00
C1140  C     0.88090   0.68985   0.50110   0.00000  Uiso   1.00
C1141  C     0.78626   0.97698   0.50003   0.00000  Uiso   1.00
C1142  C     0.88113   0.97967   0.50166   0.00000  Uiso   1.00
H1143  H     0.67692   0.88986   0.44080   0.00000  Uiso   1.00
H1144  H     0.71004   0.97320   0.55376   0.00000  Uiso   1.00
H1145  H     0.92894   0.93981   0.47607   0.00000  Uiso   1.00
H1146  H     0.93319   0.93942   0.53326   0.00000  Uiso   1.00
H1147  H     0.71969   0.70379   0.52169   0.00000  Uiso   1.00
H1148  H     0.71548   0.69791   0.46474   0.00000  Uiso   1.00
H1149  H     0.85116   0.92027   0.39013   0.00000  Uiso   1.00
H1150  H     0.90266   0.89140   0.41314   0.00000  Uiso   1.00
H1151  H     0.80973   0.74632   0.60862   0.00000  Uiso   1.00
H1152  H     0.76263   0.77856   0.58524   0.00000  Uiso   1.00
H1153  H     0.96070   0.90580   0.60877   0.00000  Uiso   1.00
H1154  H     0.99595   0.84300   0.41451   0.00000  Uiso   1.00
H1155  H     0.95054   0.85497   0.63331   0.00000  Uiso   1.00
H1156  H     0.95584   0.90218   0.33460   0.00000  Uiso   1.00
H1157  H     0.79591   0.71227   0.40357   0.00000  Uiso   1.00
H1158  H     0.84261   0.73113   0.36859   0.00000  Uiso   1.00
H1159  H     0.77770   0.71325   0.34415   0.00000  Uiso   1.00
H1160  H     0.98872   0.77637   0.55871   0.00000  Uiso   1.00
H1161  H     0.67157   0.82300   0.58500   0.00000  Uiso   1.00
H1162  H     0.97328   0.74226   0.46158   0.00000  Uiso   1.00
H1163  H     0.90831   0.73202   0.43605   0.00000  Uiso   1.00
H1164  H     0.95284   0.68894   0.44672   0.00000  Uiso   1.00
H1165  H     0.76027   0.93468   0.56446   0.00000  Uiso   1.00
H1166  H     0.69700   0.91941   0.53769   0.00000  Uiso   1.00
N1167  N     0.83332   0.83332   0.61907   0.00000  Uiso   1.00
N1168  N     0.83335   0.83334   0.38093   0.00000  Uiso   1.00
N1169  N     0.99072   0.86073   0.44283   0.00000  Uiso   1.00
N1170  N     0.67566   0.80515   0.55652   0.00000  Uiso   1.00
N1171  N     0.92955   0.95882   0.50454   0.00000  Uiso   1.00
N1172  N     0.73870   0.70957   0.49349   0.00000  Uiso   1.00
N1173  N     0.88095   0.90113   0.38324   0.00000  Uiso   1.00
N1174  N     0.78193   0.76746   0.61547   0.00000  Uiso   1.00
O1175  O     0.83333   0.77225   0.53821   0.00000  Uiso   1.00
O1176  O     0.74009   0.95355   0.49636   0.00000  Uiso   1.00
O1177  O     0.88681   0.89508   0.62415   0.00000  Uiso   1.00
O1178  O     0.78053   0.77116   0.37647   0.00000  Uiso   1.00
O1179  O     0.83334   0.89442   0.46179   0.00000  Uiso   1.00
O1180  O     0.83333   0.77226   0.46176   0.00000  Uiso   1.00
O1181  O     0.83334   0.89441   0.53824   0.00000  Uiso   1.00
O1182  O     0.75725   0.83333   0.52928   0.00000  Uiso   1.00
O1183  O     0.90942   0.83334   0.47072   0.00000  Uiso   1.00
O1184  O     0.75725   0.83334   0.45284   0.00000  Uiso   1.00
O1185  O     0.90942   0.83333   0.54716   0.00000  Uiso   1.00
O1186  O     0.92687   0.71341   0.50397   0.00000  Uiso   1.00
Zn1187 Zn    0.83333   0.83333   0.55104   0.00000  Uiso   1.00
Zn1188 Zn    0.83333   0.83334   0.44896   0.00000  Uiso   1.00
C1189  C     0.16691   0.08696   0.83353   0.00000  Uiso   1.00
C1190  C     0.11956   0.02067   0.83211   0.00000  Uiso   1.00
C1191  C     0.16695   0.29059   0.83336   0.00000  Uiso   1.00
C1192  C     0.16692   0.04283   0.83386   0.00000  Uiso   1.00
C1193  C     0.19162   0.19834   0.69254   0.00000  Uiso   1.00
C1194  C     0.14146   0.13500   0.97394   0.00000  Uiso   1.00
C1195  C     0.19348   0.19721   0.97838   0.00000  Uiso   1.00
C1196  C     0.14199   0.13477   0.68866   0.00000  Uiso   1.00
C1197  C     0.27373   0.05236   0.79334   0.00000  Uiso   1.00
C1198  C     0.06028   0.27854   0.87343   0.00000  Uiso   1.00
C1199  C     0.27388   0.22213   0.96770   0.00000  Uiso   1.00
C1200  C     0.16671   0.24641   0.83323   0.00000  Uiso   1.00
C1201  C     0.13396   0.06397   0.70584   0.00000  Uiso   1.00
C1202  C     0.06745   0.16665   0.82179   0.00000  Uiso   1.00
C1203  C     0.26586   0.16667   0.84483   0.00000  Uiso   1.00
C1204  C     0.01344   0.17226   0.81622   0.00000  Uiso   1.00
C1205  C     0.31976   0.16076   0.85015   0.00000  Uiso   1.00
C1206  C     0.21423   0.02318   0.83443   0.00000  Uiso   1.00
C1207  C     0.11959   0.31032   0.83336   0.00000  Uiso   1.00
C1208  C     0.21446   0.31300   0.83499   0.00000  Uiso   1.00
H1209  H     0.01025   0.22320   0.77413   0.00000  Uiso   1.00
H1210  H     0.04337   0.30653   0.88710   0.00000  Uiso   1.00
H1211  H     0.26228   0.27315   0.80941   0.00000  Uiso   1.00
H1212  H     0.26653   0.27275   0.86659   0.00000  Uiso   1.00
H1213  H     0.05302   0.03712   0.85502   0.00000  Uiso   1.00
H1214  H     0.04881   0.03124   0.79807   0.00000  Uiso   1.00
H1215  H     0.18449   0.25360   0.72347   0.00000  Uiso   1.00
H1216  H     0.23599   0.22473   0.74648   0.00000  Uiso   1.00
H1217  H     0.14307   0.07966   0.94195   0.00000  Uiso   1.00
H1218  H     0.09596   0.11190   0.91857   0.00000  Uiso   1.00
H1219  H     0.29404   0.23913   0.94210   0.00000  Uiso   1.00
H1220  H     0.32928   0.17633   0.74785   0.00000  Uiso   1.00
H1221  H     0.28388   0.18830   0.96665   0.00000  Uiso   1.00
H1222  H     0.28917   0.23551   0.66794   0.00000  Uiso   1.00
H1223  H     0.12924   0.04560   0.73690   0.00000  Uiso   1.00
H1224  H     0.17595   0.06446   0.70192   0.00000  Uiso   1.00
H1225  H     0.11103   0.04659   0.67748   0.00000  Uiso   1.00
H1226  H     0.32206   0.10970   0.89204   0.00000  Uiso   1.00
H1227  H     0.00490   0.15633   0.91833   0.00000  Uiso   1.00
H1228  H     0.30661   0.07560   0.79492   0.00000  Uiso   1.00
H1229  H     0.24164   0.06535   0.76938   0.00000  Uiso   1.00
H1230  H     0.28617   0.02227   0.78005   0.00000  Uiso   1.00
H1231  H     0.09361   0.26801   0.89780   0.00000  Uiso   1.00
H1232  H     0.03034   0.25274   0.87103   0.00000  Uiso   1.00
N1233  N     0.16665   0.16666   0.95240   0.00000  Uiso   1.00
N1234  N     0.16668   0.16668   0.71427   0.00000  Uiso   1.00
N1235  N     0.32406   0.19406   0.77616   0.00000  Uiso   1.00
N1236  N     0.00899   0.13848   0.88986   0.00000  Uiso   1.00
N1237  N     0.26288   0.29215   0.83787   0.00000  Uiso   1.00
N1238  N     0.07203   0.04290   0.82682   0.00000  Uiso   1.00
N1239  N     0.21428   0.23446   0.71658   0.00000  Uiso   1.00
N1240  N     0.11526   0.10079   0.94881   0.00000  Uiso   1.00
O1241  O     0.16666   0.10558   0.87154   0.00000  Uiso   1.00
O1242  O     0.07342   0.28688   0.82969   0.00000  Uiso   1.00
O1243  O     0.22014   0.22842   0.95748   0.00000  Uiso   1.00
O1244  O     0.11386   0.10449   0.70980   0.00000  Uiso   1.00
O1245  O     0.16667   0.22775   0.79513   0.00000  Uiso   1.00
O1246  O     0.16666   0.10559   0.79510   0.00000  Uiso   1.00
O1247  O     0.16667   0.22774   0.87157   0.00000  Uiso   1.00
O1248  O     0.09058   0.16666   0.86261   0.00000  Uiso   1.00
O1249  O     0.24275   0.16667   0.80405   0.00000  Uiso   1.00
O1250  O     0.09058   0.16667   0.78617   0.00000  Uiso   1.00
O1251  O     0.24275   0.16666   0.88050   0.00000  Uiso   1.00
O1252  O     0.26020   0.04674   0.83730   0.00000  Uiso   1.00
Zn1253 Zn    0.16667   0.16666   0.88437   0.00000  Uiso   1.00
Zn1254 Zn    0.16667   0.16667   0.78229   0.00000  Uiso   1.00
C1255  C     0.50024   0.08696   0.83353   0.00000  Uiso   1.00
C1256  C     0.45289   0.02067   0.83211   0.00000  Uiso   1.00
C1257  C     0.50028   0.29059   0.83336   0.00000  Uiso   1.00
C1258  C     0.50026   0.04283   0.83386   0.00000  Uiso   1.00
C1259  C     0.52495   0.19834   0.69254   0.00000  Uiso   1.00
C1260  C     0.47479   0.13500   0.97394   0.00000  Uiso   1.00
C1261  C     0.52681   0.19721   0.97838   0.00000  Uiso   1.00
C1262  C     0.47533   0.13477   0.68866   0.00000  Uiso   1.00
C1263  C     0.60706   0.05236   0.79334   0.00000  Uiso   1.00
C1264  C     0.39361   0.27854   0.87343   0.00000  Uiso   1.00
C1265  C     0.60722   0.22213   0.96770   0.00000  Uiso   1.00
C1266  C     0.50004   0.24641   0.83323   0.00000  Uiso   1.00
C1267  C     0.46729   0.06397   0.70584   0.00000  Uiso   1.00
C1268  C     0.40079   0.16665   0.82179   0.00000  Uiso   1.00
C1269  C     0.59919   0.16667   0.84483   0.00000  Uiso   1.00
C1270  C     0.34677   0.17226   0.81622   0.00000  Uiso   1.00
C1271  C     0.65309   0.16076   0.85015   0.00000  Uiso   1.00
C1272  C     0.54756   0.02318   0.83443   0.00000  Uiso   1.00
C1273  C     0.45292   0.31032   0.83336   0.00000  Uiso   1.00
C1274  C     0.54780   0.31300   0.83499   0.00000  Uiso   1.00
H1275  H     0.34358   0.22320   0.77413   0.00000  Uiso   1.00
H1276  H     0.37671   0.30653   0.88710   0.00000  Uiso   1.00
H1277  H     0.59561   0.27315   0.80941   0.00000  Uiso   1.00
H1278  H     0.59986   0.27275   0.86659   0.00000  Uiso   1.00
H1279  H     0.38636   0.03712   0.85502   0.00000  Uiso   1.00
H1280  H     0.38214   0.03124   0.79807   0.00000  Uiso   1.00
H1281  H     0.51783   0.25360   0.72347   0.00000  Uiso   1.00
H1282  H     0.56932   0.22473   0.74648   0.00000  Uiso   1.00
H1283  H     0.47640   0.07966   0.94195   0.00000  Uiso   1.00
H1284  H     0.42930   0.11190   0.91857   0.00000  Uiso   1.00
H1285  H     0.62737   0.23913   0.94210   0.00000  Uiso   1.00
H1286  H     0.66262   0.17633   0.74785   0.00000  Uiso   1.00
H1287  H     0.61721   0.18830   0.96665   0.00000  Uiso   1.00
H1288  H     0.62250   0.23551   0.66794   0.00000  Uiso   1.00
H1289  H     0.46258   0.04560   0.73690   0.00000  Uiso   1.00
H1290  H     0.50928   0.06446   0.70192   0.00000  Uiso   1.00
H1291  H     0.44437   0.04659   0.67748   0.00000  Uiso   1.00
H1292  H     0.65539   0.10970   0.89204   0.00000  Uiso   1.00
H1293  H     0.33824   0.15633   0.91833   0.00000  Uiso   1.00
H1294  H     0.63994   0.07560   0.79492   0.00000  Uiso   1.00
H1295  H     0.57498   0.06535   0.76938   0.00000  Uiso   1.00
H1296  H     0.61950   0.02227   0.78005   0.00000  Uiso   1.00
H1297  H     0.42694   0.26801   0.89780   0.00000  Uiso   1.00
H1298  H     0.36367   0.25274   0.87103   0.00000  Uiso   1.00
N1299  N     0.49999   0.16666   0.95240   0.00000  Uiso   1.00
N1300  N     0.50001   0.16668   0.71427   0.00000  Uiso   1.00
N1301  N     0.65739   0.19406   0.77616   0.00000  Uiso   1.00
N1302  N     0.34232   0.13848   0.88986   0.00000  Uiso   1.00
N1303  N     0.59622   0.29215   0.83787   0.00000  Uiso   1.00
N1304  N     0.40537   0.04290   0.82682   0.00000  Uiso   1.00
N1305  N     0.54762   0.23446   0.71658   0.00000  Uiso   1.00
N1306  N     0.44860   0.10079   0.94881   0.00000  Uiso   1.00
O1307  O     0.50000   0.10558   0.87154   0.00000  Uiso   1.00
O1308  O     0.40676   0.28688   0.82969   0.00000  Uiso   1.00
O1309  O     0.55348   0.22842   0.95748   0.00000  Uiso   1.00
O1310  O     0.44719   0.10449   0.70980   0.00000  Uiso   1.00
O1311  O     0.50000   0.22775   0.79513   0.00000  Uiso   1.00
O1312  O     0.50000   0.10559   0.79510   0.00000  Uiso   1.00
O1313  O     0.50000   0.22774   0.87157   0.00000  Uiso   1.00
O1314  O     0.42392   0.16666   0.86261   0.00000  Uiso   1.00
O1315  O     0.57608   0.16667   0.80405   0.00000  Uiso   1.00
O1316  O     0.42392   0.16667   0.78617   0.00000  Uiso   1.00
O1317  O     0.57608   0.16666   0.88050   0.00000  Uiso   1.00
O1318  O     0.59353   0.04674   0.83730   0.00000  Uiso   1.00
Zn1319 Zn    0.50000   0.16666   0.88437   0.00000  Uiso   1.00
Zn1320 Zn    0.50000   0.16667   0.78229   0.00000  Uiso   1.00
C1321  C     0.83358   0.08696   0.83353   0.00000  Uiso   1.00
C1322  C     0.78623   0.02067   0.83211   0.00000  Uiso   1.00
C1323  C     0.83362   0.29059   0.83336   0.00000  Uiso   1.00
C1324  C     0.83359   0.04283   0.83386   0.00000  Uiso   1.00
C1325  C     0.85829   0.19834   0.69254   0.00000  Uiso   1.00
C1326  C     0.80812   0.13500   0.97394   0.00000  Uiso   1.00
C1327  C     0.86015   0.19721   0.97838   0.00000  Uiso   1.00
C1328  C     0.80866   0.13477   0.68866   0.00000  Uiso   1.00
C1329  C     0.94039   0.05236   0.79334   0.00000  Uiso   1.00
C1330  C     0.72694   0.27854   0.87343   0.00000  Uiso   1.00
C1331  C     0.94055   0.22213   0.96770   0.00000  Uiso   1.00
C1332  C     0.83338   0.24641   0.83323   0.00000  Uiso   1.00
C1333  C     0.80062   0.06397   0.70584   0.00000  Uiso   1.00
C1334  C     0.73412   0.16665   0.82179   0.00000  Uiso   1.00
C1335  C     0.93252   0.16667   0.84483   0.00000  Uiso   1.00
C1336  C     0.68010   0.17226   0.81622   0.00000  Uiso   1.00
C1337  C     0.98642   0.16076   0.85015   0.00000  Uiso   1.00
C1338  C     0.88090   0.02318   0.83443   0.00000  Uiso   1.00
C1339  C     0.78626   0.31032   0.83336   0.00000  Uiso   1.00
C1340  C     0.88113   0.31300   0.83499   0.00000  Uiso   1.00
H1341  H     0.67692   0.22320   0.77413   0.00000  Uiso   1.00
H1342  H     0.71004   0.30653   0.88710   0.00000  Uiso   1.00
H1343  H     0.92894   0.27315   0.80941   0.00000  Uiso   1.00
H1344  H     0.93319   0.27275   0.86659   0.00000  Uiso   1.00
H1345  H     0.71969   0.03712   0.85502   0.00000  Uiso   1.00
H1346  H     0.71548   0.03124   0.79807   0.00000  Uiso   1.00
H1347  H     0.85116   0.25360   0.72347   0.00000  Uiso   1.00
H1348  H     0.90266   0.22473   0.74648   0.00000  Uiso   1.00
H1349  H     0.80973   0.07966   0.94195   0.00000  Uiso   1.00
H1350  H     0.76263   0.11190   0.91857   0.00000  Uiso   1.00
H1351  H     0.96070   0.23913   0.94210   0.00000  Uiso   1.00
H1352  H     0.99595   0.17633   0.74785   0.00000  Uiso   1.00
H1353  H     0.95054   0.18830   0.96665   0.00000  Uiso   1.00
H1354  H     0.95584   0.23551   0.66794   0.00000  Uiso   1.00
H1355  H     0.79591   0.04560   0.73690   0.00000  Uiso   1.00
H1356  H     0.84261   0.06446   0.70192   0.00000  Uiso   1.00
H1357  H     0.77770   0.04659   0.67748   0.00000  Uiso   1.00
H1358  H     0.98872   0.10970   0.89204   0.00000  Uiso   1.00
H1359  H     0.67157   0.15633   0.91833   0.00000  Uiso   1.00
H1360  H     0.97328   0.07560   0.79492   0.00000  Uiso   1.00
H1361  H     0.90831   0.06535   0.76938   0.00000  Uiso   1.00
H1362  H     0.95284   0.02227   0.78005   0.00000  Uiso   1.00
H1363  H     0.76027   0.26801   0.89780   0.00000  Uiso   1.00
H1364  H     0.69700   0.25274   0.87103   0.00000  Uiso   1.00
N1365  N     0.83332   0.16666   0.95240   0.00000  Uiso   1.00
N1366  N     0.83335   0.16668   0.71427   0.00000  Uiso   1.00
N1367  N     0.99072   0.19406   0.77616   0.00000  Uiso   1.00
N1368  N     0.67566   0.13848   0.88986   0.00000  Uiso   1.00
N1369  N     0.92955   0.29215   0.83787   0.00000  Uiso   1.00
N1370  N     0.73870   0.04290   0.82682   0.00000  Uiso   1.00
N1371  N     0.88095   0.23446   0.71658   0.00000  Uiso   1.00
N1372  N     0.78193   0.10079   0.94881   0.00000  Uiso   1.00
O1373  O     0.83333   0.10558   0.87154   0.00000  Uiso   1.00
O1374  O     0.74009   0.28688   0.82969   0.00000  Uiso   1.00
O1375  O     0.88681   0.22842   0.95748   0.00000  Uiso   1.00
O1376  O     0.78053   0.10449   0.70980   0.00000  Uiso   1.00
O1377  O     0.83334   0.22775   0.79513   0.00000  Uiso   1.00
O1378  O     0.83333   0.10559   0.79510   0.00000  Uiso   1.00
O1379  O     0.83334   0.22774   0.87157   0.00000  Uiso   1.00
O1380  O     0.75725   0.16666   0.86261   0.00000  Uiso   1.00
O1381  O     0.90942   0.16667   0.80405   0.00000  Uiso   1.00
O1382  O     0.75725   0.16667   0.78617   0.00000  Uiso   1.00
O1383  O     0.90942   0.16666   0.88050   0.00000  Uiso   1.00
O1384  O     0.92687   0.04674   0.83730   0.00000  Uiso   1.00
Zn1385 Zn    0.83333   0.16666   0.88437   0.00000  Uiso   1.00
Zn1386 Zn    0.83333   0.16667   0.78229   0.00000  Uiso   1.00
C1387  C     0.16691   0.42029   0.83353   0.00000  Uiso   1.00
C1388  C     0.11956   0.35401   0.83211   0.00000  Uiso   1.00
C1389  C     0.16695   0.62393   0.83336   0.00000  Uiso   1.00
C1390  C     0.16692   0.37616   0.83386   0.00000  Uiso   1.00
C1391  C     0.19162   0.53168   0.69254   0.00000  Uiso   1.00
C1392  C     0.14146   0.46833   0.97394   0.00000  Uiso   1.00
C1393  C     0.19348   0.53054   0.97838   0.00000  Uiso   1.00
C1394  C     0.14199   0.46810   0.68866   0.00000  Uiso   1.00
C1395  C     0.27373   0.38569   0.79334   0.00000  Uiso   1.00
C1396  C     0.06028   0.61188   0.87343   0.00000  Uiso   1.00
C1397  C     0.27388   0.55547   0.96770   0.00000  Uiso   1.00
C1398  C     0.16671   0.57975   0.83323   0.00000  Uiso   1.00
C1399  C     0.13396   0.39730   0.70584   0.00000  Uiso   1.00
C1400  C     0.06745   0.49999   0.82179   0.00000  Uiso   1.00
C1401  C     0.26586   0.50001   0.84483   0.00000  Uiso   1.00
C1402  C     0.01344   0.50560   0.81622   0.00000  Uiso   1.00
C1403  C     0.31976   0.49409   0.85015   0.00000  Uiso   1.00
C1404  C     0.21423   0.35652   0.83443   0.00000  Uiso   1.00
C1405  C     0.11959   0.64365   0.83336   0.00000  Uiso   1.00
C1406  C     0.21446   0.64633   0.83499   0.00000  Uiso   1.00
H1407  H     0.01025   0.55653   0.77413   0.00000  Uiso   1.00
H1408  H     0.04337   0.63987   0.88710   0.00000  Uiso   1.00
H1409  H     0.26228   0.60648   0.80941   0.00000  Uiso   1.00
H1410  H     0.26653   0.60608   0.86659   0.00000  Uiso   1.00
H1411  H     0.05302   0.37046   0.85502   0.00000  Uiso   1.00
H1412  H     0.04881   0.36457   0.79807   0.00000  Uiso   1.00
H1413  H     0.18449   0.58694   0.72347   0.00000  Uiso   1.00
H1414  H     0.23599   0.55806   0.74648   0.00000  Uiso   1.00
H1415  H     0.14307   0.41299   0.94195   0.00000  Uiso   1.00
H1416  H     0.09596   0.44523   0.91857   0.00000  Uiso   1.00
H1417  H     0.29404   0.57246   0.94210   0.00000  Uiso   1.00
H1418  H     0.32928   0.50967   0.74785   0.00000  Uiso   1.00
H1419  H     0.28388   0.52163   0.96665   0.00000  Uiso   1.00
H1420  H     0.28917   0.56884   0.66794   0.00000  Uiso   1.00
H1421  H     0.12924   0.37893   0.73690   0.00000  Uiso   1.00
H1422  H     0.17595   0.39779   0.70192   0.00000  Uiso   1.00
H1423  H     0.11103   0.37992   0.67748   0.00000  Uiso   1.00
H1424  H     0.32206   0.44304   0.89204   0.00000  Uiso   1.00
H1425  H     0.00490   0.48966   0.91833   0.00000  Uiso   1.00
H1426  H     0.30661   0.40893   0.79492   0.00000  Uiso   1.00
H1427  H     0.24164   0.39869   0.76938   0.00000  Uiso   1.00
H1428  H     0.28617   0.35560   0.78005   0.00000  Uiso   1.00
H1429  H     0.09361   0.60134   0.89780   0.00000  Uiso   1.00
H1430  H     0.03034   0.58607   0.87103   0.00000  Uiso   1.00
N1431  N     0.16665   0.49999   0.95240   0.00000  Uiso   1.00
N1432  N     0.16668   0.50001   0.71427   0.00000  Uiso   1.00
N1433  N     0.32406   0.52740   0.77616   0.00000  Uiso   1.00
N1434  N     0.00899   0.47182   0.88986   0.00000  Uiso   1.00
N1435  N     0.26288   0.62548   0.83787   0.00000  Uiso   1.00
N1436  N     0.07203   0.37624   0.82682   0.00000  Uiso   1.00
N1437  N     0.21428   0.56779   0.71658   0.00000  Uiso   1.00
N1438  N     0.11526   0.43412   0.94881   0.00000  Uiso   1.00
O1439  O     0.16666   0.43892   0.87154   0.00000  Uiso   1.00
O1440  O     0.07342   0.62022   0.82969   0.00000  Uiso   1.00
O1441  O     0.22014   0.56175   0.95748   0.00000  Uiso   1.00
O1442  O     0.11386   0.43783   0.70980   0.00000  Uiso   1.00
O1443  O     0.16667   0.56108   0.79513   0.00000  Uiso   1.00
O1444  O     0.16666   0.43893   0.79510   0.00000  Uiso   1.00
O1445  O     0.16667   0.56107   0.87157   0.00000  Uiso   1.00
O1446  O     0.09058   0.50000   0.86261   0.00000  Uiso   1.00
O1447  O     0.24275   0.50000   0.80405   0.00000  Uiso   1.00
O1448  O     0.09058   0.50000   0.78617   0.00000  Uiso   1.00
O1449  O     0.24275   0.50000   0.88050   0.00000  Uiso   1.00
O1450  O     0.26020   0.38008   0.83730   0.00000  Uiso   1.00
Zn1451 Zn    0.16667   0.49999   0.88437   0.00000  Uiso   1.00
Zn1452 Zn    0.16667   0.50001   0.78229   0.00000  Uiso   1.00
C1453  C     0.50024   0.42029   0.83353   0.00000  Uiso   1.00
C1454  C     0.45289   0.35401   0.83211   0.00000  Uiso   1.00
C1455  C     0.50028   0.62393   0.83336   0.00000  Uiso   1.00
C1456  C     0.50026   0.37616   0.83386   0.00000  Uiso   1.00
C1457  C     0.52495   0.53168   0.69254   0.00000  Uiso   1.00
C1458  C     0.47479   0.46833   0.97394   0.00000  Uiso   1.00
C1459  C     0.52681   0.53054   0.97838   0.00000  Uiso   1.00
C1460  C     0.47533   0.46810   0.68866   0.00000  Uiso   1.00
C1461  C     0.60706   0.38569   0.79334   0.00000  Uiso   1.00
C1462  C     0.39361   0.61188   0.87343   0.00000  Uiso   1.00
C1463  C     0.60722   0.55547   0.96770   0.00000  Uiso   1.00
C1464  C     0.50004   0.57975   0.83323   0.00000  Uiso   1.00
C1465  C     0.46729   0.39730   0.70584   0.00000  Uiso   1.00
C1466  C     0.40079   0.49999   0.82179   0.00000  Uiso   1.00
C1467  C     0.59919   0.50001   0.84483   0.00000  Uiso   1.00
C1468  C     0.34677   0.50560   0.81622   0.00000  Uiso   1.00
C1469  C     0.65309   0.49409   0.85015   0.00000  Uiso   1.00
C1470  C     0.54756   0.35652   0.83443   0.00000  Uiso   1.00
C1471  C     0.45292   0.64365   0.83336   0.00000  Uiso   1.00
C1472  C     0.54780   0.64633   0.83499   0.00000  Uiso   1.00
H1473  H     0.34358   0.55653   0.77413   0.00000  Uiso   1.00
H1474  H     0.37671   0.63987   0.88710   0.00000  Uiso   1.00
H1475  H     0.59561   0.60648   0.80941   0.00000  Uiso   1.00
H1476  H     0.59986   0.60608   0.86659   0.00000  Uiso   1.00
H1477  H     0.38636   0.37046   0.85502   0.00000  Uiso   1.00
H1478  H     0.38214   0.36457   0.79807   0.00000  Uiso   1.00
H1479  H     0.51783   0.58694   0.72347   0.00000  Uiso   1.00
H1480  H     0.56932   0.55806   0.74648   0.00000  Uiso   1.00
H1481  H     0.47640   0.41299   0.94195   0.00000  Uiso   1.00
H1482  H     0.42930   0.44523   0.91857   0.00000  Uiso   1.00
H1483  H     0.62737   0.57246   0.94210   0.00000  Uiso   1.00
H1484  H     0.66262   0.50967   0.74785   0.00000  Uiso   1.00
H1485  H     0.61721   0.52163   0.96665   0.00000  Uiso   1.00
H1486  H     0.62250   0.56884   0.66794   0.00000  Uiso   1.00
H1487  H     0.46258   0.37893   0.73690   0.00000  Uiso   1.00
H1488  H     0.50928   0.39779   0.70192   0.00000  Uiso   1.00
H1489  H     0.44437   0.37992   0.67748   0.00000  Uiso   1.00
H1490  H     0.65539   0.44304   0.89204   0.00000  Uiso   1.00
H1491  H     0.33824   0.48966   0.91833   0.00000  Uiso   1.00
H1492  H     0.63994   0.40893   0.79492   0.00000  Uiso   1.00
H1493  H     0.57498   0.39869   0.76938   0.00000  Uiso   1.00
H1494  H     0.61950   0.35560   0.78005   0.00000  Uiso   1.00
H1495  H     0.42694   0.60134   0.89780   0.00000  Uiso   1.00
H1496  H     0.36367   0.58607   0.87103   0.00000  Uiso   1.00
N1497  N     0.49999   0.49999   0.95240   0.00000  Uiso   1.00
N1498  N     0.50001   0.50001   0.71427   0.00000  Uiso   1.00
N1499  N     0.65739   0.52740   0.77616   0.00000  Uiso   1.00
N1500  N     0.34232   0.47182   0.88986   0.00000  Uiso   1.00
N1501  N     0.59622   0.62548   0.83787   0.00000  Uiso   1.00
N1502  N     0.40537   0.37624   0.82682   0.00000  Uiso   1.00
N1503  N     0.54762   0.56779   0.71658   0.00000  Uiso   1.00
N1504  N     0.44860   0.43412   0.94881   0.00000  Uiso   1.00
O1505  O     0.50000   0.43892   0.87154   0.00000  Uiso   1.00
O1506  O     0.40676   0.62022   0.82969   0.00000  Uiso   1.00
O1507  O     0.55348   0.56175   0.95748   0.00000  Uiso   1.00
O1508  O     0.44719   0.43783   0.70980   0.00000  Uiso   1.00
O1509  O     0.50000   0.56108   0.79513   0.00000  Uiso   1.00
O1510  O     0.50000   0.43893   0.79510   0.00000  Uiso   1.00
O1511  O     0.50000   0.56107   0.87157   0.00000  Uiso   1.00
O1512  O     0.42392   0.50000   0.86261   0.00000  Uiso   1.00
O1513  O     0.57608   0.50000   0.80405   0.00000  Uiso   1.00
O1514  O     0.42392   0.50000   0.78617   0.00000  Uiso   1.00
O1515  O     0.57608   0.50000   0.88050   0.00000  Uiso   1.00
O1516  O     0.59353   0.38008   0.83730   0.00000  Uiso   1.00
Zn1517 Zn    0.50000   0.49999   0.88437   0.00000  Uiso   1.00
Zn1518 Zn    0.50000   0.50001   0.78229   0.00000  Uiso   1.00
C1519  C     0.83358   0.42029   0.83353   0.00000  Uiso   1.00
C1520  C     0.78623   0.35401   0.83211   0.00000  Uiso   1.00
C1521  C     0.83362   0.62393   0.83336   0.00000  Uiso   1.00
C1522  C     0.83359   0.37616   0.83386   0.00000  Uiso   1.00
C1523  C     0.85829   0.53168   0.69254   0.00000  Uiso   1.00
C1524  C     0.80812   0.46833   0.97394   0.00000  Uiso   1.00
C1525  C     0.86015   0.53054   0.97838   0.00000  Uiso   1.00
C1526  C     0.80866   0.46810   0.68866   0.00000  Uiso   1.00
C1527  C     0.94039   0.38569   0.79334   0.00000  Uiso   1.00
C1528  C     0.72694   0.61188   0.87343   0.00000  Uiso   1.00
C1529  C     0.94055   0.55547   0.96770   0.00000  Uiso   1.00
C1530  C     0.83338   0.57975   0.83323   0.00000  Uiso   1.00
C1531  C     0.80062   0.39730   0.70584   0.00000  Uiso   1.00
C1532  C     0.73412   0.49999   0.82179   0.00000  Uiso   1.00
C1533  C     0.93252   0.50001   0.84483   0.00000  Uiso   1.00
C1534  C     0.68010   0.50560   0.81622   0.00000  Uiso   1.00
C1535  C     0.98642   0.49409   0.85015   0.00000  Uiso   1.00
C1536  C     0.88090   0.35652   0.83443   0.00000  Uiso   1.00
C1537  C     0.78626   0.64365   0.83336   0.00000  Uiso   1.00
C1538  C     0.88113   0.64633   0.83499   0.00000  Uiso   1.00
H1539  H     0.67692   0.55653   0.77413   0.00000  Uiso   1.00
H1540  H     0.71004   0.63987   0.88710   0.00000  Uiso   1.00
H1541  H     0.92894   0.60648   0.80941   0.00000  Uiso   1.00
H1542  H     0.93319   0.60608   0.86659   0.00000  Uiso   1.00
H1543  H     0.71969   0.37046   0.85502   0.00000  Uiso   1.00
H1544  H     0.71548   0.36457   0.79807   0.00000  Uiso   1.00
H1545  H     0.85116   0.58694   0.72347   0.00000  Uiso   1.00
H1546  H     0.90266   0.55806   0.74648   0.00000  Uiso   1.00
H1547  H     0.80973   0.41299   0.94195   0.00000  Uiso   1.00
H1548  H     0.76263   0.44523   0.91857   0.00000  Uiso   1.00
H1549  H     0.96070   0.57246   0.94210   0.00000  Uiso   1.00
H1550  H     0.99595   0.50967   0.74785   0.00000  Uiso   1.00
H1551  H     0.95054   0.52163   0.96665   0.00000  Uiso   1.00
H1552  H     0.95584   0.56884   0.66794   0.00000  Uiso   1.00
H1553  H     0.79591   0.37893   0.73690   0.00000  Uiso   1.00
H1554  H     0.84261   0.39779   0.70192   0.00000  Uiso   1.00
H1555  H     0.77770   0.37992   0.67748   0.00000  Uiso   1.00
H1556  H     0.98872   0.44304   0.89204   0.00000  Uiso   1.00
H1557  H     0.67157   0.48966   0.91833   0.00000  Uiso   1.00
H1558  H     0.97328   0.40893   0.79492   0.00000  Uiso   1.00
H1559  H     0.90831   0.39869   0.76938   0.00000  Uiso   1.00
H1560  H     0.95284   0.35560   0.78005   0.00000  Uiso   1.00
H1561  H     0.76027   0.60134   0.89780   0.00000  Uiso   1.00
H1562  H     0.69700   0.58607   0.87103   0.00000  Uiso   1.00
N1563  N     0.83332   0.49999   0.95240   0.00000  Uiso   1.00
N1564  N     0.83335   0.50001   0.71427   0.00000  Uiso   1.00
N1565  N     0.99072   0.52740   0.77616   0.00000  Uiso   1.00
N1566  N     0.67566   0.47182   0.88986   0.00000  Uiso   1.00
N1567  N     0.92955   0.62548   0.83787   0.00000  Uiso   1.00
N1568  N     0.73870   0.37624   0.82682   0.00000  Uiso   1.00
N1569  N     0.88095   0.56779   0.71658   0.00000  Uiso   1.00
N1570  N     0.78193   0.43412   0.94881   0.00000  Uiso   1.00
O1571  O     0.83333   0.43892   0.87154   0.00000  Uiso   1.00
O1572  O     0.74009   0.62022   0.82969   0.00000  Uiso   1.00
O1573  O     0.88681   0.56175   0.95748   0.00000  Uiso   1.00
O1574  O     0.78053   0.43783   0.70980   0.00000  Uiso   1.00
O1575  O     0.83334   0.56108   0.79513   0.00000  Uiso   1.00
O1576  O     0.83333   0.43893   0.79510   0.00000  Uiso   1.00
O1577  O     0.83334   0.56107   0.87157   0.00000  Uiso   1.00
O1578  O     0.75725   0.50000   0.86261   0.00000  Uiso   1.00
O1579  O     0.90942   0.50000   0.80405   0.00000  Uiso   1.00
O1580  O     0.75725   0.50000   0.78617   0.00000  Uiso   1.00
O1581  O     0.90942   0.50000   0.88050   0.00000  Uiso   1.00
O1582  O     0.92687   0.38008   0.83730   0.00000  Uiso   1.00
Zn1583 Zn    0.83333   0.49999   0.88437   0.00000  Uiso   1.00
Zn1584 Zn    0.83333   0.50001   0.78229   0.00000  Uiso   1.00
C1585  C     0.16691   0.75362   0.83353   0.00000  Uiso   1.00
C1586  C     0.11956   0.68734   0.83211   0.00000  Uiso   1.00
C1587  C     0.16695   0.95726   0.83336   0.00000  Uiso   1.00
C1588  C     0.16692   0.70950   0.83386   0.00000  Uiso   1.00
C1589  C     0.19162   0.86501   0.69254   0.00000  Uiso   1.00
C1590  C     0.14146   0.80167   0.97394   0.00000  Uiso   1.00
C1591  C     0.19348   0.86388   0.97838   0.00000  Uiso   1.00
C1592  C     0.14199   0.80143   0.68866   0.00000  Uiso   1.00
C1593  C     0.27373   0.71903   0.79334   0.00000  Uiso   1.00
C1594  C     0.06028   0.94521   0.87343   0.00000  Uiso   1.00
C1595  C     0.27388   0.88880   0.96770   0.00000  Uiso   1.00
C1596  C     0.16671   0.91308   0.83323   0.00000  Uiso   1.00
C1597  C     0.13396   0.73064   0.70584   0.00000  Uiso   1.00
C1598  C     0.06745   0.83332   0.82179   0.00000  Uiso   1.00
C1599  C     0.26586   0.83334   0.84483   0.00000  Uiso   1.00
C1600  C     0.01344   0.83893   0.81622   0.00000  Uiso   1.00
C1601  C     0.31976   0.82743   0.85015   0.00000  Uiso   1.00
C1602  C     0.21423   0.68985   0.83443   0.00000  Uiso   1.00
C1603  C     0.11959   0.97698   0.83336   0.00000  Uiso   1.00
C1604  C     0.21446   0.97967   0.83499   0.00000  Uiso   1.00
H1605  H     0.01025   0.88986   0.77413   0.00000  Uiso   1.00
H1606  H     0.04337   0.97320   0.88710   0.00000  Uiso   1.00
H1607  H     0.26228   0.93981   0.80941   0.00000  Uiso   1.00
H1608  H     0.26653   0.93942   0.86659   0.00000  Uiso   1.00
H1609  H     0.05302   0.70379   0.85502   0.00000  Uiso   1.00
H1610  H     0.04881   0.69791   0.79807   0.00000  Uiso   1.00
H1611  H     0.18449   0.92027   0.72347   0.00000  Uiso   1.00
H1612  H     0.23599   0.89140   0.74648   0.00000  Uiso   1.00
H1613  H     0.14307   0.74632   0.94195   0.00000  Uiso   1.00
H1614  H     0.09596   0.77856   0.91857   0.00000  Uiso   1.00
H1615  H     0.29404   0.90580   0.94210   0.00000  Uiso   1.00
H1616  H     0.32928   0.84300   0.74785   0.00000  Uiso   1.00
H1617  H     0.28388   0.85497   0.96665   0.00000  Uiso   1.00
H1618  H     0.28917   0.90218   0.66794   0.00000  Uiso   1.00
H1619  H     0.12924   0.71227   0.73690   0.00000  Uiso   1.00
H1620  H     0.17595   0.73113   0.70192   0.00000  Uiso   1.00
H1621  H     0.11103   0.71325   0.67748   0.00000  Uiso   1.00
H1622  H     0.32206   0.77637   0.89204   0.00000  Uiso   1.00
H1623  H     0.00490   0.82300   0.91833   0.00000  Uiso   1.00
H1624  H     0.30661   0.74226   0.79492   0.00000  Uiso   1.00
H1625  H     0.24164   0.73202   0.76938   0.00000  Uiso   1.00
H1626  H     0.28617   0.68894   0.78005   0.00000  Uiso   1.00
H1627  H     0.09361   0.93468   0.89780   0.00000  Uiso   1.00
H1628  H     0.03034   0.91941   0.87103   0.00000  Uiso   1.00
N1629  N     0.16665   0.83332   0.95240   0.00000  Uiso   1.00
N1630  N     0.16668   0.83334   0.71427   0.00000  Uiso   1.00
N1631  N     0.32406   0.86073   0.77616   0.00000  Uiso   1.00
N1632  N     0.00899   0.80515   0.88986   0.00000  Uiso   1.00
N1633  N     0.26288   0.95882   0.83787   0.00000  Uiso   1.00
N1634  N     0.07203   0.70957   0.82682   0.00000  Uiso   1.00
N1635  N     0.21428   0.90113   0.71658   0.00000  Uiso   1.00
N1636  N     0.11526   0.76746   0.94881   0.00000  Uiso   1.00
O1637  O     0.16666   0.77225   0.87154   0.00000  Uiso   1.00
O1638  O     0.07342   0.95355   0.82969   0.00000  Uiso   1.00
O1639  O     0.22014   0.89508   0.95748   0.00000  Uiso   1.00
O1640  O     0.11386   0.77116   0.70980   0.00000  Uiso   1.00
O1641  O     0.16667   0.89442   0.79513   0.00000  Uiso   1.00
O1642  O     0.16666   0.77226   0.79510   0.00000  Uiso   1.00
O1643  O     0.16667   0.89441   0.87157   0.00000  Uiso   1.00
O1644  O     0.09058   0.83333   0.86261   0.00000  Uiso   1.00
O1645  O     0.24275   0.83334   0.80405   0.00000  Uiso   1.00
O1646  O     0.09058   0.83334   0.78617   0.00000  Uiso   1.00
O1647  O     0.24275   0.83333   0.88050   0.00000  Uiso   1.00
O1648  O     0.26020   0.71341   0.83730   0.00000  Uiso   1.00
Zn1649 Zn    0.16667   0.83333   0.88437   0.00000  Uiso   1.00
Zn1650 Zn    0.16667   0.83334   0.78229   0.00000  Uiso   1.00
C1651  C     0.50024   0.75362   0.83353   0.00000  Uiso   1.00
C1652  C     0.45289   0.68734   0.83211   0.00000  Uiso   1.00
C1653  C     0.50028   0.95726   0.83336   0.00000  Uiso   1.00
C1654  C     0.50026   0.70950   0.83386   0.00000  Uiso   1.00
C1655  C     0.52495   0.86501   0.69254   0.00000  Uiso   1.00
C1656  C     0.47479   0.80167   0.97394   0.00000  Uiso   1.00
C1657  C     0.52681   0.86388   0.97838   0.00000  Uiso   1.00
C1658  C     0.47533   0.80143   0.68866   0.00000  Uiso   1.00
C1659  C     0.60706   0.71903   0.79334   0.00000  Uiso   1.00
C1660  C     0.39361   0.94521   0.87343   0.00000  Uiso   1.00
C1661  C     0.60722   0.88880   0.96770   0.00000  Uiso   1.00
C1662  C     0.50004   0.91308   0.83323   0.00000  Uiso   1.00
C1663  C     0.46729   0.73064   0.70584   0.00000  Uiso   1.00
C1664  C     0.40079   0.83332   0.82179   0.00000  Uiso   1.00
C1665  C     0.59919   0.83334   0.84483   0.00000  Uiso   1.00
C1666  C     0.34677   0.83893   0.81622   0.00000  Uiso   1.00
C1667  C     0.65309   0.82743   0.85015   0.00000  Uiso   1.00
C1668  C     0.54756   0.68985   0.83443   0.00000  Uiso   1.00
C1669  C     0.45292   0.97698   0.83336   0.00000  Uiso   1.00
C1670  C     0.54780   0.97967   0.83499   0.00000  Uiso   1.00
H1671  H     0.34358   0.88986   0.77413   0.00000  Uiso   1.00
H1672  H     0.37671   0.97320   0.88710   0.00000  Uiso   1.00
H1673  H     0.59561   0.93981   0.80941   0.00000  Uiso   1.00
H1674  H     0.59986   0.93942   0.86659   0.00000  Uiso   1.00
H1675  H     0.38636   0.70379   0.85502   0.00000  Uiso   1.00
H1676  H     0.38214   0.69791   0.79807   0.00000  Uiso   1.00
H1677  H     0.51783   0.92027   0.72347   0.00000  Uiso   1.00
H1678  H     0.56932   0.89140   0.74648   0.00000  Uiso   1.00
H1679  H     0.47640   0.74632   0.94195   0.00000  Uiso   1.00
H1680  H     0.42930   0.77856   0.91857   0.00000  Uiso   1.00
H1681  H     0.62737   0.90580   0.94210   0.00000  Uiso   1.00
H1682  H     0.66262   0.84300   0.74785   0.00000  Uiso   1.00
H1683  H     0.61721   0.85497   0.96665   0.00000  Uiso   1.00
H1684  H     0.62250   0.90218   0.66794   0.00000  Uiso   1.00
H1685  H     0.46258   0.71227   0.73690   0.00000  Uiso   1.00
H1686  H     0.50928   0.73113   0.70192   0.00000  Uiso   1.00
H1687  H     0.44437   0.71325   0.67748   0.00000  Uiso   1.00
H1688  H     0.65539   0.77637   0.89204   0.00000  Uiso   1.00
H1689  H     0.33824   0.82300   0.91833   0.00000  Uiso   1.00
H1690  H     0.63994   0.74226   0.79492   0.00000  Uiso   1.00
H1691  H     0.57498   0.73202   0.76938   0.00000  Uiso   1.00
H1692  H     0.61950   0.68894   0.78005   0.00000  Uiso   1.00
H1693  H     0.42694   0.93468   0.89780   0.00000  Uiso   1.00
H1694  H     0.36367   0.91941   0.87103   0.00000  Uiso   1.00
N1695  N     0.49999   0.83332   0.95240   0.00000  Uiso   1.00
N1696  N     0.50001   0.83334   0.71427   0.00000  Uiso   1.00
N1697  N     0.65739   0.86073   0.77616   0.00000  Uiso   1.00
N1698  N     0.34232   0.80515   0.88986   0.00000  Uiso   1.00
N1699  N     0.59622   0.95882   0.83787   0.00000  Uiso   1.00
N1700  N     0.40537   0.70957   0.82682   0.00000  Uiso   1.00
N1701  N     0.54762   0.90113   0.71658   0.00000  Uiso   1.00
N1702  N     0.44860   0.76746   0.94881   0.00000  Uiso   1.00
O1703  O     0.50000   0.77225   0.87154   0.00000  Uiso   1.00
O1704  O     0.40676   0.95355   0.82969   0.00000  Uiso   1.00
O1705  O     0.55348   0.89508   0.95748   0.00000  Uiso   1.00
O1706  O     0.44719   0.77116   0.70980   0.00000  Uiso   1.00
O1707  O     0.50000   0.89442   0.79513   0.00000  Uiso   1.00
O1708  O     0.50000   0.77226   0.79510   0.00000  Uiso   1.00
O1709  O     0.50000   0.89441   0.87157   0.00000  Uiso   1.00
O1710  O     0.42392   0.83333   0.86261   0.00000  Uiso   1.00
O1711  O     0.57608   0.83334   0.80405   0.00000  Uiso   1.00
O1712  O     0.42392   0.83334   0.78617   0.00000  Uiso   1.00
O1713  O     0.57608   0.83333   0.88050   0.00000  Uiso   1.00
O1714  O     0.59353   0.71341   0.83730   0.00000  Uiso   1.00
Zn1715 Zn    0.50000   0.83333   0.88437   0.00000  Uiso   1.00
Zn1716 Zn    0.50000   0.83334   0.78229   0.00000  Uiso   1.00
C1717  C     0.83358   0.75362   0.83353   0.00000  Uiso   1.00
C1718  C     0.78623   0.68734   0.83211   0.00000  Uiso   1.00
C1719  C     0.83362   0.95726   0.83336   0.00000  Uiso   1.00
C1720  C     0.83359   0.70950   0.83386   0.00000  Uiso   1.00
C1721  C     0.85829   0.86501   0.69254   0.00000  Uiso   1.00
C1722  C     0.80812   0.80167   0.97394   0.00000  Uiso   1.00
C1723  C     0.86015   0.86388   0.97838   0.00000  Uiso   1.00
C1724  C     0.80866   0.80143   0.68866   0.00000  Uiso   1.00
C1725  C     0.94039   0.71903   0.79334   0.00000  Uiso   1.00
C1726  C     0.72694   0.94521   0.87343   0.00000  Uiso   1.00
C1727  C     0.94055   0.88880   0.96770   0.00000  Uiso   1.00
C1728  C     0.83338   0.91308   0.83323   0.00000  Uiso   1.00
C1729  C     0.80062   0.73064   0.70584   0.00000  Uiso   1.00
C1730  C     0.73412   0.83332   0.82179   0.00000  Uiso   1.00
C1731  C     0.93252   0.83334   0.84483   0.00000  Uiso   1.00
C1732  C     0.68010   0.83893   0.81622   0.00000  Uiso   1.00
C1733  C     0.98642   0.82743   0.85015   0.00000  Uiso   1.00
C1734  C     0.88090   0.68985   0.83443   0.00000  Uiso   1.00
C1735  C     0.78626   0.97698   0.83336   0.00000  Uiso   1.00
C1736  C     0.88113   0.97967   0.83499   0.00000  Uiso   1.00
H1737  H     0.67692   0.88986   0.77413   0.00000  Uiso   1.00
H1738  H     0.71004   0.97320   0.88710   0.00000  Uiso   1.00
H1739  H     0.92894   0.93981   0.80941   0.00000  Uiso   1.00
H1740  H     0.93319   0.93942   0.86659   0.00000  Uiso   1.00
H1741  H     0.71969   0.70379   0.85502   0.00000  Uiso   1.00
H1742  H     0.71548   0.69791   0.79807   0.00000  Uiso   1.00
H1743  H     0.85116   0.92027   0.72347   0.00000  Uiso   1.00
H1744  H     0.90266   0.89140   0.74648   0.00000  Uiso   1.00
H1745  H     0.80973   0.74632   0.94195   0.00000  Uiso   1.00
H1746  H     0.76263   0.77856   0.91857   0.00000  Uiso   1.00
H1747  H     0.96070   0.90580   0.94210   0.00000  Uiso   1.00
H1748  H     0.99595   0.84300   0.74785   0.00000  Uiso   1.00
H1749  H     0.95054   0.85497   0.96665   0.00000  Uiso   1.00
H1750  H     0.95584   0.90218   0.66794   0.00000  Uiso   1.00
H1751  H     0.79591   0.71227   0.73690   0.00000  Uiso   1.00
H1752  H     0.84261   0.73113   0.70192   0.00000  Uiso   1.00
H1753  H     0.77770   0.71325   0.67748   0.00000  Uiso   1.00
H1754  H     0.98872   0.77637   0.89204   0.00000  Uiso   1.00
H1755  H     0.67157   0.82300   0.91833   0.00000  Uiso   1.00
H1756  H     0.97328   0.74226   0.79492   0.00000  Uiso   1.00
H1757  H     0.90831   0.73202   0.76938   0.00000  Uiso   1.00
H1758  H     0.95284   0.68894   0.78005   0.00000  Uiso   1.00
H1759  H     0.76027   0.93468   0.89780   0.00000  Uiso   1.00
H1760  H     0.69700   0.91941   0.87103   0.00000  Uiso   1.00
N1761  N     0.83332   0.83332   0.95240   0.00000  Uiso   1.00
N1762  N     0.83335   0.83334   0.71427   0.00000  Uiso   1.00
N1763  N     0.99072   0.86073   0.77616   0.00000  Uiso   1.00
N1764  N     0.67566   0.80515   0.88986   0.00000  Uiso   1.00
N1765  N     0.92955   0.95882   0.83787   0.00000  Uiso   1.00
N1766  N     0.73870   0.70957   0.82682   0.00000  Uiso   1.00
N1767  N     0.88095   0.90113   0.71658   0.00000  Uiso   1.00
N1768  N     0.78193   0.76746   0.94881   0.00000  Uiso   1.00
O1769  O     0.83333   0.77225   0.87154   0.00000  Uiso   1.00
O1770  O     0.74009   0.95355   0.82969   0.00000  Uiso   1.00
O1771  O     0.88681   0.89508   0.95748   0.00000  Uiso   1.00
O1772  O     0.78053   0.77116   0.70980   0.00000  Uiso   1.00
O1773  O     0.83334   0.89442   0.79513   0.00000  Uiso   1.00
O1774  O     0.83333   0.77226   0.79510   0.00000  Uiso   1.00
O1775  O     0.83334   0.89441   0.87157   0.00000  Uiso   1.00
O1776  O     0.75725   0.83333   0.86261   0.00000  Uiso   1.00
O1777  O     0.90942   0.83334   0.80405   0.00000  Uiso   1.00
O1778  O     0.75725   0.83334   0.78617   0.00000  Uiso   1.00
O1779  O     0.90942   0.83333   0.88050   0.00000  Uiso   1.00
O1780  O     0.92687   0.71341   0.83730   0.00000  Uiso   1.00
Zn1781 Zn    0.83333   0.83333   0.88437   0.00000  Uiso   1.00
Zn1782 Zn    0.83333   0.83334   0.78229   0.00000  Uiso   1.00
loop_
_geom_bond_atom_site_label_1
_geom_bond_atom_site_label_2
_geom_bond_distance
_geom_bond_site_symmetry_2
_ccdc_geom_bond_type
C1     C4      1.400   .     S
C1     O58     1.283   .     A
C1     O53     1.285   .     A
C2     C4      1.396   .     A
C2     N50     1.434   .     S
C2     C415    1.386   1_545 S
C3     C19     1.401   .     A
C3     C20     1.403   .     A
C3     C12     1.401   .     S
C4     C18     1.397   .     A
C5     N46     1.382   .     A
C5     N51     1.427   .     S
C5     C1195   1.425   1_554 S
C6     N45     1.382   .     A
C6     N52     1.428   .     S
C6     C602    1.431   .     S
C7     O55     1.382   .     S
C7     N45     1.362   .     A
C7     C599    1.425   .     S
C8     O56     1.387   .     S
C8     N46     1.366   .     A
C8     C1194   1.431   1_554 S
C9     H40     1.109   .     S
C9     O64     1.411   .     S
C9     H41     1.111   .     S
C9     H42     1.112   .     S
C10    H22     1.109   .     S
C10    O54     1.413   .     S
C10    H44     1.109   .     S
C10    H43     1.113   .     S
C11    H31     1.109   .     S
C11    H33     1.114   .     S
C11    O55     1.413   .     S
C11    H628    1.110   .     S
C12    O57     1.287   .     A
C12    O59     1.282   .     A
C13    O56     1.416   .     S
C13    H36     1.115   .     S
C13    H37     1.109   .     S
C13    H35     1.108   .     S
C14    C16     1.412   .     S
C14    O60     1.284   .     A
C14    O62     1.290   .     A
C15    O63     1.291   .     A
C15    O61     1.283   .     A
C15    C17     1.410   .     S
C16    C149    1.349   1_455 S
C16    N179    1.441   1_455 S
C17    C82     1.349   .     S
C17    N114    1.439   .     S
C18    O64     1.385   .     S
C18    C416    1.381   1_545 S
C19    O54     1.386   .     S
C19    C200    1.386   .     S
C20    N49     1.435   .     S
C20    C216    1.381   .     S
H21    N179    1.046   1_455 S
H23    N49     1.045   .     S
H24    N49     1.045   .     S
H25    N50     1.043   .     S
H26    N50     1.045   .     S
H27    N51     1.044   .     S
H28    N51     1.039   .     S
H29    N52     1.044   .     S
H30    N52     1.036   .     S
H32    N47     1.046   .     S
H34    C1199   1.110   1_554 S
H38    N114    1.046   .     S
H39    N48     1.045   .     S
N45    Zn65    2.029   .     S
N46    Zn66    2.029   .     S
N47    H87     1.046   .     S
N47    C82     1.441   .     S
N48    C149    1.439   1_455 S
N48    H170    1.046   1_455 S
O53    Zn65    1.979   .     S
O57    Zn66    1.979   .     S
O58    Zn66    1.971   .     S
O59    Zn65    1.971   .     S
O60    Zn65    2.002   .     S
O61    Zn66    2.002   .     S
O62    Zn66    2.001   .     S
O63    Zn65    2.001   .     S
C67    C70     1.400   .     S
C67    O124    1.283   .     A
C67    O119    1.285   .     A
C68    C70     1.396   .     A
C68    N116    1.434   .     S
C68    C481    1.386   1_545 S
C69    C85     1.401   .     A
C69    C86     1.403   .     A
C69    C78     1.401   .     S
C70    C84     1.397   .     A
C71    N112    1.382   .     A
C71    N117    1.427   .     S
C71    C1261   1.425   1_554 S
C72    N111    1.382   .     A
C72    N118    1.428   .     S
C72    C668    1.431   .     S
C73    O121    1.382   .     S
C73    N111    1.362   .     A
C73    C665    1.425   .     S
C74    O122    1.387   .     S
C74    N112    1.366   .     A
C74    C1260   1.431   1_554 S
C75    H106    1.109   .     S
C75    O130    1.411   .     S
C75    H107    1.111   .     S
C75    H108    1.112   .     S
C76    H88     1.109   .     S
C76    O120    1.413   .     S
C76    H110    1.109   .     S
C76    H109    1.113   .     S
C77    H97     1.109   .     S
C77    H99     1.114   .     S
C77    O121    1.413   .     S
C77    H694    1.110   .     S
C78    O123    1.287   .     A
C78    O125    1.282   .     A
C79    O122    1.416   .     S
C79    H102    1.115   .     S
C79    H103    1.109   .     S
C79    H101    1.108   .     S
C80    C82     1.412   .     S
C80    O126    1.284   .     A
C80    O128    1.290   .     A
C81    O129    1.291   .     A
C81    O127    1.283   .     A
C81    C83     1.410   .     S
C83    C148    1.349   .     S
C83    N180    1.439   .     S
C84    O130    1.385   .     S
C84    C482    1.381   1_545 S
C85    O120    1.386   .     S
C85    C266    1.386   .     S
C86    N115    1.435   .     S
C86    C282    1.381   .     S
H89    N115    1.045   .     S
H90    N115    1.045   .     S
H91    N116    1.043   .     S
H92    N116    1.045   .     S
H93    N117    1.044   .     S
H94    N117    1.039   .     S
H95    N118    1.044   .     S
H96    N118    1.036   .     S
H98    N113    1.046   .     S
H100   C1265   1.110   1_554 S
H104   N180    1.046   .     S
H105   N114    1.045   .     S
N111   Zn131   2.029   .     S
N112   Zn132   2.029   .     S
N113   H153    1.046   .     S
N113   C148    1.441   .     S
O119   Zn131   1.979   .     S
O123   Zn132   1.979   .     S
O124   Zn132   1.971   .     S
O125   Zn131   1.971   .     S
O126   Zn131   2.002   .     S
O127   Zn132   2.002   .     S
O128   Zn132   2.001   .     S
O129   Zn131   2.001   .     S
C133   C136    1.400   .     S
C133   O190    1.283   .     A
C133   O185    1.285   .     A
C134   C136    1.396   .     A
C134   N182    1.434   .     S
C134   C547    1.386   1_545 S
C135   C151    1.401   .     A
C135   C152    1.403   .     A
C135   C144    1.401   .     S
C136   C150    1.397   .     A
C137   N178    1.382   .     A
C137   N183    1.427   .     S
C137   C1327   1.425   1_554 S
C138   N177    1.382   .     A
C138   N184    1.428   .     S
C138   C734    1.431   .     S
C139   O187    1.382   .     S
C139   N177    1.362   .     A
C139   C731    1.425   .     S
C140   O188    1.387   .     S
C140   N178    1.366   .     A
C140   C1326   1.431   1_554 S
C141   H172    1.109   .     S
C141   O196    1.411   .     S
C141   H173    1.111   .     S
C141   H174    1.112   .     S
C142   H154    1.109   .     S
C142   O186    1.413   .     S
C142   H176    1.109   .     S
C142   H175    1.113   .     S
C143   H163    1.109   .     S
C143   H165    1.114   .     S
C143   O187    1.413   .     S
C143   H760    1.110   .     S
C144   O189    1.287   .     A
C144   O191    1.282   .     A
C145   O188    1.416   .     S
C145   H168    1.115   .     S
C145   H169    1.109   .     S
C145   H167    1.108   .     S
C146   C148    1.412   .     S
C146   O192    1.284   .     A
C146   O194    1.290   .     A
C147   O195    1.291   .     A
C147   O193    1.283   .     A
C147   C149    1.410   .     S
C149   C16     1.349   1_655 S
C149   N48     1.439   1_655 S
C150   O196    1.385   .     S
C150   C548    1.381   1_545 S
C151   O186    1.386   .     S
C151   C332    1.386   .     S
C152   N181    1.435   .     S
C152   C348    1.381   .     S
H155   N181    1.045   .     S
H156   N181    1.045   .     S
H157   N182    1.043   .     S
H158   N182    1.045   .     S
H159   N183    1.044   .     S
H160   N183    1.039   .     S
H161   N184    1.044   .     S
H162   N184    1.036   .     S
H164   N179    1.046   .     S
H166   C1331   1.110   1_554 S
H170   N48     1.046   1_655 S
H171   N180    1.045   .     S
N177   Zn197   2.029   .     S
N178   Zn198   2.029   .     S
N179   H21     1.046   1_655 S
N179   C16     1.441   1_655 S
O185   Zn197   1.979   .     S
O189   Zn198   1.979   .     S
O190   Zn198   1.971   .     S
O191   Zn197   1.971   .     S
O192   Zn197   2.002   .     S
O193   Zn198   2.002   .     S
O194   Zn198   2.001   .     S
O195   Zn197   2.001   .     S
C199   C202    1.400   .     S
C199   O256    1.283   .     A
C199   O251    1.285   .     A
C200   C202    1.396   .     A
C200   N248    1.434   .     S
C201   C217    1.401   .     A
C201   C218    1.403   .     A
C201   C210    1.401   .     S
C202   C216    1.397   .     A
C203   N244    1.382   .     A
C203   N249    1.427   .     S
C203   C1393   1.425   1_554 S
C204   N243    1.382   .     A
C204   N250    1.428   .     S
C204   C800    1.431   .     S
C205   O253    1.382   .     S
C205   N243    1.362   .     A
C205   C797    1.425   .     S
C206   O254    1.387   .     S
C206   N244    1.366   .     A
C206   C1392   1.431   1_554 S
C207   H238    1.109   .     S
C207   O262    1.411   .     S
C207   H239    1.111   .     S
C207   H240    1.112   .     S
C208   H220    1.109   .     S
C208   O252    1.413   .     S
C208   H242    1.109   .     S
C208   H241    1.113   .     S
C209   H229    1.109   .     S
C209   H231    1.114   .     S
C209   O253    1.413   .     S
C209   H826    1.110   .     S
C210   O255    1.287   .     A
C210   O257    1.282   .     A
C211   O254    1.416   .     S
C211   H234    1.115   .     S
C211   H235    1.109   .     S
C211   H233    1.108   .     S
C212   C214    1.412   .     S
C212   O258    1.284   .     A
C212   O260    1.290   .     A
C213   O261    1.291   .     A
C213   O259    1.283   .     A
C213   C215    1.410   .     S
C214   C347    1.349   1_455 S
C214   N377    1.441   1_455 S
C215   C280    1.349   .     S
C215   N312    1.439   .     S
C216   O262    1.385   .     S
C217   O252    1.386   .     S
C217   C398    1.386   .     S
C218   N247    1.435   .     S
C218   C414    1.381   .     S
H219   N377    1.046   1_455 S
H221   N247    1.045   .     S
H222   N247    1.045   .     S
H223   N248    1.043   .     S
H224   N248    1.045   .     S
H225   N249    1.044   .     S
H226   N249    1.039   .     S
H227   N250    1.044   .     S
H228   N250    1.036   .     S
H230   N245    1.046   .     S
H232   C1397   1.110   1_554 S
H236   N312    1.046   .     S
H237   N246    1.045   .     S
N243   Zn263   2.029   .     S
N244   Zn264   2.029   .     S
N245   H285    1.046   .     S
N245   C280    1.441   .     S
N246   C347    1.439   1_455 S
N246   H368    1.046   1_455 S
O251   Zn263   1.979   .     S
O255   Zn264   1.979   .     S
O256   Zn264   1.971   .     S
O257   Zn263   1.971   .     S
O258   Zn263   2.002   .     S
O259   Zn264   2.002   .     S
O260   Zn264   2.001   .     S
O261   Zn263   2.001   .     S
C265   C268    1.400   .     S
C265   O322    1.283   .     A
C265   O317    1.285   .     A
C266   C268    1.396   .     A
C266   N314    1.434   .     S
C267   C283    1.401   .     A
C267   C284    1.403   .     A
C267   C276    1.401   .     S
C268   C282    1.397   .     A
C269   N310    1.382   .     A
C269   N315    1.427   .     S
C269   C1459   1.425   1_554 S
C270   N309    1.382   .     A
C270   N316    1.428   .     S
C270   C866    1.431   .     S
C271   O319    1.382   .     S
C271   N309    1.362   .     A
C271   C863    1.425   .     S
C272   O320    1.387   .     S
C272   N310    1.366   .     A
C272   C1458   1.431   1_554 S
C273   H304    1.109   .     S
C273   O328    1.411   .     S
C273   H305    1.111   .     S
C273   H306    1.112   .     S
C274   H286    1.109   .     S
C274   O318    1.413   .     S
C274   H308    1.109   .     S
C274   H307    1.113   .     S
C275   H295    1.109   .     S
C275   H297    1.114   .     S
C275   O319    1.413   .     S
C275   H892    1.110   .     S
C276   O321    1.287   .     A
C276   O323    1.282   .     A
C277   O320    1.416   .     S
C277   H300    1.115   .     S
C277   H301    1.109   .     S
C277   H299    1.108   .     S
C278   C280    1.412   .     S
C278   O324    1.284   .     A
C278   O326    1.290   .     A
C279   O327    1.291   .     A
C279   O325    1.283   .     A
C279   C281    1.410   .     S
C281   C346    1.349   .     S
C281   N378    1.439   .     S
C282   O328    1.385   .     S
C283   O318    1.386   .     S
C283   C464    1.386   .     S
C284   N313    1.435   .     S
C284   C480    1.381   .     S
H287   N313    1.045   .     S
H288   N313    1.045   .     S
H289   N314    1.043   .     S
H290   N314    1.045   .     S
H291   N315    1.044   .     S
H292   N315    1.039   .     S
H293   N316    1.044   .     S
H294   N316    1.036   .     S
H296   N311    1.046   .     S
H298   C1463   1.110   1_554 S
H302   N378    1.046   .     S
H303   N312    1.045   .     S
N309   Zn329   2.029   .     S
N310   Zn330   2.029   .     S
N311   H351    1.046   .     S
N311   C346    1.441   .     S
O317   Zn329   1.979   .     S
O321   Zn330   1.979   .     S
O322   Zn330   1.971   .     S
O323   Zn329   1.971   .     S
O324   Zn329   2.002   .     S
O325   Zn330   2.002   .     S
O326   Zn330   2.001   .     S
O327   Zn329   2.001   .     S
C331   C334    1.400   .     S
C331   O388    1.283   .     A
C331   O383    1.285   .     A
C332   C334    1.396   .     A
C332   N380    1.434   .     S
C333   C349    1.401   .     A
C333   C350    1.403   .     A
C333   C342    1.401   .     S
C334   C348    1.397   .     A
C335   N376    1.382   .     A
C335   N381    1.427   .     S
C335   C1525   1.425   1_554 S
C336   N375    1.382   .     A
C336   N382    1.428   .     S
C336   C932    1.431   .     S
C337   O385    1.382   .     S
C337   N375    1.362   .     A
C337   C929    1.425   .     S
C338   O386    1.387   .     S
C338   N376    1.366   .     A
C338   C1524   1.431   1_554 S
C339   H370    1.109   .     S
C339   O394    1.411   .     S
C339   H371    1.111   .     S
C339   H372    1.112   .     S
C340   H352    1.109   .     S
C340   O384    1.413   .     S
C340   H374    1.109   .     S
C340   H373    1.113   .     S
C341   H361    1.109   .     S
C341   H363    1.114   .     S
C341   O385    1.413   .     S
C341   H958    1.110   .     S
C342   O387    1.287   .     A
C342   O389    1.282   .     A
C343   O386    1.416   .     S
C343   H366    1.115   .     S
C343   H367    1.109   .     S
C343   H365    1.108   .     S
C344   C346    1.412   .     S
C344   O390    1.284   .     A
C344   O392    1.290   .     A
C345   O393    1.291   .     A
C345   O391    1.283   .     A
C345   C347    1.410   .     S
C347   C214    1.349   1_655 S
C347   N246    1.439   1_655 S
C348   O394    1.385   .     S
C349   O384    1.386   .     S
C349   C530    1.386   .     S
C350   N379    1.435   .     S
C350   C546    1.381   .     S
H353   N379    1.045   .     S
H354   N379    1.045   .     S
H355   N380    1.043   .     S
H356   N380    1.045   .     S
H357   N381    1.044   .     S
H358   N381    1.039   .     S
H359   N382    1.044   .     S
H360   N382    1.036   .     S
H362   N377    1.046   .     S
H364   C1529   1.110   1_554 S
H368   N246    1.046   1_655 S
H369   N378    1.045   .     S
N375   Zn395   2.029   .     S
N376   Zn396   2.029   .     S
N377   H219    1.046   1_655 S
N377   C214    1.441   1_655 S
O383   Zn395   1.979   .     S
O387   Zn396   1.979   .     S
O388   Zn396   1.971   .     S
O389   Zn395   1.971   .     S
O390   Zn395   2.002   .     S
O391   Zn396   2.002   .     S
O392   Zn396   2.001   .     S
O393   Zn395   2.001   .     S
C397   C400    1.400   .     S
C397   O454    1.283   .     A
C397   O449    1.285   .     A
C398   C400    1.396   .     A
C398   N446    1.434   .     S
C399   C415    1.401   .     A
C399   C416    1.403   .     A
C399   C408    1.401   .     S
C400   C414    1.397   .     A
C401   N442    1.382   .     A
C401   N447    1.427   .     S
C401   C1591   1.425   1_554 S
C402   N441    1.382   .     A
C402   N448    1.428   .     S
C402   C998    1.431   .     S
C403   O451    1.382   .     S
C403   N441    1.362   .     A
C403   C995    1.425   .     S
C404   O452    1.387   .     S
C404   N442    1.366   .     A
C404   C1590   1.431   1_554 S
C405   H436    1.109   .     S
C405   O460    1.411   .     S
C405   H437    1.111   .     S
C405   H438    1.112   .     S
C406   H418    1.109   .     S
C406   O450    1.413   .     S
C406   H440    1.109   .     S
C406   H439    1.113   .     S
C407   H427    1.109   .     S
C407   H429    1.114   .     S
C407   O451    1.413   .     S
C407   H1024   1.110   .     S
C408   O453    1.287   .     A
C408   O455    1.282   .     A
C409   O452    1.416   .     S
C409   H432    1.115   .     S
C409   H433    1.109   .     S
C409   H431    1.108   .     S
C410   C412    1.412   .     S
C410   O456    1.284   .     A
C410   O458    1.290   .     A
C411   O459    1.291   .     A
C411   O457    1.283   .     A
C411   C413    1.410   .     S
C412   C545    1.349   1_455 S
C412   N575    1.441   1_455 S
C413   C478    1.349   .     S
C413   N510    1.439   .     S
C414   O460    1.385   .     S
C415   O450    1.386   .     S
C415   C2      1.386   1_565 S
C416   N445    1.435   .     S
C416   C18     1.381   1_565 S
H417   N575    1.046   1_455 S
H419   N445    1.045   .     S
H420   N445    1.045   .     S
H421   N446    1.043   .     S
H422   N446    1.045   .     S
H423   N447    1.044   .     S
H424   N447    1.039   .     S
H425   N448    1.044   .     S
H426   N448    1.036   .     S
H428   N443    1.046   .     S
H430   C1595   1.110   1_554 S
H434   N510    1.046   .     S
H435   N444    1.045   .     S
N441   Zn461   2.029   .     S
N442   Zn462   2.029   .     S
N443   H483    1.046   .     S
N443   C478    1.441   .     S
N444   C545    1.439   1_455 S
N444   H566    1.046   1_455 S
O449   Zn461   1.979   .     S
O453   Zn462   1.979   .     S
O454   Zn462   1.971   .     S
O455   Zn461   1.971   .     S
O456   Zn461   2.002   .     S
O457   Zn462   2.002   .     S
O458   Zn462   2.001   .     S
O459   Zn461   2.001   .     S
C463   C466    1.400   .     S
C463   O520    1.283   .     A
C463   O515    1.285   .     A
C464   C466    1.396   .     A
C464   N512    1.434   .     S
C465   C481    1.401   .     A
C465   C482    1.403   .     A
C465   C474    1.401   .     S
C466   C480    1.397   .     A
C467   N508    1.382   .     A
C467   N513    1.427   .     S
C467   C1657   1.425   1_554 S
C468   N507    1.382   .     A
C468   N514    1.428   .     S
C468   C1064   1.431   .     S
C469   O517    1.382   .     S
C469   N507    1.362   .     A
C469   C1061   1.425   .     S
C470   O518    1.387   .     S
C470   N508    1.366   .     A
C470   C1656   1.431   1_554 S
C471   H502    1.109   .     S
C471   O526    1.411   .     S
C471   H503    1.111   .     S
C471   H504    1.112   .     S
C472   H484    1.109   .     S
C472   O516    1.413   .     S
C472   H506    1.109   .     S
C472   H505    1.113   .     S
C473   H493    1.109   .     S
C473   H495    1.114   .     S
C473   O517    1.413   .     S
C473   H1090   1.110   .     S
C474   O519    1.287   .     A
C474   O521    1.282   .     A
C475   O518    1.416   .     S
C475   H498    1.115   .     S
C475   H499    1.109   .     S
C475   H497    1.108   .     S
C476   C478    1.412   .     S
C476   O522    1.284   .     A
C476   O524    1.290   .     A
C477   O525    1.291   .     A
C477   O523    1.283   .     A
C477   C479    1.410   .     S
C479   C544    1.349   .     S
C479   N576    1.439   .     S
C480   O526    1.385   .     S
C481   O516    1.386   .     S
C481   C68     1.386   1_565 S
C482   N511    1.435   .     S
C482   C84     1.381   1_565 S
H485   N511    1.045   .     S
H486   N511    1.045   .     S
H487   N512    1.043   .     S
H488   N512    1.045   .     S
H489   N513    1.044   .     S
H490   N513    1.039   .     S
H491   N514    1.044   .     S
H492   N514    1.036   .     S
H494   N509    1.046   .     S
H496   C1661   1.110   1_554 S
H500   N576    1.046   .     S
H501   N510    1.045   .     S
N507   Zn527   2.029   .     S
N508   Zn528   2.029   .     S
N509   H549    1.046   .     S
N509   C544    1.441   .     S
O515   Zn527   1.979   .     S
O519   Zn528   1.979   .     S
O520   Zn528   1.971   .     S
O521   Zn527   1.971   .     S
O522   Zn527   2.002   .     S
O523   Zn528   2.002   .     S
O524   Zn528   2.001   .     S
O525   Zn527   2.001   .     S
C529   C532    1.400   .     S
C529   O586    1.283   .     A
C529   O581    1.285   .     A
C530   C532    1.396   .     A
C530   N578    1.434   .     S
C531   C547    1.401   .     A
C531   C548    1.403   .     A
C531   C540    1.401   .     S
C532   C546    1.397   .     A
C533   N574    1.382   .     A
C533   N579    1.427   .     S
C533   C1723   1.425   1_554 S
C534   N573    1.382   .     A
C534   N580    1.428   .     S
C534   C1130   1.431   .     S
C535   O583    1.382   .     S
C535   N573    1.362   .     A
C535   C1127   1.425   .     S
C536   O584    1.387   .     S
C536   N574    1.366   .     A
C536   C1722   1.431   1_554 S
C537   H568    1.109   .     S
C537   O592    1.411   .     S
C537   H569    1.111   .     S
C537   H570    1.112   .     S
C538   H550    1.109   .     S
C538   O582    1.413   .     S
C538   H572    1.109   .     S
C538   H571    1.113   .     S
C539   H559    1.109   .     S
C539   H561    1.114   .     S
C539   O583    1.413   .     S
C539   H1156   1.110   .     S
C540   O585    1.287   .     A
C540   O587    1.282   .     A
C541   O584    1.416   .     S
C541   H564    1.115   .     S
C541   H565    1.109   .     S
C541   H563    1.108   .     S
C542   C544    1.412   .     S
C542   O588    1.284   .     A
C542   O590    1.290   .     A
C543   O591    1.291   .     A
C543   O589    1.283   .     A
C543   C545    1.410   .     S
C545   C412    1.349   1_655 S
C545   N444    1.439   1_655 S
C546   O592    1.385   .     S
C547   O582    1.386   .     S
C547   C134    1.386   1_565 S
C548   N577    1.435   .     S
C548   C150    1.381   1_565 S
H551   N577    1.045   .     S
H552   N577    1.045   .     S
H553   N578    1.043   .     S
H554   N578    1.045   .     S
H555   N579    1.044   .     S
H556   N579    1.039   .     S
H557   N580    1.044   .     S
H558   N580    1.036   .     S
H560   N575    1.046   .     S
H562   C1727   1.110   1_554 S
H566   N444    1.046   1_655 S
H567   N576    1.045   .     S
N573   Zn593   2.029   .     S
N574   Zn594   2.029   .     S
N575   H417    1.046   1_655 S
N575   C412    1.441   1_655 S
O581   Zn593   1.979   .     S
O585   Zn594   1.979   .     S
O586   Zn594   1.971   .     S
O587   Zn593   1.971   .     S
O588   Zn593   2.002   .     S
O589   Zn594   2.002   .     S
O590   Zn594   2.001   .     S
O591   Zn593   2.001   .     S
C595   C598    1.400   .     S
C595   O652    1.283   .     A
C595   O647    1.285   .     A
C596   C598    1.396   .     A
C596   N644    1.434   .     S
C596   C1009   1.386   1_545 S
C597   C613    1.401   .     A
C597   C614    1.403   .     A
C597   C606    1.401   .     S
C598   C612    1.397   .     A
C599   N640    1.382   .     A
C599   N645    1.427   .     S
C600   N639    1.382   .     A
C600   N646    1.428   .     S
C600   C1196   1.431   .     S
C601   O649    1.382   .     S
C601   N639    1.362   .     A
C601   C1193   1.425   .     S
C602   O650    1.387   .     S
C602   N640    1.366   .     A
C603   H634    1.109   .     S
C603   O658    1.411   .     S
C603   H635    1.111   .     S
C603   H636    1.112   .     S
C604   H616    1.109   .     S
C604   O648    1.413   .     S
C604   H638    1.109   .     S
C604   H637    1.113   .     S
C605   H625    1.109   .     S
C605   H627    1.114   .     S
C605   O649    1.413   .     S
C605   H1222   1.110   .     S
C606   O651    1.287   .     A
C606   O653    1.282   .     A
C607   O650    1.416   .     S
C607   H630    1.115   .     S
C607   H631    1.109   .     S
C607   H629    1.108   .     S
C608   C610    1.412   .     S
C608   O654    1.284   .     A
C608   O656    1.290   .     A
C609   O657    1.291   .     A
C609   O655    1.283   .     A
C609   C611    1.410   .     S
C610   C743    1.349   1_455 S
C610   N773    1.441   1_455 S
C611   C676    1.349   .     S
C611   N708    1.439   .     S
C612   O658    1.385   .     S
C612   C1010   1.381   1_545 S
C613   O648    1.386   .     S
C613   C794    1.386   .     S
C614   N643    1.435   .     S
C614   C810    1.381   .     S
H615   N773    1.046   1_455 S
H617   N643    1.045   .     S
H618   N643    1.045   .     S
H619   N644    1.043   .     S
H620   N644    1.045   .     S
H621   N645    1.044   .     S
H622   N645    1.039   .     S
H623   N646    1.044   .     S
H624   N646    1.036   .     S
H626   N641    1.046   .     S
H632   N708    1.046   .     S
H633   N642    1.045   .     S
N639   Zn659   2.029   .     S
N640   Zn660   2.029   .     S
N641   H681    1.046   .     S
N641   C676    1.441   .     S
N642   C743    1.439   1_455 S
N642   H764    1.046   1_455 S
O647   Zn659   1.979   .     S
O651   Zn660   1.979   .     S
O652   Zn660   1.971   .     S
O653   Zn659   1.971   .     S
O654   Zn659   2.002   .     S
O655   Zn660   2.002   .     S
O656   Zn660   2.001   .     S
O657   Zn659   2.001   .     S
C661   C664    1.400   .     S
C661   O718    1.283   .     A
C661   O713    1.285   .     A
C662   C664    1.396   .     A
C662   N710    1.434   .     S
C662   C1075   1.386   1_545 S
C663   C679    1.401   .     A
C663   C680    1.403   .     A
C663   C672    1.401   .     S
C664   C678    1.397   .     A
C665   N706    1.382   .     A
C665   N711    1.427   .     S
C666   N705    1.382   .     A
C666   N712    1.428   .     S
C666   C1262   1.431   .     S
C667   O715    1.382   .     S
C667   N705    1.362   .     A
C667   C1259   1.425   .     S
C668   O716    1.387   .     S
C668   N706    1.366   .     A
C669   H700    1.109   .     S
C669   O724    1.411   .     S
C669   H701    1.111   .     S
C669   H702    1.112   .     S
C670   H682    1.109   .     S
C670   O714    1.413   .     S
C670   H704    1.109   .     S
C670   H703    1.113   .     S
C671   H691    1.109   .     S
C671   H693    1.114   .     S
C671   O715    1.413   .     S
C671   H1288   1.110   .     S
C672   O717    1.287   .     A
C672   O719    1.282   .     A
C673   O716    1.416   .     S
C673   H696    1.115   .     S
C673   H697    1.109   .     S
C673   H695    1.108   .     S
C674   C676    1.412   .     S
C674   O720    1.284   .     A
C674   O722    1.290   .     A
C675   O723    1.291   .     A
C675   O721    1.283   .     A
C675   C677    1.410   .     S
C677   C742    1.349   .     S
C677   N774    1.439   .     S
C678   O724    1.385   .     S
C678   C1076   1.381   1_545 S
C679   O714    1.386   .     S
C679   C860    1.386   .     S
C680   N709    1.435   .     S
C680   C876    1.381   .     S
H683   N709    1.045   .     S
H684   N709    1.045   .     S
H685   N710    1.043   .     S
H686   N710    1.045   .     S
H687   N711    1.044   .     S
H688   N711    1.039   .     S
H689   N712    1.044   .     S
H690   N712    1.036   .     S
H692   N707    1.046   .     S
H698   N774    1.046   .     S
H699   N708    1.045   .     S
N705   Zn725   2.029   .     S
N706   Zn726   2.029   .     S
N707   H747    1.046   .     S
N707   C742    1.441   .     S
O713   Zn725   1.979   .     S
O717   Zn726   1.979   .     S
O718   Zn726   1.971   .     S
O719   Zn725   1.971   .     S
O720   Zn725   2.002   .     S
O721   Zn726   2.002   .     S
O722   Zn726   2.001   .     S
O723   Zn725   2.001   .     S
C727   C730    1.400   .     S
C727   O784    1.283   .     A
C727   O779    1.285   .     A
C728   C730    1.396   .     A
C728   N776    1.434   .     S
C728   C1141   1.386   1_545 S
C729   C745    1.401   .     A
C729   C746    1.403   .     A
C729   C738    1.401   .     S
C730   C744    1.397   .     A
C731   N772    1.382   .     A
C731   N777    1.427   .     S
C732   N771    1.382   .     A
C732   N778    1.428   .     S
C732   C1328   1.431   .     S
C733   O781    1.382   .     S
C733   N771    1.362   .     A
C733   C1325   1.425   .     S
C734   O782    1.387   .     S
C734   N772    1.366   .     A
C735   H766    1.109   .     S
C735   O790    1.411   .     S
C735   H767    1.111   .     S
C735   H768    1.112   .     S
C736   H748    1.109   .     S
C736   O780    1.413   .     S
C736   H770    1.109   .     S
C736   H769    1.113   .     S
C737   H757    1.109   .     S
C737   H759    1.114   .     S
C737   O781    1.413   .     S
C737   H1354   1.110   .     S
C738   O783    1.287   .     A
C738   O785    1.282   .     A
C739   O782    1.416   .     S
C739   H762    1.115   .     S
C739   H763    1.109   .     S
C739   H761    1.108   .     S
C740   C742    1.412   .     S
C740   O786    1.284   .     A
C740   O788    1.290   .     A
C741   O789    1.291   .     A
C741   O787    1.283   .     A
C741   C743    1.410   .     S
C743   C610    1.349   1_655 S
C743   N642    1.439   1_655 S
C744   O790    1.385   .     S
C744   C1142   1.381   1_545 S
C745   O780    1.386   .     S
C745   C926    1.386   .     S
C746   N775    1.435   .     S
C746   C942    1.381   .     S
H749   N775    1.045   .     S
H750   N775    1.045   .     S
H751   N776    1.043   .     S
H752   N776    1.045   .     S
H753   N777    1.044   .     S
H754   N777    1.039   .     S
H755   N778    1.044   .     S
H756   N778    1.036   .     S
H758   N773    1.046   .     S
H764   N642    1.046   1_655 S
H765   N774    1.045   .     S
N771   Zn791   2.029   .     S
N772   Zn792   2.029   .     S
N773   H615    1.046   1_655 S
N773   C610    1.441   1_655 S
O779   Zn791   1.979   .     S
O783   Zn792   1.979   .     S
O784   Zn792   1.971   .     S
O785   Zn791   1.971   .     S
O786   Zn791   2.002   .     S
O787   Zn792   2.002   .     S
O788   Zn792   2.001   .     S
O789   Zn791   2.001   .     S
C793   C796    1.400   .     S
C793   O850    1.283   .     A
C793   O845    1.285   .     A
C794   C796    1.396   .     A
C794   N842    1.434   .     S
C795   C811    1.401   .     A
C795   C812    1.403   .     A
C795   C804    1.401   .     S
C796   C810    1.397   .     A
C797   N838    1.382   .     A
C797   N843    1.427   .     S
C798   N837    1.382   .     A
C798   N844    1.428   .     S
C798   C1394   1.431   .     S
C799   O847    1.382   .     S
C799   N837    1.362   .     A
C799   C1391   1.425   .     S
C800   O848    1.387   .     S
C800   N838    1.366   .     A
C801   H832    1.109   .     S
C801   O856    1.411   .     S
C801   H833    1.111   .     S
C801   H834    1.112   .     S
C802   H814    1.109   .     S
C802   O846    1.413   .     S
C802   H836    1.109   .     S
C802   H835    1.113   .     S
C803   H823    1.109   .     S
C803   H825    1.114   .     S
C803   O847    1.413   .     S
C803   H1420   1.110   .     S
C804   O849    1.287   .     A
C804   O851    1.282   .     A
C805   O848    1.416   .     S
C805   H828    1.115   .     S
C805   H829    1.109   .     S
C805   H827    1.108   .     S
C806   C808    1.412   .     S
C806   O852    1.284   .     A
C806   O854    1.290   .     A
C807   O855    1.291   .     A
C807   O853    1.283   .     A
C807   C809    1.410   .     S
C808   C941    1.349   1_455 S
C808   N971    1.441   1_455 S
C809   C874    1.349   .     S
C809   N906    1.439   .     S
C810   O856    1.385   .     S
C811   O846    1.386   .     S
C811   C992    1.386   .     S
C812   N841    1.435   .     S
C812   C1008   1.381   .     S
H813   N971    1.046   1_455 S
H815   N841    1.045   .     S
H816   N841    1.045   .     S
H817   N842    1.043   .     S
H818   N842    1.045   .     S
H819   N843    1.044   .     S
H820   N843    1.039   .     S
H821   N844    1.044   .     S
H822   N844    1.036   .     S
H824   N839    1.046   .     S
H830   N906    1.046   .     S
H831   N840    1.045   .     S
N837   Zn857   2.029   .     S
N838   Zn858   2.029   .     S
N839   H879    1.046   .     S
N839   C874    1.441   .     S
N840   C941    1.439   1_455 S
N840   H962    1.046   1_455 S
O845   Zn857   1.979   .     S
O849   Zn858   1.979   .     S
O850   Zn858   1.971   .     S
O851   Zn857   1.971   .     S
O852   Zn857   2.002   .     S
O853   Zn858   2.002   .     S
O854   Zn858   2.001   .     S
O855   Zn857   2.001   .     S
C859   C862    1.400   .     S
C859   O916    1.283   .     A
C859   O911    1.285   .     A
C860   C862    1.396   .     A
C860   N908    1.434   .     S
C861   C877    1.401   .     A
C861   C878    1.403   .     A
C861   C870    1.401   .     S
C862   C876    1.397   .     A
C863   N904    1.382   .     A
C863   N909    1.427   .     S
C864   N903    1.382   .     A
C864   N910    1.428   .     S
C864   C1460   1.431   .     S
C865   O913    1.382   .     S
C865   N903    1.362   .     A
C865   C1457   1.425   .     S
C866   O914    1.387   .     S
C866   N904    1.366   .     A
C867   H898    1.109   .     S
C867   O922    1.411   .     S
C867   H899    1.111   .     S
C867   H900    1.112   .     S
C868   H880    1.109   .     S
C868   O912    1.413   .     S
C868   H902    1.109   .     S
C868   H901    1.113   .     S
C869   H889    1.109   .     S
C869   H891    1.114   .     S
C869   O913    1.413   .     S
C869   H1486   1.110   .     S
C870   O915    1.287   .     A
C870   O917    1.282   .     A
C871   O914    1.416   .     S
C871   H894    1.115   .     S
C871   H895    1.109   .     S
C871   H893    1.108   .     S
C872   C874    1.412   .     S
C872   O918    1.284   .     A
C872   O920    1.290   .     A
C873   O921    1.291   .     A
C873   O919    1.283   .     A
C873   C875    1.410   .     S
C875   C940    1.349   .     S
C875   N972    1.439   .     S
C876   O922    1.385   .     S
C877   O912    1.386   .     S
C877   C1058   1.386   .     S
C878   N907    1.435   .     S
C878   C1074   1.381   .     S
H881   N907    1.045   .     S
H882   N907    1.045   .     S
H883   N908    1.043   .     S
H884   N908    1.045   .     S
H885   N909    1.044   .     S
H886   N909    1.039   .     S
H887   N910    1.044   .     S
H888   N910    1.036   .     S
H890   N905    1.046   .     S
H896   N972    1.046   .     S
H897   N906    1.045   .     S
N903   Zn923   2.029   .     S
N904   Zn924   2.029   .     S
N905   H945    1.046   .     S
N905   C940    1.441   .     S
O911   Zn923   1.979   .     S
O915   Zn924   1.979   .     S
O916   Zn924   1.971   .     S
O917   Zn923   1.971   .     S
O918   Zn923   2.002   .     S
O919   Zn924   2.002   .     S
O920   Zn924   2.001   .     S
O921   Zn923   2.001   .     S
C925   C928    1.400   .     S
C925   O982    1.283   .     A
C925   O977    1.285   .     A
C926   C928    1.396   .     A
C926   N974    1.434   .     S
C927   C943    1.401   .     A
C927   C944    1.403   .     A
C927   C936    1.401   .     S
C928   C942    1.397   .     A
C929   N970    1.382   .     A
C929   N975    1.427   .     S
C930   N969    1.382   .     A
C930   N976    1.428   .     S
C930   C1526   1.431   .     S
C931   O979    1.382   .     S
C931   N969    1.362   .     A
C931   C1523   1.425   .     S
C932   O980    1.387   .     S
C932   N970    1.366   .     A
C933   H964    1.109   .     S
C933   O988    1.411   .     S
C933   H965    1.111   .     S
C933   H966    1.112   .     S
C934   H946    1.109   .     S
C934   O978    1.413   .     S
C934   H968    1.109   .     S
C934   H967    1.113   .     S
C935   H955    1.109   .     S
C935   H957    1.114   .     S
C935   O979    1.413   .     S
C935   H1552   1.110   .     S
C936   O981    1.287   .     A
C936   O983    1.282   .     A
C937   O980    1.416   .     S
C937   H960    1.115   .     S
C937   H961    1.109   .     S
C937   H959    1.108   .     S
C938   C940    1.412   .     S
C938   O984    1.284   .     A
C938   O986    1.290   .     A
C939   O987    1.291   .     A
C939   O985    1.283   .     A
C939   C941    1.410   .     S
C941   C808    1.349   1_655 S
C941   N840    1.439   1_655 S
C942   O988    1.385   .     S
C943   O978    1.386   .     S
C943   C1124   1.386   .     S
C944   N973    1.435   .     S
C944   C1140   1.381   .     S
H947   N973    1.045   .     S
H948   N973    1.045   .     S
H949   N974    1.043   .     S
H950   N974    1.045   .     S
H951   N975    1.044   .     S
H952   N975    1.039   .     S
H953   N976    1.044   .     S
H954   N976    1.036   .     S
H956   N971    1.046   .     S
H962   N840    1.046   1_655 S
H963   N972    1.045   .     S
N969   Zn989   2.029   .     S
N970   Zn990   2.029   .     S
N971   H813    1.046   1_655 S
N971   C808    1.441   1_655 S
O977   Zn989   1.979   .     S
O981   Zn990   1.979   .     S
O982   Zn990   1.971   .     S
O983   Zn989   1.971   .     S
O984   Zn989   2.002   .     S
O985   Zn990   2.002   .     S
O986   Zn990   2.001   .     S
O987   Zn989   2.001   .     S
C991   C994    1.400   .     S
C991   O1048   1.283   .     A
C991   O1043   1.285   .     A
C992   C994    1.396   .     A
C992   N1040   1.434   .     S
C993   C1009   1.401   .     A
C993   C1010   1.403   .     A
C993   C1002   1.401   .     S
C994   C1008   1.397   .     A
C995   N1036   1.382   .     A
C995   N1041   1.427   .     S
C996   N1035   1.382   .     A
C996   N1042   1.428   .     S
C996   C1592   1.431   .     S
C997   O1045   1.382   .     S
C997   N1035   1.362   .     A
C997   C1589   1.425   .     S
C998   O1046   1.387   .     S
C998   N1036   1.366   .     A
C999   H1030   1.109   .     S
C999   O1054   1.411   .     S
C999   H1031   1.111   .     S
C999   H1032   1.112   .     S
C1000  H1012   1.109   .     S
C1000  O1044   1.413   .     S
C1000  H1034   1.109   .     S
C1000  H1033   1.113   .     S
C1001  H1021   1.109   .     S
C1001  H1023   1.114   .     S
C1001  O1045   1.413   .     S
C1001  H1618   1.110   .     S
C1002  O1047   1.287   .     A
C1002  O1049   1.282   .     A
C1003  O1046   1.416   .     S
C1003  H1026   1.115   .     S
C1003  H1027   1.109   .     S
C1003  H1025   1.108   .     S
C1004  C1006   1.412   .     S
C1004  O1050   1.284   .     A
C1004  O1052   1.290   .     A
C1005  O1053   1.291   .     A
C1005  O1051   1.283   .     A
C1005  C1007   1.410   .     S
C1006  C1139   1.349   1_455 S
C1006  N1169   1.441   1_455 S
C1007  C1072   1.349   .     S
C1007  N1104   1.439   .     S
C1008  O1054   1.385   .     S
C1009  O1044   1.386   .     S
C1009  C596    1.386   1_565 S
C1010  N1039   1.435   .     S
C1010  C612    1.381   1_565 S
H1011  N1169   1.046   1_455 S
H1013  N1039   1.045   .     S
H1014  N1039   1.045   .     S
H1015  N1040   1.043   .     S
H1016  N1040   1.045   .     S
H1017  N1041   1.044   .     S
H1018  N1041   1.039   .     S
H1019  N1042   1.044   .     S
H1020  N1042   1.036   .     S
H1022  N1037   1.046   .     S
H1028  N1104   1.046   .     S
H1029  N1038   1.045   .     S
N1035  Zn1055  2.029   .     S
N1036  Zn1056  2.029   .     S
N1037  H1077   1.046   .     S
N1037  C1072   1.441   .     S
N1038  C1139   1.439   1_455 S
N1038  H1160   1.046   1_455 S
O1043  Zn1055  1.979   .     S
O1047  Zn1056  1.979   .     S
O1048  Zn1056  1.971   .     S
O1049  Zn1055  1.971   .     S
O1050  Zn1055  2.002   .     S
O1051  Zn1056  2.002   .     S
O1052  Zn1056  2.001   .     S
O1053  Zn1055  2.001   .     S
C1057  C1060   1.400   .     S
C1057  O1114   1.283   .     A
C1057  O1109   1.285   .     A
C1058  C1060   1.396   .     A
C1058  N1106   1.434   .     S
C1059  C1075   1.401   .     A
C1059  C1076   1.403   .     A
C1059  C1068   1.401   .     S
C1060  C1074   1.397   .     A
C1061  N1102   1.382   .     A
C1061  N1107   1.427   .     S
C1062  N1101   1.382   .     A
C1062  N1108   1.428   .     S
C1062  C1658   1.431   .     S
C1063  O1111   1.382   .     S
C1063  N1101   1.362   .     A
C1063  C1655   1.425   .     S
C1064  O1112   1.387   .     S
C1064  N1102   1.366   .     A
C1065  H1096   1.109   .     S
C1065  O1120   1.411   .     S
C1065  H1097   1.111   .     S
C1065  H1098   1.112   .     S
C1066  H1078   1.109   .     S
C1066  O1110   1.413   .     S
C1066  H1100   1.109   .     S
C1066  H1099   1.113   .     S
C1067  H1087   1.109   .     S
C1067  H1089   1.114   .     S
C1067  O1111   1.413   .     S
C1067  H1684   1.110   .     S
C1068  O1113   1.287   .     A
C1068  O1115   1.282   .     A
C1069  O1112   1.416   .     S
C1069  H1092   1.115   .     S
C1069  H1093   1.109   .     S
C1069  H1091   1.108   .     S
C1070  C1072   1.412   .     S
C1070  O1116   1.284   .     A
C1070  O1118   1.290   .     A
C1071  O1119   1.291   .     A
C1071  O1117   1.283   .     A
C1071  C1073   1.410   .     S
C1073  C1138   1.349   .     S
C1073  N1170   1.439   .     S
C1074  O1120   1.385   .     S
C1075  O1110   1.386   .     S
C1075  C662    1.386   1_565 S
C1076  N1105   1.435   .     S
C1076  C678    1.381   1_565 S
H1079  N1105   1.045   .     S
H1080  N1105   1.045   .     S
H1081  N1106   1.043   .     S
H1082  N1106   1.045   .     S
H1083  N1107   1.044   .     S
H1084  N1107   1.039   .     S
H1085  N1108   1.044   .     S
H1086  N1108   1.036   .     S
H1088  N1103   1.046   .     S
H1094  N1170   1.046   .     S
H1095  N1104   1.045   .     S
N1101  Zn1121  2.029   .     S
N1102  Zn1122  2.029   .     S
N1103  H1143   1.046   .     S
N1103  C1138   1.441   .     S
O1109  Zn1121  1.979   .     S
O1113  Zn1122  1.979   .     S
O1114  Zn1122  1.971   .     S
O1115  Zn1121  1.971   .     S
O1116  Zn1121  2.002   .     S
O1117  Zn1122  2.002   .     S
O1118  Zn1122  2.001   .     S
O1119  Zn1121  2.001   .     S
C1123  C1126   1.400   .     S
C1123  O1180   1.283   .     A
C1123  O1175   1.285   .     A
C1124  C1126   1.396   .     A
C1124  N1172   1.434   .     S
C1125  C1141   1.401   .     A
C1125  C1142   1.403   .     A
C1125  C1134   1.401   .     S
C1126  C1140   1.397   .     A
C1127  N1168   1.382   .     A
C1127  N1173   1.427   .     S
C1128  N1167   1.382   .     A
C1128  N1174   1.428   .     S
C1128  C1724   1.431   .     S
C1129  O1177   1.382   .     S
C1129  N1167   1.362   .     A
C1129  C1721   1.425   .     S
C1130  O1178   1.387   .     S
C1130  N1168   1.366   .     A
C1131  H1162   1.109   .     S
C1131  O1186   1.411   .     S
C1131  H1163   1.111   .     S
C1131  H1164   1.112   .     S
C1132  H1144   1.109   .     S
C1132  O1176   1.413   .     S
C1132  H1166   1.109   .     S
C1132  H1165   1.113   .     S
C1133  H1153   1.109   .     S
C1133  H1155   1.114   .     S
C1133  O1177   1.413   .     S
C1133  H1750   1.110   .     S
C1134  O1179   1.287   .     A
C1134  O1181   1.282   .     A
C1135  O1178   1.416   .     S
C1135  H1158   1.115   .     S
C1135  H1159   1.109   .     S
C1135  H1157   1.108   .     S
C1136  C1138   1.412   .     S
C1136  O1182   1.284   .     A
C1136  O1184   1.290   .     A
C1137  O1185   1.291   .     A
C1137  O1183   1.283   .     A
C1137  C1139   1.410   .     S
C1139  C1006   1.349   1_655 S
C1139  N1038   1.439   1_655 S
C1140  O1186   1.385   .     S
C1141  O1176   1.386   .     S
C1141  C728    1.386   1_565 S
C1142  N1171   1.435   .     S
C1142  C744    1.381   1_565 S
H1145  N1171   1.045   .     S
H1146  N1171   1.045   .     S
H1147  N1172   1.043   .     S
H1148  N1172   1.045   .     S
H1149  N1173   1.044   .     S
H1150  N1173   1.039   .     S
H1151  N1174   1.044   .     S
H1152  N1174   1.036   .     S
H1154  N1169   1.046   .     S
H1160  N1038   1.046   1_655 S
H1161  N1170   1.045   .     S
N1167  Zn1187  2.029   .     S
N1168  Zn1188  2.029   .     S
N1169  H1011   1.046   1_655 S
N1169  C1006   1.441   1_655 S
O1175  Zn1187  1.979   .     S
O1179  Zn1188  1.979   .     S
O1180  Zn1188  1.971   .     S
O1181  Zn1187  1.971   .     S
O1182  Zn1187  2.002   .     S
O1183  Zn1188  2.002   .     S
O1184  Zn1188  2.001   .     S
O1185  Zn1187  2.001   .     S
C1189  C1192   1.400   .     S
C1189  O1246   1.283   .     A
C1189  O1241   1.285   .     A
C1190  C1192   1.396   .     A
C1190  N1238   1.434   .     S
C1190  C1603   1.386   1_545 S
C1191  C1207   1.401   .     A
C1191  C1208   1.403   .     A
C1191  C1200   1.401   .     S
C1192  C1206   1.397   .     A
C1193  N1234   1.382   .     A
C1193  N1239   1.427   .     S
C1194  N1233   1.382   .     A
C1194  N1240   1.428   .     S
C1194  C8      1.431   1_556 S
C1195  O1243   1.382   .     S
C1195  N1233   1.362   .     A
C1195  C5      1.425   1_556 S
C1196  O1244   1.387   .     S
C1196  N1234   1.366   .     A
C1197  H1228   1.109   .     S
C1197  O1252   1.411   .     S
C1197  H1229   1.111   .     S
C1197  H1230   1.112   .     S
C1198  H1210   1.109   .     S
C1198  O1242   1.413   .     S
C1198  H1232   1.109   .     S
C1198  H1231   1.113   .     S
C1199  H1219   1.109   .     S
C1199  H1221   1.114   .     S
C1199  O1243   1.413   .     S
C1199  H34     1.110   1_556 S
C1200  O1245   1.287   .     A
C1200  O1247   1.282   .     A
C1201  O1244   1.416   .     S
C1201  H1224   1.115   .     S
C1201  H1225   1.109   .     S
C1201  H1223   1.108   .     S
C1202  C1204   1.412   .     S
C1202  O1248   1.284   .     A
C1202  O1250   1.290   .     A
C1203  O1251   1.291   .     A
C1203  O1249   1.283   .     A
C1203  C1205   1.410   .     S
C1204  C1337   1.349   1_455 S
C1204  N1367   1.441   1_455 S
C1205  C1270   1.349   .     S
C1205  N1302   1.439   .     S
C1206  O1252   1.385   .     S
C1206  C1604   1.381   1_545 S
C1207  O1242   1.386   .     S
C1207  C1388   1.386   .     S
C1208  N1237   1.435   .     S
C1208  C1404   1.381   .     S
H1209  N1367   1.046   1_455 S
H1211  N1237   1.045   .     S
H1212  N1237   1.045   .     S
H1213  N1238   1.043   .     S
H1214  N1238   1.045   .     S
H1215  N1239   1.044   .     S
H1216  N1239   1.039   .     S
H1217  N1240   1.044   .     S
H1218  N1240   1.036   .     S
H1220  N1235   1.046   .     S
H1226  N1302   1.046   .     S
H1227  N1236   1.045   .     S
N1233  Zn1253  2.029   .     S
N1234  Zn1254  2.029   .     S
N1235  H1275   1.046   .     S
N1235  C1270   1.441   .     S
N1236  C1337   1.439   1_455 S
N1236  H1358   1.046   1_455 S
O1241  Zn1253  1.979   .     S
O1245  Zn1254  1.979   .     S
O1246  Zn1254  1.971   .     S
O1247  Zn1253  1.971   .     S
O1248  Zn1253  2.002   .     S
O1249  Zn1254  2.002   .     S
O1250  Zn1254  2.001   .     S
O1251  Zn1253  2.001   .     S
C1255  C1258   1.400   .     S
C1255  O1312   1.283   .     A
C1255  O1307   1.285   .     A
C1256  C1258   1.396   .     A
C1256  N1304   1.434   .     S
C1256  C1669   1.386   1_545 S
C1257  C1273   1.401   .     A
C1257  C1274   1.403   .     A
C1257  C1266   1.401   .     S
C1258  C1272   1.397   .     A
C1259  N1300   1.382   .     A
C1259  N1305   1.427   .     S
C1260  N1299   1.382   .     A
C1260  N1306   1.428   .     S
C1260  C74     1.431   1_556 S
C1261  O1309   1.382   .     S
C1261  N1299   1.362   .     A
C1261  C71     1.425   1_556 S
C1262  O1310   1.387   .     S
C1262  N1300   1.366   .     A
C1263  H1294   1.109   .     S
C1263  O1318   1.411   .     S
C1263  H1295   1.111   .     S
C1263  H1296   1.112   .     S
C1264  H1276   1.109   .     S
C1264  O1308   1.413   .     S
C1264  H1298   1.109   .     S
C1264  H1297   1.113   .     S
C1265  H1285   1.109   .     S
C1265  H1287   1.114   .     S
C1265  O1309   1.413   .     S
C1265  H100    1.110   1_556 S
C1266  O1311   1.287   .     A
C1266  O1313   1.282   .     A
C1267  O1310   1.416   .     S
C1267  H1290   1.115   .     S
C1267  H1291   1.109   .     S
C1267  H1289   1.108   .     S
C1268  C1270   1.412   .     S
C1268  O1314   1.284   .     A
C1268  O1316   1.290   .     A
C1269  O1317   1.291   .     A
C1269  O1315   1.283   .     A
C1269  C1271   1.410   .     S
C1271  C1336   1.349   .     S
C1271  N1368   1.439   .     S
C1272  O1318   1.385   .     S
C1272  C1670   1.381   1_545 S
C1273  O1308   1.386   .     S
C1273  C1454   1.386   .     S
C1274  N1303   1.435   .     S
C1274  C1470   1.381   .     S
H1277  N1303   1.045   .     S
H1278  N1303   1.045   .     S
H1279  N1304   1.043   .     S
H1280  N1304   1.045   .     S
H1281  N1305   1.044   .     S
H1282  N1305   1.039   .     S
H1283  N1306   1.044   .     S
H1284  N1306   1.036   .     S
H1286  N1301   1.046   .     S
H1292  N1368   1.046   .     S
H1293  N1302   1.045   .     S
N1299  Zn1319  2.029   .     S
N1300  Zn1320  2.029   .     S
N1301  H1341   1.046   .     S
N1301  C1336   1.441   .     S
O1307  Zn1319  1.979   .     S
O1311  Zn1320  1.979   .     S
O1312  Zn1320  1.971   .     S
O1313  Zn1319  1.971   .     S
O1314  Zn1319  2.002   .     S
O1315  Zn1320  2.002   .     S
O1316  Zn1320  2.001   .     S
O1317  Zn1319  2.001   .     S
C1321  C1324   1.400   .     S
C1321  O1378   1.283   .     A
C1321  O1373   1.285   .     A
C1322  C1324   1.396   .     A
C1322  N1370   1.434   .     S
C1322  C1735   1.386   1_545 S
C1323  C1339   1.401   .     A
C1323  C1340   1.403   .     A
C1323  C1332   1.401   .     S
C1324  C1338   1.397   .     A
C1325  N1366   1.382   .     A
C1325  N1371   1.427   .     S
C1326  N1365   1.382   .     A
C1326  N1372   1.428   .     S
C1326  C140    1.431   1_556 S
C1327  O1375   1.382   .     S
C1327  N1365   1.362   .     A
C1327  C137    1.425   1_556 S
C1328  O1376   1.387   .     S
C1328  N1366   1.366   .     A
C1329  H1360   1.109   .     S
C1329  O1384   1.411   .     S
C1329  H1361   1.111   .     S
C1329  H1362   1.112   .     S
C1330  H1342   1.109   .     S
C1330  O1374   1.413   .     S
C1330  H1364   1.109   .     S
C1330  H1363   1.113   .     S
C1331  H1351   1.109   .     S
C1331  H1353   1.114   .     S
C1331  O1375   1.413   .     S
C1331  H166    1.110   1_556 S
C1332  O1377   1.287   .     A
C1332  O1379   1.282   .     A
C1333  O1376   1.416   .     S
C1333  H1356   1.115   .     S
C1333  H1357   1.109   .     S
C1333  H1355   1.108   .     S
C1334  C1336   1.412   .     S
C1334  O1380   1.284   .     A
C1334  O1382   1.290   .     A
C1335  O1383   1.291   .     A
C1335  O1381   1.283   .     A
C1335  C1337   1.410   .     S
C1337  C1204   1.349   1_655 S
C1337  N1236   1.439   1_655 S
C1338  O1384   1.385   .     S
C1338  C1736   1.381   1_545 S
C1339  O1374   1.386   .     S
C1339  C1520   1.386   .     S
C1340  N1369   1.435   .     S
C1340  C1536   1.381   .     S
H1343  N1369   1.045   .     S
H1344  N1369   1.045   .     S
H1345  N1370   1.043   .     S
H1346  N1370   1.045   .     S
H1347  N1371   1.044   .     S
H1348  N1371   1.039   .     S
H1349  N1372   1.044   .     S
H1350  N1372   1.036   .     S
H1352  N1367   1.046   .     S
H1358  N1236   1.046   1_655 S
H1359  N1368   1.045   .     S
N1365  Zn1385  2.029   .     S
N1366  Zn1386  2.029   .     S
N1367  H1209   1.046   1_655 S
N1367  C1204   1.441   1_655 S
O1373  Zn1385  1.979   .     S
O1377  Zn1386  1.979   .     S
O1378  Zn1386  1.971   .     S
O1379  Zn1385  1.971   .     S
O1380  Zn1385  2.002   .     S
O1381  Zn1386  2.002   .     S
O1382  Zn1386  2.001   .     S
O1383  Zn1385  2.001   .     S
C1387  C1390   1.400   .     S
C1387  O1444   1.283   .     A
C1387  O1439   1.285   .     A
C1388  C1390   1.396   .     A
C1388  N1436   1.434   .     S
C1389  C1405   1.401   .     A
C1389  C1406   1.403   .     A
C1389  C1398   1.401   .     S
C1390  C1404   1.397   .     A
C1391  N1432   1.382   .     A
C1391  N1437   1.427   .     S
C1392  N1431   1.382   .     A
C1392  N1438   1.428   .     S
C1392  C206    1.431   1_556 S
C1393  O1441   1.382   .     S
C1393  N1431   1.362   .     A
C1393  C203    1.425   1_556 S
C1394  O1442   1.387   .     S
C1394  N1432   1.366   .     A
C1395  H1426   1.109   .     S
C1395  O1450   1.411   .     S
C1395  H1427   1.111   .     S
C1395  H1428   1.112   .     S
C1396  H1408   1.109   .     S
C1396  O1440   1.413   .     S
C1396  H1430   1.109   .     S
C1396  H1429   1.113   .     S
C1397  H1417   1.109   .     S
C1397  H1419   1.114   .     S
C1397  O1441   1.413   .     S
C1397  H232    1.110   1_556 S
C1398  O1443   1.287   .     A
C1398  O1445   1.282   .     A
C1399  O1442   1.416   .     S
C1399  H1422   1.115   .     S
C1399  H1423   1.109   .     S
C1399  H1421   1.108   .     S
C1400  C1402   1.412   .     S
C1400  O1446   1.284   .     A
C1400  O1448   1.290   .     A
C1401  O1449   1.291   .     A
C1401  O1447   1.283   .     A
C1401  C1403   1.410   .     S
C1402  C1535   1.349   1_455 S
C1402  N1565   1.441   1_455 S
C1403  C1468   1.349   .     S
C1403  N1500   1.439   .     S
C1404  O1450   1.385   .     S
C1405  O1440   1.386   .     S
C1405  C1586   1.386   .     S
C1406  N1435   1.435   .     S
C1406  C1602   1.381   .     S
H1407  N1565   1.046   1_455 S
H1409  N1435   1.045   .     S
H1410  N1435   1.045   .     S
H1411  N1436   1.043   .     S
H1412  N1436   1.045   .     S
H1413  N1437   1.044   .     S
H1414  N1437   1.039   .     S
H1415  N1438   1.044   .     S
H1416  N1438   1.036   .     S
H1418  N1433   1.046   .     S
H1424  N1500   1.046   .     S
H1425  N1434   1.045   .     S
N1431  Zn1451  2.029   .     S
N1432  Zn1452  2.029   .     S
N1433  H1473   1.046   .     S
N1433  C1468   1.441   .     S
N1434  C1535   1.439   1_455 S
N1434  H1556   1.046   1_455 S
O1439  Zn1451  1.979   .     S
O1443  Zn1452  1.979   .     S
O1444  Zn1452  1.971   .     S
O1445  Zn1451  1.971   .     S
O1446  Zn1451  2.002   .     S
O1447  Zn1452  2.002   .     S
O1448  Zn1452  2.001   .     S
O1449  Zn1451  2.001   .     S
C1453  C1456   1.400   .     S
C1453  O1510   1.283   .     A
C1453  O1505   1.285   .     A
C1454  C1456   1.396   .     A
C1454  N1502   1.434   .     S
C1455  C1471   1.401   .     A
C1455  C1472   1.403   .     A
C1455  C1464   1.401   .     S
C1456  C1470   1.397   .     A
C1457  N1498   1.382   .     A
C1457  N1503   1.427   .     S
C1458  N1497   1.382   .     A
C1458  N1504   1.428   .     S
C1458  C272    1.431   1_556 S
C1459  O1507   1.382   .     S
C1459  N1497   1.362   .     A
C1459  C269    1.425   1_556 S
C1460  O1508   1.387   .     S
C1460  N1498   1.366   .     A
C1461  H1492   1.109   .     S
C1461  O1516   1.411   .     S
C1461  H1493   1.111   .     S
C1461  H1494   1.112   .     S
C1462  H1474   1.109   .     S
C1462  O1506   1.413   .     S
C1462  H1496   1.109   .     S
C1462  H1495   1.113   .     S
C1463  H1483   1.109   .     S
C1463  H1485   1.114   .     S
C1463  O1507   1.413   .     S
C1463  H298    1.110   1_556 S
C1464  O1509   1.287   .     A
C1464  O1511   1.282   .     A
C1465  O1508   1.416   .     S
C1465  H1488   1.115   .     S
C1465  H1489   1.109   .     S
C1465  H1487   1.108   .     S
C1466  C1468   1.412   .     S
C1466  O1512   1.284   .     A
C1466  O1514   1.290   .     A
C1467  O1515   1.291   .     A
C1467  O1513   1.283   .     A
C1467  C1469   1.410   .     S
C1469  C1534   1.349   .     S
C1469  N1566   1.439   .     S
C1470  O1516   1.385   .     S
C1471  O1506   1.386   .     S
C1471  C1652   1.386   .     S
C1472  N1501   1.435   .     S
C1472  C1668   1.381   .     S
H1475  N1501   1.045   .     S
H1476  N1501   1.045   .     S
H1477  N1502   1.043   .     S
H1478  N1502   1.045   .     S
H1479  N1503   1.044   .     S
H1480  N1503   1.039   .     S
H1481  N1504   1.044   .     S
H1482  N1504   1.036   .     S
H1484  N1499   1.046   .     S
H1490  N1566   1.046   .     S
H1491  N1500   1.045   .     S
N1497  Zn1517  2.029   .     S
N1498  Zn1518  2.029   .     S
N1499  H1539   1.046   .     S
N1499  C1534   1.441   .     S
O1505  Zn1517  1.979   .     S
O1509  Zn1518  1.979   .     S
O1510  Zn1518  1.971   .     S
O1511  Zn1517  1.971   .     S
O1512  Zn1517  2.002   .     S
O1513  Zn1518  2.002   .     S
O1514  Zn1518  2.001   .     S
O1515  Zn1517  2.001   .     S
C1519  C1522   1.400   .     S
C1519  O1576   1.283   .     A
C1519  O1571   1.285   .     A
C1520  C1522   1.396   .     A
C1520  N1568   1.434   .     S
C1521  C1537   1.401   .     A
C1521  C1538   1.403   .     A
C1521  C1530   1.401   .     S
C1522  C1536   1.397   .     A
C1523  N1564   1.382   .     A
C1523  N1569   1.427   .     S
C1524  N1563   1.382   .     A
C1524  N1570   1.428   .     S
C1524  C338    1.431   1_556 S
C1525  O1573   1.382   .     S
C1525  N1563   1.362   .     A
C1525  C335    1.425   1_556 S
C1526  O1574   1.387   .     S
C1526  N1564   1.366   .     A
C1527  H1558   1.109   .     S
C1527  O1582   1.411   .     S
C1527  H1559   1.111   .     S
C1527  H1560   1.112   .     S
C1528  H1540   1.109   .     S
C1528  O1572   1.413   .     S
C1528  H1562   1.109   .     S
C1528  H1561   1.113   .     S
C1529  H1549   1.109   .     S
C1529  H1551   1.114   .     S
C1529  O1573   1.413   .     S
C1529  H364    1.110   1_556 S
C1530  O1575   1.287   .     A
C1530  O1577   1.282   .     A
C1531  O1574   1.416   .     S
C1531  H1554   1.115   .     S
C1531  H1555   1.109   .     S
C1531  H1553   1.108   .     S
C1532  C1534   1.412   .     S
C1532  O1578   1.284   .     A
C1532  O1580   1.290   .     A
C1533  O1581   1.291   .     A
C1533  O1579   1.283   .     A
C1533  C1535   1.410   .     S
C1535  C1402   1.349   1_655 S
C1535  N1434   1.439   1_655 S
C1536  O1582   1.385   .     S
C1537  O1572   1.386   .     S
C1537  C1718   1.386   .     S
C1538  N1567   1.435   .     S
C1538  C1734   1.381   .     S
H1541  N1567   1.045   .     S
H1542  N1567   1.045   .     S
H1543  N1568   1.043   .     S
H1544  N1568   1.045   .     S
H1545  N1569   1.044   .     S
H1546  N1569   1.039   .     S
H1547  N1570   1.044   .     S
H1548  N1570   1.036   .     S
H1550  N1565   1.046   .     S
H1556  N1434   1.046   1_655 S
H1557  N1566   1.045   .     S
N1563  Zn1583  2.029   .     S
N1564  Zn1584  2.029   .     S
N1565  H1407   1.046   1_655 S
N1565  C1402   1.441   1_655 S
O1571  Zn1583  1.979   .     S
O1575  Zn1584  1.979   .     S
O1576  Zn1584  1.971   .     S
O1577  Zn1583  1.971   .     S
O1578  Zn1583  2.002   .     S
O1579  Zn1584  2.002   .     S
O1580  Zn1584  2.001   .     S
O1581  Zn1583  2.001   .     S
C1585  C1588   1.400   .     S
C1585  O1642   1.283   .     A
C1585  O1637   1.285   .     A
C1586  C1588   1.396   .     A
C1586  N1634   1.434   .     S
C1587  C1603   1.401   .     A
C1587  C1604   1.403   .     A
C1587  C1596   1.401   .     S
C1588  C1602   1.397   .     A
C1589  N1630   1.382   .     A
C1589  N1635   1.427   .     S
C1590  N1629   1.382   .     A
C1590  N1636   1.428   .     S
C1590  C404    1.431   1_556 S
C1591  O1639   1.382   .     S
C1591  N1629   1.362   .     A
C1591  C401    1.425   1_556 S
C1592  O1640   1.387   .     S
C1592  N1630   1.366   .     A
C1593  H1624   1.109   .     S
C1593  O1648   1.411   .     S
C1593  H1625   1.111   .     S
C1593  H1626   1.112   .     S
C1594  H1606   1.109   .     S
C1594  O1638   1.413   .     S
C1594  H1628   1.109   .     S
C1594  H1627   1.113   .     S
C1595  H1615   1.109   .     S
C1595  H1617   1.114   .     S
C1595  O1639   1.413   .     S
C1595  H430    1.110   1_556 S
C1596  O1641   1.287   .     A
C1596  O1643   1.282   .     A
C1597  O1640   1.416   .     S
C1597  H1620   1.115   .     S
C1597  H1621   1.109   .     S
C1597  H1619   1.108   .     S
C1598  C1600   1.412   .     S
C1598  O1644   1.284   .     A
C1598  O1646   1.290   .     A
C1599  O1647   1.291   .     A
C1599  O1645   1.283   .     A
C1599  C1601   1.410   .     S
C1600  C1733   1.349   1_455 S
C1600  N1763   1.441   1_455 S
C1601  C1666   1.349   .     S
C1601  N1698   1.439   .     S
C1602  O1648   1.385   .     S
C1603  O1638   1.386   .     S
C1603  C1190   1.386   1_565 S
C1604  N1633   1.435   .     S
C1604  C1206   1.381   1_565 S
H1605  N1763   1.046   1_455 S
H1607  N1633   1.045   .     S
H1608  N1633   1.045   .     S
H1609  N1634   1.043   .     S
H1610  N1634   1.045   .     S
H1611  N1635   1.044   .     S
H1612  N1635   1.039   .     S
H1613  N1636   1.044   .     S
H1614  N1636   1.036   .     S
H1616  N1631   1.046   .     S
H1622  N1698   1.046   .     S
H1623  N1632   1.045   .     S
N1629  Zn1649  2.029   .     S
N1630  Zn1650  2.029   .     S
N1631  H1671   1.046   .     S
N1631  C1666   1.441   .     S
N1632  C1733   1.439   1_455 S
N1632  H1754   1.046   1_455 S
O1637  Zn1649  1.979   .     S
O1641  Zn1650  1.979   .     S
O1642  Zn1650  1.971   .     S
O1643  Zn1649  1.971   .     S
O1644  Zn1649  2.002   .     S
O1645  Zn1650  2.002   .     S
O1646  Zn1650  2.001   .     S
O1647  Zn1649  2.001   .     S
C1651  C1654   1.400   .     S
C1651  O1708   1.283   .     A
C1651  O1703   1.285   .     A
C1652  C1654   1.396   .     A
C1652  N1700   1.434   .     S
C1653  C1669   1.401   .     A
C1653  C1670   1.403   .     A
C1653  C1662   1.401   .     S
C1654  C1668   1.397   .     A
C1655  N1696   1.382   .     A
C1655  N1701   1.427   .     S
C1656  N1695   1.382   .     A
C1656  N1702   1.428   .     S
C1656  C470    1.431   1_556 S
C1657  O1705   1.382   .     S
C1657  N1695   1.362   .     A
C1657  C467    1.425   1_556 S
C1658  O1706   1.387   .     S
C1658  N1696   1.366   .     A
C1659  H1690   1.109   .     S
C1659  O1714   1.411   .     S
C1659  H1691   1.111   .     S
C1659  H1692   1.112   .     S
C1660  H1672   1.109   .     S
C1660  O1704   1.413   .     S
C1660  H1694   1.109   .     S
C1660  H1693   1.113   .     S
C1661  H1681   1.109   .     S
C1661  H1683   1.114   .     S
C1661  O1705   1.413   .     S
C1661  H496    1.110   1_556 S
C1662  O1707   1.287   .     A
C1662  O1709   1.282   .     A
C1663  O1706   1.416   .     S
C1663  H1686   1.115   .     S
C1663  H1687   1.109   .     S
C1663  H1685   1.108   .     S
C1664  C1666   1.412   .     S
C1664  O1710   1.284   .     A
C1664  O1712   1.290   .     A
C1665  O1713   1.291   .     A
C1665  O1711   1.283   .     A
C1665  C1667   1.410   .     S
C1667  C1732   1.349   .     S
C1667  N1764   1.439   .     S
C1668  O1714   1.385   .     S
C1669  O1704   1.386   .     S
C1669  C1256   1.386   1_565 S
C1670  N1699   1.435   .     S
C1670  C1272   1.381   1_565 S
H1673  N1699   1.045   .     S
H1674  N1699   1.045   .     S
H1675  N1700   1.043   .     S
H1676  N1700   1.045   .     S
H1677  N1701   1.044   .     S
H1678  N1701   1.039   .     S
H1679  N1702   1.044   .     S
H1680  N1702   1.036   .     S
H1682  N1697   1.046   .     S
H1688  N1764   1.046   .     S
H1689  N1698   1.045   .     S
N1695  Zn1715  2.029   .     S
N1696  Zn1716  2.029   .     S
N1697  H1737   1.046   .     S
N1697  C1732   1.441   .     S
O1703  Zn1715  1.979   .     S
O1707  Zn1716  1.979   .     S
O1708  Zn1716  1.971   .     S
O1709  Zn1715  1.971   .     S
O1710  Zn1715  2.002   .     S
O1711  Zn1716  2.002   .     S
O1712  Zn1716  2.001   .     S
O1713  Zn1715  2.001   .     S
C1717  C1720   1.400   .     S
C1717  O1774   1.283   .     A
C1717  O1769   1.285   .     A
C1718  C1720   1.396   .     A
C1718  N1766   1.434   .     S
C1719  C1735   1.401   .     A
C1719  C1736   1.403   .     A
C1719  C1728   1.401   .     S
C1720  C1734   1.397   .     A
C1721  N1762   1.382   .     A
C1721  N1767   1.427   .     S
C1722  N1761   1.382   .     A
C1722  N1768   1.428   .     S
C1722  C536    1.431   1_556 S
C1723  O1771   1.382   .     S
C1723  N1761   1.362   .     A
C1723  C533    1.425   1_556 S
C1724  O1772   1.387   .     S
C1724  N1762   1.366   .     A
C1725  H1756   1.109   .     S
C1725  O1780   1.411   .     S
C1725  H1757   1.111   .     S
C1725  H1758   1.112   .     S
C1726  H1738   1.109   .     S
C1726  O1770   1.413   .     S
C1726  H1760   1.109   .     S
C1726  H1759   1.113   .     S
C1727  H1747   1.109   .     S
C1727  H1749   1.114   .     S
C1727  O1771   1.413   .     S
C1727  H562    1.110   1_556 S
C1728  O1773   1.287   .     A
C1728  O1775   1.282   .     A
C1729  O1772   1.416   .     S
C1729  H1752   1.115   .     S
C1729  H1753   1.109   .     S
C1729  H1751   1.108   .     S
C1730  C1732   1.412   .     S
C1730  O1776   1.284   .     A
C1730  O1778   1.290   .     A
C1731  O1779   1.291   .     A
C1731  O1777   1.283   .     A
C1731  C1733   1.410   .     S
C1733  C1600   1.349   1_655 S
C1733  N1632   1.439   1_655 S
C1734  O1780   1.385   .     S
C1735  O1770   1.386   .     S
C1735  C1322   1.386   1_565 S
C1736  N1765   1.435   .     S
C1736  C1338   1.381   1_565 S
H1739  N1765   1.045   .     S
H1740  N1765   1.045   .     S
H1741  N1766   1.043   .     S
H1742  N1766   1.045   .     S
H1743  N1767   1.044   .     S
H1744  N1767   1.039   .     S
H1745  N1768   1.044   .     S
H1746  N1768   1.036   .     S
H1748  N1763   1.046   .     S
H1754  N1632   1.046   1_655 S
H1755  N1764   1.045   .     S
N1761  Zn1781  2.029   .     S
N1762  Zn1782  2.029   .     S
N1763  H1605   1.046   1_655 S
N1763  C1600   1.441   1_655 S
O1769  Zn1781  1.979   .     S
O1773  Zn1782  1.979   .     S
O1774  Zn1782  1.971   .     S
O1775  Zn1781  1.971   .     S
O1776  Zn1781  2.002   .     S
O1777  Zn1782  2.002   .     S
O1778  Zn1782  2.001   .     S
O1779  Zn1781  2.001   .     S
