data_str_m1_o10_o18_pcu_sym.199
_audit_creation_date              2020-01-03
_audit_creation_method            'Materials Studio'
_symmetry_space_group_name_H-M    'P1'
_symmetry_Int_Tables_number       1
_symmetry_cell_setting            triclinic
loop_
_symmetry_equiv_pos_as_xyz
  x,y,z
_cell_length_a                    32.6833
_cell_length_b                    32.5176
_cell_length_c                    35.7304
_cell_angle_alpha                 97.9341
_cell_angle_beta                  72.7275
_cell_angle_gamma                 98.6446
loop_
_atom_site_label
_atom_site_type_symbol
_atom_site_fract_x
_atom_site_fract_y
_atom_site_fract_z
_atom_site_U_iso_or_equiv
_atom_site_adp_type
_atom_site_occupancy
C1     C     0.05258   0.15977   0.25908   0.00000  Uiso   1.00
C2     C     0.21235   0.14487   0.45815   0.00000  Uiso   1.00
C3     C     0.23487   0.12650   0.47743   0.00000  Uiso   1.00
C4     C     0.28122   0.17351   0.24099   0.00000  Uiso   1.00
C5     C     0.22429   0.13081   0.01883   0.00000  Uiso   1.00
C6     C     0.19072   0.15567   0.04044   0.00000  Uiso   1.00
C7     C     0.24606   0.11123   0.03956   0.00000  Uiso   1.00
C8     C     0.23346   0.11601   0.08077   0.00000  Uiso   1.00
C9     C     0.17652   0.15573   0.08167   0.00000  Uiso   1.00
C10    C     0.32757   0.17558   0.23648   0.00000  Uiso   1.00
C11    C     0.00748   0.15807   0.26233   0.00000  Uiso   1.00
C12    C     0.11218   0.22876   0.41980   0.00000  Uiso   1.00
C13    C     0.18122   0.32224   0.23788   0.00000  Uiso   1.00
C14    C     0.15186   0.01208   0.26198   0.00000  Uiso   1.00
C15    C     0.15594   0.05617   0.25893   0.00000  Uiso   1.00
C16    C     0.17696   0.27771   0.24128   0.00000  Uiso   1.00
C17    C     0.18833   0.14546   0.14405   0.00000  Uiso   1.00
C18    C     0.14551   0.18778   0.35616   0.00000  Uiso   1.00
C19    C     0.13833   0.19801   0.39890   0.00000  Uiso   1.00
C20    C     0.19857   0.13747   0.10147   0.00000  Uiso   1.00
C21    C     0.10724   0.23917   0.45992   0.00000  Uiso   1.00
C22    C     0.28304   0.08587   0.01925   0.00000  Uiso   1.00
C23    C     0.15921   0.17760   0.41865   0.00000  Uiso   1.00
C24    C     0.02650   0.19714   0.20289   0.00000  Uiso   1.00
C25    C     0.15644   0.18882   0.45875   0.00000  Uiso   1.00
C26    C     0.12920   0.21947   0.47956   0.00000  Uiso   1.00
C27    C     0.17970   0.17019   0.47871   0.00000  Uiso   1.00
C28    C     0.17145   0.17869   0.02021   0.00000  Uiso   1.00
C29    C     0.14591   0.21132   0.03955   0.00000  Uiso   1.00
C30    C     0.12506   0.23083   0.01944   0.00000  Uiso   1.00
F31    F     0.31278   0.13960   0.29349   0.00000  Uiso   1.00
F32    F     0.21521   0.00645   0.21010   0.00000  Uiso   1.00
F33    F     0.26652   0.10387   0.45456   0.00000  Uiso   1.00
F34    F     0.08141   0.26894   0.47941   0.00000  Uiso   1.00
F35    F     0.14421   0.22819   0.07680   0.00000  Uiso   1.00
H36    H     0.10595   0.25558   0.03534   0.00000  Uiso   1.00
H37    H     0.30998   0.10553   0.00048   0.00000  Uiso   1.00
H38    H     0.01061   0.20980   0.18421   0.00000  Uiso   1.00
H39    H     0.04625   0.22359   0.21483   0.00000  Uiso   1.00
H40    H     0.04808   0.17461   0.18371   0.00000  Uiso   1.00
H41    H     0.12437   0.33205   0.28419   0.00000  Uiso   1.00
H42    H     0.14796   0.16933   0.09931   0.00000  Uiso   1.00
H43    H     0.25062   0.10269   0.09704   0.00000  Uiso   1.00
H44    H     0.09561   0.24486   0.40510   0.00000  Uiso   1.00
H45    H     0.17692   0.15246   0.40211   0.00000  Uiso   1.00
H46    H     0.22305   0.14021   0.42647   0.00000  Uiso   1.00
H47    H     0.29599   0.07398   0.04063   0.00000  Uiso   1.00
H48    H     0.27196   0.05822   0.00128   0.00000  Uiso   1.00
O49    O     0.16667   0.16667   0.25000   0.00000  Uiso   1.00
O50    O     0.15693   0.12393   0.16625   0.00000  Uiso   1.00
O51    O     0.12687   0.20646   0.33749   0.00000  Uiso   1.00
O52    O     0.21088   0.17493   0.15877   0.00000  Uiso   1.00
O53    O     0.17198   0.16135   0.33749   0.00000  Uiso   1.00
O54    O     0.17849   0.08101   0.27820   0.00000  Uiso   1.00
O55    O     0.14581   0.26136   0.26767   0.00000  Uiso   1.00
O56    O     0.07452   0.13251   0.23607   0.00000  Uiso   1.00
O57    O     0.26785   0.19179   0.21805   0.00000  Uiso   1.00
O58    O     0.06990   0.18960   0.27820   0.00000  Uiso   1.00
O59    O     0.25440   0.15277   0.26767   0.00000  Uiso   1.00
O60    O     0.13800   0.06903   0.23607   0.00000  Uiso   1.00
O61    O     0.20437   0.25527   0.21806   0.00000  Uiso   1.00
Zn62   Zn    0.19244   0.14090   0.28277   0.00000  Uiso   1.00
Zn63   Zn    0.13459   0.12378   0.22257   0.00000  Uiso   1.00
Zn64   Zn    0.21166   0.19664   0.21188   0.00000  Uiso   1.00
Zn65   Zn    0.12798   0.20535   0.28277   0.00000  Uiso   1.00
C66    C     0.38592   0.15977   0.25908   0.00000  Uiso   1.00
C67    C     0.54568   0.14487   0.45815   0.00000  Uiso   1.00
C68    C     0.56820   0.12650   0.47743   0.00000  Uiso   1.00
C69    C     0.61455   0.17351   0.24099   0.00000  Uiso   1.00
C70    C     0.55763   0.13081   0.01883   0.00000  Uiso   1.00
C71    C     0.52405   0.15567   0.04044   0.00000  Uiso   1.00
C72    C     0.57940   0.11123   0.03956   0.00000  Uiso   1.00
C73    C     0.56680   0.11601   0.08077   0.00000  Uiso   1.00
C74    C     0.50985   0.15573   0.08167   0.00000  Uiso   1.00
C75    C     0.66090   0.17558   0.23648   0.00000  Uiso   1.00
C76    C     0.34081   0.15807   0.26233   0.00000  Uiso   1.00
C77    C     0.44551   0.22876   0.41980   0.00000  Uiso   1.00
C78    C     0.51455   0.32224   0.23788   0.00000  Uiso   1.00
C79    C     0.48519   0.01208   0.26198   0.00000  Uiso   1.00
C80    C     0.48927   0.05617   0.25893   0.00000  Uiso   1.00
C81    C     0.51029   0.27771   0.24128   0.00000  Uiso   1.00
C82    C     0.52167   0.14546   0.14405   0.00000  Uiso   1.00
C83    C     0.47885   0.18778   0.35616   0.00000  Uiso   1.00
C84    C     0.47167   0.19801   0.39890   0.00000  Uiso   1.00
C85    C     0.53190   0.13747   0.10147   0.00000  Uiso   1.00
C86    C     0.44058   0.23917   0.45992   0.00000  Uiso   1.00
C87    C     0.61637   0.08587   0.01925   0.00000  Uiso   1.00
C88    C     0.49255   0.17760   0.41865   0.00000  Uiso   1.00
C89    C     0.35984   0.19714   0.20289   0.00000  Uiso   1.00
C90    C     0.48978   0.18882   0.45875   0.00000  Uiso   1.00
C91    C     0.46253   0.21947   0.47956   0.00000  Uiso   1.00
C92    C     0.51303   0.17019   0.47871   0.00000  Uiso   1.00
C93    C     0.50478   0.17869   0.02021   0.00000  Uiso   1.00
C94    C     0.47924   0.21132   0.03955   0.00000  Uiso   1.00
C95    C     0.45839   0.23083   0.01944   0.00000  Uiso   1.00
F96    F     0.64612   0.13960   0.29349   0.00000  Uiso   1.00
F97    F     0.54855   0.00645   0.21010   0.00000  Uiso   1.00
F98    F     0.59985   0.10387   0.45456   0.00000  Uiso   1.00
F99    F     0.41475   0.26894   0.47941   0.00000  Uiso   1.00
F100   F     0.47755   0.22819   0.07680   0.00000  Uiso   1.00
H101   H     0.43928   0.25558   0.03534   0.00000  Uiso   1.00
H102   H     0.64331   0.10553   0.00048   0.00000  Uiso   1.00
H103   H     0.34395   0.20980   0.18421   0.00000  Uiso   1.00
H104   H     0.37958   0.22359   0.21483   0.00000  Uiso   1.00
H105   H     0.38141   0.17461   0.18371   0.00000  Uiso   1.00
H106   H     0.45770   0.33205   0.28419   0.00000  Uiso   1.00
H107   H     0.48129   0.16933   0.09931   0.00000  Uiso   1.00
H108   H     0.58395   0.10269   0.09704   0.00000  Uiso   1.00
H109   H     0.42895   0.24486   0.40510   0.00000  Uiso   1.00
H110   H     0.51026   0.15246   0.40211   0.00000  Uiso   1.00
H111   H     0.55638   0.14021   0.42647   0.00000  Uiso   1.00
H112   H     0.62932   0.07398   0.04063   0.00000  Uiso   1.00
H113   H     0.60530   0.05822   0.00128   0.00000  Uiso   1.00
O114   O     0.50000   0.16667   0.25000   0.00000  Uiso   1.00
O115   O     0.49027   0.12393   0.16625   0.00000  Uiso   1.00
O116   O     0.46020   0.20646   0.33749   0.00000  Uiso   1.00
O117   O     0.54421   0.17493   0.15877   0.00000  Uiso   1.00
O118   O     0.50532   0.16135   0.33749   0.00000  Uiso   1.00
O119   O     0.51182   0.08101   0.27820   0.00000  Uiso   1.00
O120   O     0.47914   0.26136   0.26767   0.00000  Uiso   1.00
O121   O     0.40785   0.13251   0.23607   0.00000  Uiso   1.00
O122   O     0.60119   0.19179   0.21805   0.00000  Uiso   1.00
O123   O     0.40323   0.18960   0.27820   0.00000  Uiso   1.00
O124   O     0.58773   0.15277   0.26767   0.00000  Uiso   1.00
O125   O     0.47133   0.06903   0.23607   0.00000  Uiso   1.00
O126   O     0.53771   0.25527   0.21806   0.00000  Uiso   1.00
Zn127  Zn    0.52577   0.14090   0.28277   0.00000  Uiso   1.00
Zn128  Zn    0.46792   0.12378   0.22257   0.00000  Uiso   1.00
Zn129  Zn    0.54500   0.19664   0.21188   0.00000  Uiso   1.00
Zn130  Zn    0.46131   0.20535   0.28277   0.00000  Uiso   1.00
C131   C     0.71925   0.15977   0.25908   0.00000  Uiso   1.00
C132   C     0.87902   0.14487   0.45815   0.00000  Uiso   1.00
C133   C     0.90153   0.12650   0.47743   0.00000  Uiso   1.00
C134   C     0.94788   0.17351   0.24099   0.00000  Uiso   1.00
C135   C     0.89096   0.13081   0.01883   0.00000  Uiso   1.00
C136   C     0.85739   0.15567   0.04044   0.00000  Uiso   1.00
C137   C     0.91273   0.11123   0.03956   0.00000  Uiso   1.00
C138   C     0.90013   0.11601   0.08077   0.00000  Uiso   1.00
C139   C     0.84319   0.15573   0.08167   0.00000  Uiso   1.00
C140   C     0.99424   0.17558   0.23648   0.00000  Uiso   1.00
C141   C     0.67415   0.15807   0.26233   0.00000  Uiso   1.00
C142   C     0.77884   0.22876   0.41980   0.00000  Uiso   1.00
C143   C     0.84788   0.32224   0.23788   0.00000  Uiso   1.00
C144   C     0.81852   0.01208   0.26198   0.00000  Uiso   1.00
C145   C     0.82260   0.05617   0.25893   0.00000  Uiso   1.00
C146   C     0.84362   0.27771   0.24128   0.00000  Uiso   1.00
C147   C     0.85500   0.14546   0.14405   0.00000  Uiso   1.00
C148   C     0.81218   0.18778   0.35616   0.00000  Uiso   1.00
C149   C     0.80500   0.19801   0.39890   0.00000  Uiso   1.00
C150   C     0.86524   0.13747   0.10147   0.00000  Uiso   1.00
C151   C     0.77391   0.23917   0.45992   0.00000  Uiso   1.00
C152   C     0.94970   0.08587   0.01925   0.00000  Uiso   1.00
C153   C     0.82588   0.17760   0.41865   0.00000  Uiso   1.00
C154   C     0.69317   0.19714   0.20289   0.00000  Uiso   1.00
C155   C     0.82311   0.18882   0.45875   0.00000  Uiso   1.00
C156   C     0.79586   0.21947   0.47956   0.00000  Uiso   1.00
C157   C     0.84636   0.17019   0.47871   0.00000  Uiso   1.00
C158   C     0.83812   0.17869   0.02021   0.00000  Uiso   1.00
C159   C     0.81257   0.21132   0.03955   0.00000  Uiso   1.00
C160   C     0.79173   0.23083   0.01944   0.00000  Uiso   1.00
F161   F     0.97945   0.13960   0.29349   0.00000  Uiso   1.00
F162   F     0.88188   0.00645   0.21010   0.00000  Uiso   1.00
F163   F     0.93318   0.10387   0.45456   0.00000  Uiso   1.00
F164   F     0.74808   0.26894   0.47941   0.00000  Uiso   1.00
F165   F     0.81088   0.22819   0.07680   0.00000  Uiso   1.00
H166   H     0.77262   0.25558   0.03534   0.00000  Uiso   1.00
H167   H     0.97664   0.10553   0.00048   0.00000  Uiso   1.00
H168   H     0.67728   0.20980   0.18421   0.00000  Uiso   1.00
H169   H     0.71292   0.22359   0.21483   0.00000  Uiso   1.00
H170   H     0.71474   0.17461   0.18371   0.00000  Uiso   1.00
H171   H     0.79103   0.33205   0.28419   0.00000  Uiso   1.00
H172   H     0.81462   0.16933   0.09931   0.00000  Uiso   1.00
H173   H     0.91729   0.10269   0.09704   0.00000  Uiso   1.00
H174   H     0.76228   0.24486   0.40510   0.00000  Uiso   1.00
H175   H     0.84359   0.15246   0.40211   0.00000  Uiso   1.00
H176   H     0.88971   0.14021   0.42647   0.00000  Uiso   1.00
H177   H     0.96266   0.07398   0.04063   0.00000  Uiso   1.00
H178   H     0.93863   0.05822   0.00128   0.00000  Uiso   1.00
O179   O     0.83333   0.16667   0.25000   0.00000  Uiso   1.00
O180   O     0.82360   0.12393   0.16625   0.00000  Uiso   1.00
O181   O     0.79354   0.20646   0.33749   0.00000  Uiso   1.00
O182   O     0.87755   0.17493   0.15877   0.00000  Uiso   1.00
O183   O     0.83865   0.16135   0.33749   0.00000  Uiso   1.00
O184   O     0.84515   0.08101   0.27820   0.00000  Uiso   1.00
O185   O     0.81247   0.26136   0.26767   0.00000  Uiso   1.00
O186   O     0.74119   0.13251   0.23607   0.00000  Uiso   1.00
O187   O     0.93452   0.19179   0.21805   0.00000  Uiso   1.00
O188   O     0.73656   0.18960   0.27820   0.00000  Uiso   1.00
O189   O     0.92106   0.15277   0.26767   0.00000  Uiso   1.00
O190   O     0.80467   0.06903   0.23607   0.00000  Uiso   1.00
O191   O     0.87104   0.25527   0.21806   0.00000  Uiso   1.00
Zn192  Zn    0.85910   0.14090   0.28277   0.00000  Uiso   1.00
Zn193  Zn    0.80125   0.12378   0.22257   0.00000  Uiso   1.00
Zn194  Zn    0.87833   0.19664   0.21188   0.00000  Uiso   1.00
Zn195  Zn    0.79465   0.20535   0.28277   0.00000  Uiso   1.00
C196   C     0.05258   0.49310   0.25908   0.00000  Uiso   1.00
C197   C     0.21235   0.47820   0.45815   0.00000  Uiso   1.00
C198   C     0.23487   0.45983   0.47743   0.00000  Uiso   1.00
C199   C     0.28122   0.50684   0.24099   0.00000  Uiso   1.00
C200   C     0.22429   0.46414   0.01883   0.00000  Uiso   1.00
C201   C     0.19072   0.48900   0.04044   0.00000  Uiso   1.00
C202   C     0.24606   0.44457   0.03956   0.00000  Uiso   1.00
C203   C     0.23346   0.44935   0.08077   0.00000  Uiso   1.00
C204   C     0.17652   0.48906   0.08167   0.00000  Uiso   1.00
C205   C     0.32757   0.50891   0.23648   0.00000  Uiso   1.00
C206   C     0.00748   0.49140   0.26233   0.00000  Uiso   1.00
C207   C     0.11218   0.56209   0.41980   0.00000  Uiso   1.00
C208   C     0.18122   0.65557   0.23788   0.00000  Uiso   1.00
C209   C     0.15186   0.34541   0.26198   0.00000  Uiso   1.00
C210   C     0.15594   0.38950   0.25893   0.00000  Uiso   1.00
C211   C     0.17696   0.61104   0.24128   0.00000  Uiso   1.00
C212   C     0.18833   0.47879   0.14405   0.00000  Uiso   1.00
C213   C     0.14551   0.52111   0.35616   0.00000  Uiso   1.00
C214   C     0.13833   0.53134   0.39890   0.00000  Uiso   1.00
C215   C     0.19857   0.47081   0.10147   0.00000  Uiso   1.00
C216   C     0.10724   0.57251   0.45992   0.00000  Uiso   1.00
C217   C     0.28304   0.41920   0.01925   0.00000  Uiso   1.00
C218   C     0.15921   0.51093   0.41865   0.00000  Uiso   1.00
C219   C     0.02650   0.53047   0.20289   0.00000  Uiso   1.00
C220   C     0.15644   0.52215   0.45875   0.00000  Uiso   1.00
C221   C     0.12920   0.55280   0.47956   0.00000  Uiso   1.00
C222   C     0.17970   0.50352   0.47871   0.00000  Uiso   1.00
C223   C     0.17145   0.51202   0.02021   0.00000  Uiso   1.00
C224   C     0.14591   0.54465   0.03955   0.00000  Uiso   1.00
C225   C     0.12506   0.56416   0.01944   0.00000  Uiso   1.00
F226   F     0.31278   0.47293   0.29349   0.00000  Uiso   1.00
F227   F     0.21521   0.33978   0.21010   0.00000  Uiso   1.00
F228   F     0.26652   0.43720   0.45456   0.00000  Uiso   1.00
F229   F     0.08141   0.60228   0.47941   0.00000  Uiso   1.00
F230   F     0.14421   0.56152   0.07680   0.00000  Uiso   1.00
H231   H     0.10595   0.58891   0.03534   0.00000  Uiso   1.00
H232   H     0.30998   0.43887   0.00048   0.00000  Uiso   1.00
H233   H     0.01061   0.54314   0.18421   0.00000  Uiso   1.00
H234   H     0.04625   0.55692   0.21483   0.00000  Uiso   1.00
H235   H     0.04808   0.50794   0.18371   0.00000  Uiso   1.00
H236   H     0.12437   0.66538   0.28419   0.00000  Uiso   1.00
H237   H     0.14796   0.50267   0.09931   0.00000  Uiso   1.00
H238   H     0.25062   0.43602   0.09704   0.00000  Uiso   1.00
H239   H     0.09561   0.57819   0.40510   0.00000  Uiso   1.00
H240   H     0.17692   0.48579   0.40211   0.00000  Uiso   1.00
H241   H     0.22305   0.47355   0.42647   0.00000  Uiso   1.00
H242   H     0.29599   0.40732   0.04063   0.00000  Uiso   1.00
H243   H     0.27196   0.39155   0.00128   0.00000  Uiso   1.00
O244   O     0.16667   0.50000   0.25000   0.00000  Uiso   1.00
O245   O     0.15693   0.45726   0.16625   0.00000  Uiso   1.00
O246   O     0.12687   0.53979   0.33749   0.00000  Uiso   1.00
O247   O     0.21088   0.50826   0.15877   0.00000  Uiso   1.00
O248   O     0.17198   0.49468   0.33749   0.00000  Uiso   1.00
O249   O     0.17849   0.41434   0.27820   0.00000  Uiso   1.00
O250   O     0.14581   0.59469   0.26767   0.00000  Uiso   1.00
O251   O     0.07452   0.46584   0.23607   0.00000  Uiso   1.00
O252   O     0.26785   0.52512   0.21805   0.00000  Uiso   1.00
O253   O     0.06990   0.52293   0.27820   0.00000  Uiso   1.00
O254   O     0.25440   0.48610   0.26767   0.00000  Uiso   1.00
O255   O     0.13800   0.40236   0.23607   0.00000  Uiso   1.00
O256   O     0.20437   0.58860   0.21806   0.00000  Uiso   1.00
Zn257  Zn    0.19244   0.47423   0.28277   0.00000  Uiso   1.00
Zn258  Zn    0.13459   0.45711   0.22257   0.00000  Uiso   1.00
Zn259  Zn    0.21166   0.52997   0.21188   0.00000  Uiso   1.00
Zn260  Zn    0.12798   0.53868   0.28277   0.00000  Uiso   1.00
C261   C     0.38592   0.49310   0.25908   0.00000  Uiso   1.00
C262   C     0.54568   0.47820   0.45815   0.00000  Uiso   1.00
C263   C     0.56820   0.45983   0.47743   0.00000  Uiso   1.00
C264   C     0.61455   0.50684   0.24099   0.00000  Uiso   1.00
C265   C     0.55763   0.46414   0.01883   0.00000  Uiso   1.00
C266   C     0.52405   0.48900   0.04044   0.00000  Uiso   1.00
C267   C     0.57940   0.44457   0.03956   0.00000  Uiso   1.00
C268   C     0.56680   0.44935   0.08077   0.00000  Uiso   1.00
C269   C     0.50985   0.48906   0.08167   0.00000  Uiso   1.00
C270   C     0.66090   0.50891   0.23648   0.00000  Uiso   1.00
C271   C     0.34081   0.49140   0.26233   0.00000  Uiso   1.00
C272   C     0.44551   0.56209   0.41980   0.00000  Uiso   1.00
C273   C     0.51455   0.65557   0.23788   0.00000  Uiso   1.00
C274   C     0.48519   0.34541   0.26198   0.00000  Uiso   1.00
C275   C     0.48927   0.38950   0.25893   0.00000  Uiso   1.00
C276   C     0.51029   0.61104   0.24128   0.00000  Uiso   1.00
C277   C     0.52167   0.47879   0.14405   0.00000  Uiso   1.00
C278   C     0.47885   0.52111   0.35616   0.00000  Uiso   1.00
C279   C     0.47167   0.53134   0.39890   0.00000  Uiso   1.00
C280   C     0.53190   0.47081   0.10147   0.00000  Uiso   1.00
C281   C     0.44058   0.57251   0.45992   0.00000  Uiso   1.00
C282   C     0.61637   0.41920   0.01925   0.00000  Uiso   1.00
C283   C     0.49255   0.51093   0.41865   0.00000  Uiso   1.00
C284   C     0.35984   0.53047   0.20289   0.00000  Uiso   1.00
C285   C     0.48978   0.52215   0.45875   0.00000  Uiso   1.00
C286   C     0.46253   0.55280   0.47956   0.00000  Uiso   1.00
C287   C     0.51303   0.50352   0.47871   0.00000  Uiso   1.00
C288   C     0.50478   0.51202   0.02021   0.00000  Uiso   1.00
C289   C     0.47924   0.54465   0.03955   0.00000  Uiso   1.00
C290   C     0.45839   0.56416   0.01944   0.00000  Uiso   1.00
F291   F     0.64612   0.47293   0.29349   0.00000  Uiso   1.00
F292   F     0.54855   0.33978   0.21010   0.00000  Uiso   1.00
F293   F     0.59985   0.43720   0.45456   0.00000  Uiso   1.00
F294   F     0.41475   0.60228   0.47941   0.00000  Uiso   1.00
F295   F     0.47755   0.56152   0.07680   0.00000  Uiso   1.00
H296   H     0.43928   0.58891   0.03534   0.00000  Uiso   1.00
H297   H     0.64331   0.43887   0.00048   0.00000  Uiso   1.00
H298   H     0.34395   0.54314   0.18421   0.00000  Uiso   1.00
H299   H     0.37958   0.55692   0.21483   0.00000  Uiso   1.00
H300   H     0.38141   0.50794   0.18371   0.00000  Uiso   1.00
H301   H     0.45770   0.66538   0.28419   0.00000  Uiso   1.00
H302   H     0.48129   0.50267   0.09931   0.00000  Uiso   1.00
H303   H     0.58395   0.43602   0.09704   0.00000  Uiso   1.00
H304   H     0.42895   0.57819   0.40510   0.00000  Uiso   1.00
H305   H     0.51026   0.48579   0.40211   0.00000  Uiso   1.00
H306   H     0.55638   0.47355   0.42647   0.00000  Uiso   1.00
H307   H     0.62932   0.40732   0.04063   0.00000  Uiso   1.00
H308   H     0.60530   0.39155   0.00128   0.00000  Uiso   1.00
O309   O     0.50000   0.50000   0.25000   0.00000  Uiso   1.00
O310   O     0.49027   0.45726   0.16625   0.00000  Uiso   1.00
O311   O     0.46020   0.53979   0.33749   0.00000  Uiso   1.00
O312   O     0.54421   0.50826   0.15877   0.00000  Uiso   1.00
O313   O     0.50532   0.49468   0.33749   0.00000  Uiso   1.00
O314   O     0.51182   0.41434   0.27820   0.00000  Uiso   1.00
O315   O     0.47914   0.59469   0.26767   0.00000  Uiso   1.00
O316   O     0.40785   0.46584   0.23607   0.00000  Uiso   1.00
O317   O     0.60119   0.52512   0.21805   0.00000  Uiso   1.00
O318   O     0.40323   0.52293   0.27820   0.00000  Uiso   1.00
O319   O     0.58773   0.48610   0.26767   0.00000  Uiso   1.00
O320   O     0.47133   0.40236   0.23607   0.00000  Uiso   1.00
O321   O     0.53771   0.58860   0.21806   0.00000  Uiso   1.00
Zn322  Zn    0.52577   0.47423   0.28277   0.00000  Uiso   1.00
Zn323  Zn    0.46792   0.45711   0.22257   0.00000  Uiso   1.00
Zn324  Zn    0.54500   0.52997   0.21188   0.00000  Uiso   1.00
Zn325  Zn    0.46131   0.53868   0.28277   0.00000  Uiso   1.00
C326   C     0.71925   0.49310   0.25908   0.00000  Uiso   1.00
C327   C     0.87902   0.47820   0.45815   0.00000  Uiso   1.00
C328   C     0.90153   0.45983   0.47743   0.00000  Uiso   1.00
C329   C     0.94788   0.50684   0.24099   0.00000  Uiso   1.00
C330   C     0.89096   0.46414   0.01883   0.00000  Uiso   1.00
C331   C     0.85739   0.48900   0.04044   0.00000  Uiso   1.00
C332   C     0.91273   0.44457   0.03956   0.00000  Uiso   1.00
C333   C     0.90013   0.44935   0.08077   0.00000  Uiso   1.00
C334   C     0.84319   0.48906   0.08167   0.00000  Uiso   1.00
C335   C     0.99424   0.50891   0.23648   0.00000  Uiso   1.00
C336   C     0.67415   0.49140   0.26233   0.00000  Uiso   1.00
C337   C     0.77884   0.56209   0.41980   0.00000  Uiso   1.00
C338   C     0.84788   0.65557   0.23788   0.00000  Uiso   1.00
C339   C     0.81852   0.34541   0.26198   0.00000  Uiso   1.00
C340   C     0.82260   0.38950   0.25893   0.00000  Uiso   1.00
C341   C     0.84362   0.61104   0.24128   0.00000  Uiso   1.00
C342   C     0.85500   0.47879   0.14405   0.00000  Uiso   1.00
C343   C     0.81218   0.52111   0.35616   0.00000  Uiso   1.00
C344   C     0.80500   0.53134   0.39890   0.00000  Uiso   1.00
C345   C     0.86524   0.47081   0.10147   0.00000  Uiso   1.00
C346   C     0.77391   0.57251   0.45992   0.00000  Uiso   1.00
C347   C     0.94970   0.41920   0.01925   0.00000  Uiso   1.00
C348   C     0.82588   0.51093   0.41865   0.00000  Uiso   1.00
C349   C     0.69317   0.53047   0.20289   0.00000  Uiso   1.00
C350   C     0.82311   0.52215   0.45875   0.00000  Uiso   1.00
C351   C     0.79586   0.55280   0.47956   0.00000  Uiso   1.00
C352   C     0.84636   0.50352   0.47871   0.00000  Uiso   1.00
C353   C     0.83812   0.51202   0.02021   0.00000  Uiso   1.00
C354   C     0.81257   0.54465   0.03955   0.00000  Uiso   1.00
C355   C     0.79173   0.56416   0.01944   0.00000  Uiso   1.00
F356   F     0.97945   0.47293   0.29349   0.00000  Uiso   1.00
F357   F     0.88188   0.33978   0.21010   0.00000  Uiso   1.00
F358   F     0.93318   0.43720   0.45456   0.00000  Uiso   1.00
F359   F     0.74808   0.60228   0.47941   0.00000  Uiso   1.00
F360   F     0.81088   0.56152   0.07680   0.00000  Uiso   1.00
H361   H     0.77262   0.58891   0.03534   0.00000  Uiso   1.00
H362   H     0.97664   0.43887   0.00048   0.00000  Uiso   1.00
H363   H     0.67728   0.54314   0.18421   0.00000  Uiso   1.00
H364   H     0.71292   0.55692   0.21483   0.00000  Uiso   1.00
H365   H     0.71474   0.50794   0.18371   0.00000  Uiso   1.00
H366   H     0.79103   0.66538   0.28419   0.00000  Uiso   1.00
H367   H     0.81462   0.50267   0.09931   0.00000  Uiso   1.00
H368   H     0.91729   0.43602   0.09704   0.00000  Uiso   1.00
H369   H     0.76228   0.57819   0.40510   0.00000  Uiso   1.00
H370   H     0.84359   0.48579   0.40211   0.00000  Uiso   1.00
H371   H     0.88971   0.47355   0.42647   0.00000  Uiso   1.00
H372   H     0.96266   0.40732   0.04063   0.00000  Uiso   1.00
H373   H     0.93863   0.39155   0.00128   0.00000  Uiso   1.00
O374   O     0.83333   0.50000   0.25000   0.00000  Uiso   1.00
O375   O     0.82360   0.45726   0.16625   0.00000  Uiso   1.00
O376   O     0.79354   0.53979   0.33749   0.00000  Uiso   1.00
O377   O     0.87755   0.50826   0.15877   0.00000  Uiso   1.00
O378   O     0.83865   0.49468   0.33749   0.00000  Uiso   1.00
O379   O     0.84515   0.41434   0.27820   0.00000  Uiso   1.00
O380   O     0.81247   0.59469   0.26767   0.00000  Uiso   1.00
O381   O     0.74119   0.46584   0.23607   0.00000  Uiso   1.00
O382   O     0.93452   0.52512   0.21805   0.00000  Uiso   1.00
O383   O     0.73656   0.52293   0.27820   0.00000  Uiso   1.00
O384   O     0.92106   0.48610   0.26767   0.00000  Uiso   1.00
O385   O     0.80467   0.40236   0.23607   0.00000  Uiso   1.00
O386   O     0.87104   0.58860   0.21806   0.00000  Uiso   1.00
Zn387  Zn    0.85910   0.47423   0.28277   0.00000  Uiso   1.00
Zn388  Zn    0.80125   0.45711   0.22257   0.00000  Uiso   1.00
Zn389  Zn    0.87833   0.52997   0.21188   0.00000  Uiso   1.00
Zn390  Zn    0.79465   0.53868   0.28277   0.00000  Uiso   1.00
C391   C     0.05258   0.82644   0.25908   0.00000  Uiso   1.00
C392   C     0.21235   0.81154   0.45815   0.00000  Uiso   1.00
C393   C     0.23487   0.79316   0.47743   0.00000  Uiso   1.00
C394   C     0.28122   0.84018   0.24099   0.00000  Uiso   1.00
C395   C     0.22429   0.79747   0.01883   0.00000  Uiso   1.00
C396   C     0.19072   0.82233   0.04044   0.00000  Uiso   1.00
C397   C     0.24606   0.77790   0.03956   0.00000  Uiso   1.00
C398   C     0.23346   0.78268   0.08077   0.00000  Uiso   1.00
C399   C     0.17652   0.82239   0.08167   0.00000  Uiso   1.00
C400   C     0.32757   0.84225   0.23648   0.00000  Uiso   1.00
C401   C     0.00748   0.82473   0.26233   0.00000  Uiso   1.00
C402   C     0.11218   0.89542   0.41980   0.00000  Uiso   1.00
C403   C     0.18122   0.98890   0.23788   0.00000  Uiso   1.00
C404   C     0.15186   0.67875   0.26198   0.00000  Uiso   1.00
C405   C     0.15594   0.72284   0.25893   0.00000  Uiso   1.00
C406   C     0.17696   0.94437   0.24128   0.00000  Uiso   1.00
C407   C     0.18833   0.81213   0.14405   0.00000  Uiso   1.00
C408   C     0.14551   0.85445   0.35616   0.00000  Uiso   1.00
C409   C     0.13833   0.86468   0.39890   0.00000  Uiso   1.00
C410   C     0.19857   0.80414   0.10147   0.00000  Uiso   1.00
C411   C     0.10724   0.90584   0.45992   0.00000  Uiso   1.00
C412   C     0.28304   0.75253   0.01925   0.00000  Uiso   1.00
C413   C     0.15921   0.84426   0.41865   0.00000  Uiso   1.00
C414   C     0.02650   0.86381   0.20289   0.00000  Uiso   1.00
C415   C     0.15644   0.85549   0.45875   0.00000  Uiso   1.00
C416   C     0.12920   0.88613   0.47956   0.00000  Uiso   1.00
C417   C     0.17970   0.83685   0.47871   0.00000  Uiso   1.00
C418   C     0.17145   0.84535   0.02021   0.00000  Uiso   1.00
C419   C     0.14591   0.87798   0.03955   0.00000  Uiso   1.00
C420   C     0.12506   0.89750   0.01944   0.00000  Uiso   1.00
F421   F     0.31278   0.80627   0.29349   0.00000  Uiso   1.00
F422   F     0.21521   0.67311   0.21010   0.00000  Uiso   1.00
F423   F     0.26652   0.77054   0.45456   0.00000  Uiso   1.00
F424   F     0.08141   0.93561   0.47941   0.00000  Uiso   1.00
F425   F     0.14421   0.89486   0.07680   0.00000  Uiso   1.00
H426   H     0.10595   0.92224   0.03534   0.00000  Uiso   1.00
H427   H     0.30998   0.77220   0.00048   0.00000  Uiso   1.00
H428   H     0.01061   0.87647   0.18421   0.00000  Uiso   1.00
H429   H     0.04625   0.89026   0.21483   0.00000  Uiso   1.00
H430   H     0.04808   0.84127   0.18371   0.00000  Uiso   1.00
H431   H     0.12437   0.99871   0.28419   0.00000  Uiso   1.00
H432   H     0.14796   0.83600   0.09931   0.00000  Uiso   1.00
H433   H     0.25062   0.76935   0.09704   0.00000  Uiso   1.00
H434   H     0.09561   0.91153   0.40510   0.00000  Uiso   1.00
H435   H     0.17692   0.81913   0.40211   0.00000  Uiso   1.00
H436   H     0.22305   0.80688   0.42647   0.00000  Uiso   1.00
H437   H     0.29599   0.74065   0.04063   0.00000  Uiso   1.00
H438   H     0.27196   0.72489   0.00128   0.00000  Uiso   1.00
O439   O     0.16667   0.83333   0.25000   0.00000  Uiso   1.00
O440   O     0.15693   0.79060   0.16625   0.00000  Uiso   1.00
O441   O     0.12687   0.87313   0.33749   0.00000  Uiso   1.00
O442   O     0.21088   0.84159   0.15877   0.00000  Uiso   1.00
O443   O     0.17198   0.82802   0.33749   0.00000  Uiso   1.00
O444   O     0.17849   0.74768   0.27820   0.00000  Uiso   1.00
O445   O     0.14581   0.92803   0.26767   0.00000  Uiso   1.00
O446   O     0.07452   0.79917   0.23607   0.00000  Uiso   1.00
O447   O     0.26785   0.85845   0.21805   0.00000  Uiso   1.00
O448   O     0.06990   0.85627   0.27820   0.00000  Uiso   1.00
O449   O     0.25440   0.81944   0.26767   0.00000  Uiso   1.00
O450   O     0.13800   0.73570   0.23607   0.00000  Uiso   1.00
O451   O     0.20437   0.92193   0.21806   0.00000  Uiso   1.00
Zn452  Zn    0.19244   0.80756   0.28277   0.00000  Uiso   1.00
Zn453  Zn    0.13459   0.79044   0.22257   0.00000  Uiso   1.00
Zn454  Zn    0.21166   0.86331   0.21188   0.00000  Uiso   1.00
Zn455  Zn    0.12798   0.87202   0.28277   0.00000  Uiso   1.00
C456   C     0.38592   0.82644   0.25908   0.00000  Uiso   1.00
C457   C     0.54568   0.81154   0.45815   0.00000  Uiso   1.00
C458   C     0.56820   0.79316   0.47743   0.00000  Uiso   1.00
C459   C     0.61455   0.84018   0.24099   0.00000  Uiso   1.00
C460   C     0.55763   0.79747   0.01883   0.00000  Uiso   1.00
C461   C     0.52405   0.82233   0.04044   0.00000  Uiso   1.00
C462   C     0.57940   0.77790   0.03956   0.00000  Uiso   1.00
C463   C     0.56680   0.78268   0.08077   0.00000  Uiso   1.00
C464   C     0.50985   0.82239   0.08167   0.00000  Uiso   1.00
C465   C     0.66090   0.84225   0.23648   0.00000  Uiso   1.00
C466   C     0.34081   0.82473   0.26233   0.00000  Uiso   1.00
C467   C     0.44551   0.89542   0.41980   0.00000  Uiso   1.00
C468   C     0.51455   0.98890   0.23788   0.00000  Uiso   1.00
C469   C     0.48519   0.67875   0.26198   0.00000  Uiso   1.00
C470   C     0.48927   0.72284   0.25893   0.00000  Uiso   1.00
C471   C     0.51029   0.94437   0.24128   0.00000  Uiso   1.00
C472   C     0.52167   0.81213   0.14405   0.00000  Uiso   1.00
C473   C     0.47885   0.85445   0.35616   0.00000  Uiso   1.00
C474   C     0.47167   0.86468   0.39890   0.00000  Uiso   1.00
C475   C     0.53190   0.80414   0.10147   0.00000  Uiso   1.00
C476   C     0.44058   0.90584   0.45992   0.00000  Uiso   1.00
C477   C     0.61637   0.75253   0.01925   0.00000  Uiso   1.00
C478   C     0.49255   0.84426   0.41865   0.00000  Uiso   1.00
C479   C     0.35984   0.86381   0.20289   0.00000  Uiso   1.00
C480   C     0.48978   0.85549   0.45875   0.00000  Uiso   1.00
C481   C     0.46253   0.88613   0.47956   0.00000  Uiso   1.00
C482   C     0.51303   0.83685   0.47871   0.00000  Uiso   1.00
C483   C     0.50478   0.84535   0.02021   0.00000  Uiso   1.00
C484   C     0.47924   0.87798   0.03955   0.00000  Uiso   1.00
C485   C     0.45839   0.89750   0.01944   0.00000  Uiso   1.00
F486   F     0.64612   0.80627   0.29349   0.00000  Uiso   1.00
F487   F     0.54855   0.67311   0.21010   0.00000  Uiso   1.00
F488   F     0.59985   0.77054   0.45456   0.00000  Uiso   1.00
F489   F     0.41475   0.93561   0.47941   0.00000  Uiso   1.00
F490   F     0.47755   0.89486   0.07680   0.00000  Uiso   1.00
H491   H     0.43928   0.92224   0.03534   0.00000  Uiso   1.00
H492   H     0.64331   0.77220   0.00048   0.00000  Uiso   1.00
H493   H     0.34395   0.87647   0.18421   0.00000  Uiso   1.00
H494   H     0.37958   0.89026   0.21483   0.00000  Uiso   1.00
H495   H     0.38141   0.84127   0.18371   0.00000  Uiso   1.00
H496   H     0.45770   0.99871   0.28419   0.00000  Uiso   1.00
H497   H     0.48129   0.83600   0.09931   0.00000  Uiso   1.00
H498   H     0.58395   0.76935   0.09704   0.00000  Uiso   1.00
H499   H     0.42895   0.91153   0.40510   0.00000  Uiso   1.00
H500   H     0.51026   0.81913   0.40211   0.00000  Uiso   1.00
H501   H     0.55638   0.80688   0.42647   0.00000  Uiso   1.00
H502   H     0.62932   0.74065   0.04063   0.00000  Uiso   1.00
H503   H     0.60530   0.72489   0.00128   0.00000  Uiso   1.00
O504   O     0.50000   0.83333   0.25000   0.00000  Uiso   1.00
O505   O     0.49027   0.79060   0.16625   0.00000  Uiso   1.00
O506   O     0.46020   0.87313   0.33749   0.00000  Uiso   1.00
O507   O     0.54421   0.84159   0.15877   0.00000  Uiso   1.00
O508   O     0.50532   0.82802   0.33749   0.00000  Uiso   1.00
O509   O     0.51182   0.74768   0.27820   0.00000  Uiso   1.00
O510   O     0.47914   0.92803   0.26767   0.00000  Uiso   1.00
O511   O     0.40785   0.79917   0.23607   0.00000  Uiso   1.00
O512   O     0.60119   0.85845   0.21805   0.00000  Uiso   1.00
O513   O     0.40323   0.85627   0.27820   0.00000  Uiso   1.00
O514   O     0.58773   0.81944   0.26767   0.00000  Uiso   1.00
O515   O     0.47133   0.73570   0.23607   0.00000  Uiso   1.00
O516   O     0.53771   0.92193   0.21806   0.00000  Uiso   1.00
Zn517  Zn    0.52577   0.80756   0.28277   0.00000  Uiso   1.00
Zn518  Zn    0.46792   0.79044   0.22257   0.00000  Uiso   1.00
Zn519  Zn    0.54500   0.86331   0.21188   0.00000  Uiso   1.00
Zn520  Zn    0.46131   0.87202   0.28277   0.00000  Uiso   1.00
C521   C     0.71925   0.82644   0.25908   0.00000  Uiso   1.00
C522   C     0.87902   0.81154   0.45815   0.00000  Uiso   1.00
C523   C     0.90153   0.79316   0.47743   0.00000  Uiso   1.00
C524   C     0.94788   0.84018   0.24099   0.00000  Uiso   1.00
C525   C     0.89096   0.79747   0.01883   0.00000  Uiso   1.00
C526   C     0.85739   0.82233   0.04044   0.00000  Uiso   1.00
C527   C     0.91273   0.77790   0.03956   0.00000  Uiso   1.00
C528   C     0.90013   0.78268   0.08077   0.00000  Uiso   1.00
C529   C     0.84319   0.82239   0.08167   0.00000  Uiso   1.00
C530   C     0.99424   0.84225   0.23648   0.00000  Uiso   1.00
C531   C     0.67415   0.82473   0.26233   0.00000  Uiso   1.00
C532   C     0.77884   0.89542   0.41980   0.00000  Uiso   1.00
C533   C     0.84788   0.98890   0.23788   0.00000  Uiso   1.00
C534   C     0.81852   0.67875   0.26198   0.00000  Uiso   1.00
C535   C     0.82260   0.72284   0.25893   0.00000  Uiso   1.00
C536   C     0.84362   0.94437   0.24128   0.00000  Uiso   1.00
C537   C     0.85500   0.81213   0.14405   0.00000  Uiso   1.00
C538   C     0.81218   0.85445   0.35616   0.00000  Uiso   1.00
C539   C     0.80500   0.86468   0.39890   0.00000  Uiso   1.00
C540   C     0.86524   0.80414   0.10147   0.00000  Uiso   1.00
C541   C     0.77391   0.90584   0.45992   0.00000  Uiso   1.00
C542   C     0.94970   0.75253   0.01925   0.00000  Uiso   1.00
C543   C     0.82588   0.84426   0.41865   0.00000  Uiso   1.00
C544   C     0.69317   0.86381   0.20289   0.00000  Uiso   1.00
C545   C     0.82311   0.85549   0.45875   0.00000  Uiso   1.00
C546   C     0.79586   0.88613   0.47956   0.00000  Uiso   1.00
C547   C     0.84636   0.83685   0.47871   0.00000  Uiso   1.00
C548   C     0.83812   0.84535   0.02021   0.00000  Uiso   1.00
C549   C     0.81257   0.87798   0.03955   0.00000  Uiso   1.00
C550   C     0.79173   0.89750   0.01944   0.00000  Uiso   1.00
F551   F     0.97945   0.80627   0.29349   0.00000  Uiso   1.00
F552   F     0.88188   0.67311   0.21010   0.00000  Uiso   1.00
F553   F     0.93318   0.77054   0.45456   0.00000  Uiso   1.00
F554   F     0.74808   0.93561   0.47941   0.00000  Uiso   1.00
F555   F     0.81088   0.89486   0.07680   0.00000  Uiso   1.00
H556   H     0.77262   0.92224   0.03534   0.00000  Uiso   1.00
H557   H     0.97664   0.77220   0.00048   0.00000  Uiso   1.00
H558   H     0.67728   0.87647   0.18421   0.00000  Uiso   1.00
H559   H     0.71292   0.89026   0.21483   0.00000  Uiso   1.00
H560   H     0.71474   0.84127   0.18371   0.00000  Uiso   1.00
H561   H     0.79103   0.99871   0.28419   0.00000  Uiso   1.00
H562   H     0.81462   0.83600   0.09931   0.00000  Uiso   1.00
H563   H     0.91729   0.76935   0.09704   0.00000  Uiso   1.00
H564   H     0.76228   0.91153   0.40510   0.00000  Uiso   1.00
H565   H     0.84359   0.81913   0.40211   0.00000  Uiso   1.00
H566   H     0.88971   0.80688   0.42647   0.00000  Uiso   1.00
H567   H     0.96266   0.74065   0.04063   0.00000  Uiso   1.00
H568   H     0.93863   0.72489   0.00128   0.00000  Uiso   1.00
O569   O     0.83333   0.83333   0.25000   0.00000  Uiso   1.00
O570   O     0.82360   0.79060   0.16625   0.00000  Uiso   1.00
O571   O     0.79354   0.87313   0.33749   0.00000  Uiso   1.00
O572   O     0.87755   0.84159   0.15877   0.00000  Uiso   1.00
O573   O     0.83865   0.82802   0.33749   0.00000  Uiso   1.00
O574   O     0.84515   0.74768   0.27820   0.00000  Uiso   1.00
O575   O     0.81247   0.92803   0.26767   0.00000  Uiso   1.00
O576   O     0.74119   0.79917   0.23607   0.00000  Uiso   1.00
O577   O     0.93452   0.85845   0.21805   0.00000  Uiso   1.00
O578   O     0.73656   0.85627   0.27820   0.00000  Uiso   1.00
O579   O     0.92106   0.81944   0.26767   0.00000  Uiso   1.00
O580   O     0.80467   0.73570   0.23607   0.00000  Uiso   1.00
O581   O     0.87104   0.92193   0.21806   0.00000  Uiso   1.00
Zn582  Zn    0.85910   0.80756   0.28277   0.00000  Uiso   1.00
Zn583  Zn    0.80125   0.79044   0.22257   0.00000  Uiso   1.00
Zn584  Zn    0.87833   0.86331   0.21188   0.00000  Uiso   1.00
Zn585  Zn    0.79465   0.87202   0.28277   0.00000  Uiso   1.00
C586   C     0.05258   0.15977   0.75908   0.00000  Uiso   1.00
C587   C     0.21235   0.14487   0.95815   0.00000  Uiso   1.00
C588   C     0.23487   0.12650   0.97743   0.00000  Uiso   1.00
C589   C     0.28122   0.17351   0.74099   0.00000  Uiso   1.00
C590   C     0.22429   0.13081   0.51883   0.00000  Uiso   1.00
C591   C     0.19072   0.15567   0.54044   0.00000  Uiso   1.00
C592   C     0.24606   0.11123   0.53956   0.00000  Uiso   1.00
C593   C     0.23346   0.11601   0.58077   0.00000  Uiso   1.00
C594   C     0.17652   0.15573   0.58167   0.00000  Uiso   1.00
C595   C     0.32757   0.17558   0.73648   0.00000  Uiso   1.00
C596   C     0.00748   0.15807   0.76233   0.00000  Uiso   1.00
C597   C     0.11218   0.22876   0.91980   0.00000  Uiso   1.00
C598   C     0.18122   0.32224   0.73788   0.00000  Uiso   1.00
C599   C     0.15186   0.01208   0.76198   0.00000  Uiso   1.00
C600   C     0.15594   0.05617   0.75893   0.00000  Uiso   1.00
C601   C     0.17696   0.27771   0.74128   0.00000  Uiso   1.00
C602   C     0.18833   0.14546   0.64405   0.00000  Uiso   1.00
C603   C     0.14551   0.18778   0.85616   0.00000  Uiso   1.00
C604   C     0.13833   0.19801   0.89890   0.00000  Uiso   1.00
C605   C     0.19857   0.13747   0.60147   0.00000  Uiso   1.00
C606   C     0.10724   0.23917   0.95992   0.00000  Uiso   1.00
C607   C     0.28304   0.08587   0.51925   0.00000  Uiso   1.00
C608   C     0.15921   0.17760   0.91865   0.00000  Uiso   1.00
C609   C     0.02650   0.19714   0.70289   0.00000  Uiso   1.00
C610   C     0.15644   0.18882   0.95875   0.00000  Uiso   1.00
C611   C     0.12920   0.21947   0.97956   0.00000  Uiso   1.00
C612   C     0.17970   0.17019   0.97871   0.00000  Uiso   1.00
C613   C     0.17145   0.17869   0.52021   0.00000  Uiso   1.00
C614   C     0.14591   0.21132   0.53955   0.00000  Uiso   1.00
C615   C     0.12506   0.23083   0.51944   0.00000  Uiso   1.00
F616   F     0.31278   0.13960   0.79349   0.00000  Uiso   1.00
F617   F     0.21521   0.00645   0.71010   0.00000  Uiso   1.00
F618   F     0.26652   0.10387   0.95456   0.00000  Uiso   1.00
F619   F     0.08141   0.26894   0.97941   0.00000  Uiso   1.00
F620   F     0.14421   0.22819   0.57680   0.00000  Uiso   1.00
H621   H     0.10595   0.25558   0.53534   0.00000  Uiso   1.00
H622   H     0.30998   0.10553   0.50048   0.00000  Uiso   1.00
H623   H     0.01061   0.20980   0.68421   0.00000  Uiso   1.00
H624   H     0.04625   0.22359   0.71483   0.00000  Uiso   1.00
H625   H     0.04808   0.17461   0.68371   0.00000  Uiso   1.00
H626   H     0.12437   0.33205   0.78419   0.00000  Uiso   1.00
H627   H     0.14796   0.16933   0.59931   0.00000  Uiso   1.00
H628   H     0.25062   0.10269   0.59704   0.00000  Uiso   1.00
H629   H     0.09561   0.24486   0.90510   0.00000  Uiso   1.00
H630   H     0.17692   0.15246   0.90211   0.00000  Uiso   1.00
H631   H     0.22305   0.14021   0.92647   0.00000  Uiso   1.00
H632   H     0.29599   0.07398   0.54063   0.00000  Uiso   1.00
H633   H     0.27196   0.05822   0.50128   0.00000  Uiso   1.00
O634   O     0.16667   0.16667   0.75000   0.00000  Uiso   1.00
O635   O     0.15693   0.12393   0.66625   0.00000  Uiso   1.00
O636   O     0.12687   0.20646   0.83749   0.00000  Uiso   1.00
O637   O     0.21088   0.17493   0.65877   0.00000  Uiso   1.00
O638   O     0.17198   0.16135   0.83749   0.00000  Uiso   1.00
O639   O     0.17849   0.08101   0.77820   0.00000  Uiso   1.00
O640   O     0.14581   0.26136   0.76767   0.00000  Uiso   1.00
O641   O     0.07452   0.13251   0.73607   0.00000  Uiso   1.00
O642   O     0.26785   0.19179   0.71805   0.00000  Uiso   1.00
O643   O     0.06990   0.18960   0.77820   0.00000  Uiso   1.00
O644   O     0.25440   0.15277   0.76767   0.00000  Uiso   1.00
O645   O     0.13800   0.06903   0.73607   0.00000  Uiso   1.00
O646   O     0.20437   0.25527   0.71806   0.00000  Uiso   1.00
Zn647  Zn    0.19244   0.14090   0.78277   0.00000  Uiso   1.00
Zn648  Zn    0.13459   0.12378   0.72257   0.00000  Uiso   1.00
Zn649  Zn    0.21166   0.19664   0.71188   0.00000  Uiso   1.00
Zn650  Zn    0.12798   0.20535   0.78277   0.00000  Uiso   1.00
C651   C     0.38592   0.15977   0.75908   0.00000  Uiso   1.00
C652   C     0.54568   0.14487   0.95815   0.00000  Uiso   1.00
C653   C     0.56820   0.12650   0.97743   0.00000  Uiso   1.00
C654   C     0.61455   0.17351   0.74099   0.00000  Uiso   1.00
C655   C     0.55763   0.13081   0.51883   0.00000  Uiso   1.00
C656   C     0.52405   0.15567   0.54044   0.00000  Uiso   1.00
C657   C     0.57940   0.11123   0.53956   0.00000  Uiso   1.00
C658   C     0.56680   0.11601   0.58077   0.00000  Uiso   1.00
C659   C     0.50985   0.15573   0.58167   0.00000  Uiso   1.00
C660   C     0.66090   0.17558   0.73648   0.00000  Uiso   1.00
C661   C     0.34081   0.15807   0.76233   0.00000  Uiso   1.00
C662   C     0.44551   0.22876   0.91980   0.00000  Uiso   1.00
C663   C     0.51455   0.32224   0.73788   0.00000  Uiso   1.00
C664   C     0.48519   0.01208   0.76198   0.00000  Uiso   1.00
C665   C     0.48927   0.05617   0.75893   0.00000  Uiso   1.00
C666   C     0.51029   0.27771   0.74128   0.00000  Uiso   1.00
C667   C     0.52167   0.14546   0.64405   0.00000  Uiso   1.00
C668   C     0.47885   0.18778   0.85616   0.00000  Uiso   1.00
C669   C     0.47167   0.19801   0.89890   0.00000  Uiso   1.00
C670   C     0.53190   0.13747   0.60147   0.00000  Uiso   1.00
C671   C     0.44058   0.23917   0.95992   0.00000  Uiso   1.00
C672   C     0.61637   0.08587   0.51925   0.00000  Uiso   1.00
C673   C     0.49255   0.17760   0.91865   0.00000  Uiso   1.00
C674   C     0.35984   0.19714   0.70289   0.00000  Uiso   1.00
C675   C     0.48978   0.18882   0.95875   0.00000  Uiso   1.00
C676   C     0.46253   0.21947   0.97956   0.00000  Uiso   1.00
C677   C     0.51303   0.17019   0.97871   0.00000  Uiso   1.00
C678   C     0.50478   0.17869   0.52021   0.00000  Uiso   1.00
C679   C     0.47924   0.21132   0.53955   0.00000  Uiso   1.00
C680   C     0.45839   0.23083   0.51944   0.00000  Uiso   1.00
F681   F     0.64612   0.13960   0.79349   0.00000  Uiso   1.00
F682   F     0.54855   0.00645   0.71010   0.00000  Uiso   1.00
F683   F     0.59985   0.10387   0.95456   0.00000  Uiso   1.00
F684   F     0.41475   0.26894   0.97941   0.00000  Uiso   1.00
F685   F     0.47755   0.22819   0.57680   0.00000  Uiso   1.00
H686   H     0.43928   0.25558   0.53534   0.00000  Uiso   1.00
H687   H     0.64331   0.10553   0.50048   0.00000  Uiso   1.00
H688   H     0.34395   0.20980   0.68421   0.00000  Uiso   1.00
H689   H     0.37958   0.22359   0.71483   0.00000  Uiso   1.00
H690   H     0.38141   0.17461   0.68371   0.00000  Uiso   1.00
H691   H     0.45770   0.33205   0.78419   0.00000  Uiso   1.00
H692   H     0.48129   0.16933   0.59931   0.00000  Uiso   1.00
H693   H     0.58395   0.10269   0.59704   0.00000  Uiso   1.00
H694   H     0.42895   0.24486   0.90510   0.00000  Uiso   1.00
H695   H     0.51026   0.15246   0.90211   0.00000  Uiso   1.00
H696   H     0.55638   0.14021   0.92647   0.00000  Uiso   1.00
H697   H     0.62932   0.07398   0.54063   0.00000  Uiso   1.00
H698   H     0.60530   0.05822   0.50128   0.00000  Uiso   1.00
O699   O     0.50000   0.16667   0.75000   0.00000  Uiso   1.00
O700   O     0.49027   0.12393   0.66625   0.00000  Uiso   1.00
O701   O     0.46020   0.20646   0.83749   0.00000  Uiso   1.00
O702   O     0.54421   0.17493   0.65877   0.00000  Uiso   1.00
O703   O     0.50532   0.16135   0.83749   0.00000  Uiso   1.00
O704   O     0.51182   0.08101   0.77820   0.00000  Uiso   1.00
O705   O     0.47914   0.26136   0.76767   0.00000  Uiso   1.00
O706   O     0.40785   0.13251   0.73607   0.00000  Uiso   1.00
O707   O     0.60119   0.19179   0.71805   0.00000  Uiso   1.00
O708   O     0.40323   0.18960   0.77820   0.00000  Uiso   1.00
O709   O     0.58773   0.15277   0.76767   0.00000  Uiso   1.00
O710   O     0.47133   0.06903   0.73607   0.00000  Uiso   1.00
O711   O     0.53771   0.25527   0.71806   0.00000  Uiso   1.00
Zn712  Zn    0.52577   0.14090   0.78277   0.00000  Uiso   1.00
Zn713  Zn    0.46792   0.12378   0.72257   0.00000  Uiso   1.00
Zn714  Zn    0.54500   0.19664   0.71188   0.00000  Uiso   1.00
Zn715  Zn    0.46131   0.20535   0.78277   0.00000  Uiso   1.00
C716   C     0.71925   0.15977   0.75908   0.00000  Uiso   1.00
C717   C     0.87902   0.14487   0.95815   0.00000  Uiso   1.00
C718   C     0.90153   0.12650   0.97743   0.00000  Uiso   1.00
C719   C     0.94788   0.17351   0.74099   0.00000  Uiso   1.00
C720   C     0.89096   0.13081   0.51883   0.00000  Uiso   1.00
C721   C     0.85739   0.15567   0.54044   0.00000  Uiso   1.00
C722   C     0.91273   0.11123   0.53956   0.00000  Uiso   1.00
C723   C     0.90013   0.11601   0.58077   0.00000  Uiso   1.00
C724   C     0.84319   0.15573   0.58167   0.00000  Uiso   1.00
C725   C     0.99424   0.17558   0.73648   0.00000  Uiso   1.00
C726   C     0.67415   0.15807   0.76233   0.00000  Uiso   1.00
C727   C     0.77884   0.22876   0.91980   0.00000  Uiso   1.00
C728   C     0.84788   0.32224   0.73788   0.00000  Uiso   1.00
C729   C     0.81852   0.01208   0.76198   0.00000  Uiso   1.00
C730   C     0.82260   0.05617   0.75893   0.00000  Uiso   1.00
C731   C     0.84362   0.27771   0.74128   0.00000  Uiso   1.00
C732   C     0.85500   0.14546   0.64405   0.00000  Uiso   1.00
C733   C     0.81218   0.18778   0.85616   0.00000  Uiso   1.00
C734   C     0.80500   0.19801   0.89890   0.00000  Uiso   1.00
C735   C     0.86524   0.13747   0.60147   0.00000  Uiso   1.00
C736   C     0.77391   0.23917   0.95992   0.00000  Uiso   1.00
C737   C     0.94970   0.08587   0.51925   0.00000  Uiso   1.00
C738   C     0.82588   0.17760   0.91865   0.00000  Uiso   1.00
C739   C     0.69317   0.19714   0.70289   0.00000  Uiso   1.00
C740   C     0.82311   0.18882   0.95875   0.00000  Uiso   1.00
C741   C     0.79586   0.21947   0.97956   0.00000  Uiso   1.00
C742   C     0.84636   0.17019   0.97871   0.00000  Uiso   1.00
C743   C     0.83812   0.17869   0.52021   0.00000  Uiso   1.00
C744   C     0.81257   0.21132   0.53955   0.00000  Uiso   1.00
C745   C     0.79173   0.23083   0.51944   0.00000  Uiso   1.00
F746   F     0.97945   0.13960   0.79349   0.00000  Uiso   1.00
F747   F     0.88188   0.00645   0.71010   0.00000  Uiso   1.00
F748   F     0.93318   0.10387   0.95456   0.00000  Uiso   1.00
F749   F     0.74808   0.26894   0.97941   0.00000  Uiso   1.00
F750   F     0.81088   0.22819   0.57680   0.00000  Uiso   1.00
H751   H     0.77262   0.25558   0.53534   0.00000  Uiso   1.00
H752   H     0.97664   0.10553   0.50048   0.00000  Uiso   1.00
H753   H     0.67728   0.20980   0.68421   0.00000  Uiso   1.00
H754   H     0.71292   0.22359   0.71483   0.00000  Uiso   1.00
H755   H     0.71474   0.17461   0.68371   0.00000  Uiso   1.00
H756   H     0.79103   0.33205   0.78419   0.00000  Uiso   1.00
H757   H     0.81462   0.16933   0.59931   0.00000  Uiso   1.00
H758   H     0.91729   0.10269   0.59704   0.00000  Uiso   1.00
H759   H     0.76228   0.24486   0.90510   0.00000  Uiso   1.00
H760   H     0.84359   0.15246   0.90211   0.00000  Uiso   1.00
H761   H     0.88971   0.14021   0.92647   0.00000  Uiso   1.00
H762   H     0.96266   0.07398   0.54063   0.00000  Uiso   1.00
H763   H     0.93863   0.05822   0.50128   0.00000  Uiso   1.00
O764   O     0.83333   0.16667   0.75000   0.00000  Uiso   1.00
O765   O     0.82360   0.12393   0.66625   0.00000  Uiso   1.00
O766   O     0.79354   0.20646   0.83749   0.00000  Uiso   1.00
O767   O     0.87755   0.17493   0.65877   0.00000  Uiso   1.00
O768   O     0.83865   0.16135   0.83749   0.00000  Uiso   1.00
O769   O     0.84515   0.08101   0.77820   0.00000  Uiso   1.00
O770   O     0.81247   0.26136   0.76767   0.00000  Uiso   1.00
O771   O     0.74119   0.13251   0.73607   0.00000  Uiso   1.00
O772   O     0.93452   0.19179   0.71805   0.00000  Uiso   1.00
O773   O     0.73656   0.18960   0.77820   0.00000  Uiso   1.00
O774   O     0.92106   0.15277   0.76767   0.00000  Uiso   1.00
O775   O     0.80467   0.06903   0.73607   0.00000  Uiso   1.00
O776   O     0.87104   0.25527   0.71806   0.00000  Uiso   1.00
Zn777  Zn    0.85910   0.14090   0.78277   0.00000  Uiso   1.00
Zn778  Zn    0.80125   0.12378   0.72257   0.00000  Uiso   1.00
Zn779  Zn    0.87833   0.19664   0.71188   0.00000  Uiso   1.00
Zn780  Zn    0.79465   0.20535   0.78277   0.00000  Uiso   1.00
C781   C     0.05258   0.49310   0.75908   0.00000  Uiso   1.00
C782   C     0.21235   0.47820   0.95815   0.00000  Uiso   1.00
C783   C     0.23487   0.45983   0.97743   0.00000  Uiso   1.00
C784   C     0.28122   0.50684   0.74099   0.00000  Uiso   1.00
C785   C     0.22429   0.46414   0.51883   0.00000  Uiso   1.00
C786   C     0.19072   0.48900   0.54044   0.00000  Uiso   1.00
C787   C     0.24606   0.44457   0.53956   0.00000  Uiso   1.00
C788   C     0.23346   0.44935   0.58077   0.00000  Uiso   1.00
C789   C     0.17652   0.48906   0.58167   0.00000  Uiso   1.00
C790   C     0.32757   0.50891   0.73648   0.00000  Uiso   1.00
C791   C     0.00748   0.49140   0.76233   0.00000  Uiso   1.00
C792   C     0.11218   0.56209   0.91980   0.00000  Uiso   1.00
C793   C     0.18122   0.65557   0.73788   0.00000  Uiso   1.00
C794   C     0.15186   0.34541   0.76198   0.00000  Uiso   1.00
C795   C     0.15594   0.38950   0.75893   0.00000  Uiso   1.00
C796   C     0.17696   0.61104   0.74128   0.00000  Uiso   1.00
C797   C     0.18833   0.47879   0.64405   0.00000  Uiso   1.00
C798   C     0.14551   0.52111   0.85616   0.00000  Uiso   1.00
C799   C     0.13833   0.53134   0.89890   0.00000  Uiso   1.00
C800   C     0.19857   0.47081   0.60147   0.00000  Uiso   1.00
C801   C     0.10724   0.57251   0.95992   0.00000  Uiso   1.00
C802   C     0.28304   0.41920   0.51925   0.00000  Uiso   1.00
C803   C     0.15921   0.51093   0.91865   0.00000  Uiso   1.00
C804   C     0.02650   0.53047   0.70289   0.00000  Uiso   1.00
C805   C     0.15644   0.52215   0.95875   0.00000  Uiso   1.00
C806   C     0.12920   0.55280   0.97956   0.00000  Uiso   1.00
C807   C     0.17970   0.50352   0.97871   0.00000  Uiso   1.00
C808   C     0.17145   0.51202   0.52021   0.00000  Uiso   1.00
C809   C     0.14591   0.54465   0.53955   0.00000  Uiso   1.00
C810   C     0.12506   0.56416   0.51944   0.00000  Uiso   1.00
F811   F     0.31278   0.47293   0.79349   0.00000  Uiso   1.00
F812   F     0.21521   0.33978   0.71010   0.00000  Uiso   1.00
F813   F     0.26652   0.43720   0.95456   0.00000  Uiso   1.00
F814   F     0.08141   0.60228   0.97941   0.00000  Uiso   1.00
F815   F     0.14421   0.56152   0.57680   0.00000  Uiso   1.00
H816   H     0.10595   0.58891   0.53534   0.00000  Uiso   1.00
H817   H     0.30998   0.43887   0.50048   0.00000  Uiso   1.00
H818   H     0.01061   0.54314   0.68421   0.00000  Uiso   1.00
H819   H     0.04625   0.55692   0.71483   0.00000  Uiso   1.00
H820   H     0.04808   0.50794   0.68371   0.00000  Uiso   1.00
H821   H     0.12437   0.66538   0.78419   0.00000  Uiso   1.00
H822   H     0.14796   0.50267   0.59931   0.00000  Uiso   1.00
H823   H     0.25062   0.43602   0.59704   0.00000  Uiso   1.00
H824   H     0.09561   0.57819   0.90510   0.00000  Uiso   1.00
H825   H     0.17692   0.48579   0.90211   0.00000  Uiso   1.00
H826   H     0.22305   0.47355   0.92647   0.00000  Uiso   1.00
H827   H     0.29599   0.40732   0.54063   0.00000  Uiso   1.00
H828   H     0.27196   0.39155   0.50128   0.00000  Uiso   1.00
O829   O     0.16667   0.50000   0.75000   0.00000  Uiso   1.00
O830   O     0.15693   0.45726   0.66625   0.00000  Uiso   1.00
O831   O     0.12687   0.53979   0.83749   0.00000  Uiso   1.00
O832   O     0.21088   0.50826   0.65877   0.00000  Uiso   1.00
O833   O     0.17198   0.49468   0.83749   0.00000  Uiso   1.00
O834   O     0.17849   0.41434   0.77820   0.00000  Uiso   1.00
O835   O     0.14581   0.59469   0.76767   0.00000  Uiso   1.00
O836   O     0.07452   0.46584   0.73607   0.00000  Uiso   1.00
O837   O     0.26785   0.52512   0.71805   0.00000  Uiso   1.00
O838   O     0.06990   0.52293   0.77820   0.00000  Uiso   1.00
O839   O     0.25440   0.48610   0.76767   0.00000  Uiso   1.00
O840   O     0.13800   0.40236   0.73607   0.00000  Uiso   1.00
O841   O     0.20437   0.58860   0.71806   0.00000  Uiso   1.00
Zn842  Zn    0.19244   0.47423   0.78277   0.00000  Uiso   1.00
Zn843  Zn    0.13459   0.45711   0.72257   0.00000  Uiso   1.00
Zn844  Zn    0.21166   0.52997   0.71188   0.00000  Uiso   1.00
Zn845  Zn    0.12798   0.53868   0.78277   0.00000  Uiso   1.00
C846   C     0.38592   0.49310   0.75908   0.00000  Uiso   1.00
C847   C     0.54568   0.47820   0.95815   0.00000  Uiso   1.00
C848   C     0.56820   0.45983   0.97743   0.00000  Uiso   1.00
C849   C     0.61455   0.50684   0.74099   0.00000  Uiso   1.00
C850   C     0.55763   0.46414   0.51883   0.00000  Uiso   1.00
C851   C     0.52405   0.48900   0.54044   0.00000  Uiso   1.00
C852   C     0.57940   0.44457   0.53956   0.00000  Uiso   1.00
C853   C     0.56680   0.44935   0.58077   0.00000  Uiso   1.00
C854   C     0.50985   0.48906   0.58167   0.00000  Uiso   1.00
C855   C     0.66090   0.50891   0.73648   0.00000  Uiso   1.00
C856   C     0.34081   0.49140   0.76233   0.00000  Uiso   1.00
C857   C     0.44551   0.56209   0.91980   0.00000  Uiso   1.00
C858   C     0.51455   0.65557   0.73788   0.00000  Uiso   1.00
C859   C     0.48519   0.34541   0.76198   0.00000  Uiso   1.00
C860   C     0.48927   0.38950   0.75893   0.00000  Uiso   1.00
C861   C     0.51029   0.61104   0.74128   0.00000  Uiso   1.00
C862   C     0.52167   0.47879   0.64405   0.00000  Uiso   1.00
C863   C     0.47885   0.52111   0.85616   0.00000  Uiso   1.00
C864   C     0.47167   0.53134   0.89890   0.00000  Uiso   1.00
C865   C     0.53190   0.47081   0.60147   0.00000  Uiso   1.00
C866   C     0.44058   0.57251   0.95992   0.00000  Uiso   1.00
C867   C     0.61637   0.41920   0.51925   0.00000  Uiso   1.00
C868   C     0.49255   0.51093   0.91865   0.00000  Uiso   1.00
C869   C     0.35984   0.53047   0.70289   0.00000  Uiso   1.00
C870   C     0.48978   0.52215   0.95875   0.00000  Uiso   1.00
C871   C     0.46253   0.55280   0.97956   0.00000  Uiso   1.00
C872   C     0.51303   0.50352   0.97871   0.00000  Uiso   1.00
C873   C     0.50478   0.51202   0.52021   0.00000  Uiso   1.00
C874   C     0.47924   0.54465   0.53955   0.00000  Uiso   1.00
C875   C     0.45839   0.56416   0.51944   0.00000  Uiso   1.00
F876   F     0.64612   0.47293   0.79349   0.00000  Uiso   1.00
F877   F     0.54855   0.33978   0.71010   0.00000  Uiso   1.00
F878   F     0.59985   0.43720   0.95456   0.00000  Uiso   1.00
F879   F     0.41475   0.60228   0.97941   0.00000  Uiso   1.00
F880   F     0.47755   0.56152   0.57680   0.00000  Uiso   1.00
H881   H     0.43928   0.58891   0.53534   0.00000  Uiso   1.00
H882   H     0.64331   0.43887   0.50048   0.00000  Uiso   1.00
H883   H     0.34395   0.54314   0.68421   0.00000  Uiso   1.00
H884   H     0.37958   0.55692   0.71483   0.00000  Uiso   1.00
H885   H     0.38141   0.50794   0.68371   0.00000  Uiso   1.00
H886   H     0.45770   0.66538   0.78419   0.00000  Uiso   1.00
H887   H     0.48129   0.50267   0.59931   0.00000  Uiso   1.00
H888   H     0.58395   0.43602   0.59704   0.00000  Uiso   1.00
H889   H     0.42895   0.57819   0.90510   0.00000  Uiso   1.00
H890   H     0.51026   0.48579   0.90211   0.00000  Uiso   1.00
H891   H     0.55638   0.47355   0.92647   0.00000  Uiso   1.00
H892   H     0.62932   0.40732   0.54063   0.00000  Uiso   1.00
H893   H     0.60530   0.39155   0.50128   0.00000  Uiso   1.00
O894   O     0.50000   0.50000   0.75000   0.00000  Uiso   1.00
O895   O     0.49027   0.45726   0.66625   0.00000  Uiso   1.00
O896   O     0.46020   0.53979   0.83749   0.00000  Uiso   1.00
O897   O     0.54421   0.50826   0.65877   0.00000  Uiso   1.00
O898   O     0.50532   0.49468   0.83749   0.00000  Uiso   1.00
O899   O     0.51182   0.41434   0.77820   0.00000  Uiso   1.00
O900   O     0.47914   0.59469   0.76767   0.00000  Uiso   1.00
O901   O     0.40785   0.46584   0.73607   0.00000  Uiso   1.00
O902   O     0.60119   0.52512   0.71805   0.00000  Uiso   1.00
O903   O     0.40323   0.52293   0.77820   0.00000  Uiso   1.00
O904   O     0.58773   0.48610   0.76767   0.00000  Uiso   1.00
O905   O     0.47133   0.40236   0.73607   0.00000  Uiso   1.00
O906   O     0.53771   0.58860   0.71806   0.00000  Uiso   1.00
Zn907  Zn    0.52577   0.47423   0.78277   0.00000  Uiso   1.00
Zn908  Zn    0.46792   0.45711   0.72257   0.00000  Uiso   1.00
Zn909  Zn    0.54500   0.52997   0.71188   0.00000  Uiso   1.00
Zn910  Zn    0.46131   0.53868   0.78277   0.00000  Uiso   1.00
C911   C     0.71925   0.49310   0.75908   0.00000  Uiso   1.00
C912   C     0.87902   0.47820   0.95815   0.00000  Uiso   1.00
C913   C     0.90153   0.45983   0.97743   0.00000  Uiso   1.00
C914   C     0.94788   0.50684   0.74099   0.00000  Uiso   1.00
C915   C     0.89096   0.46414   0.51883   0.00000  Uiso   1.00
C916   C     0.85739   0.48900   0.54044   0.00000  Uiso   1.00
C917   C     0.91273   0.44457   0.53956   0.00000  Uiso   1.00
C918   C     0.90013   0.44935   0.58077   0.00000  Uiso   1.00
C919   C     0.84319   0.48906   0.58167   0.00000  Uiso   1.00
C920   C     0.99424   0.50891   0.73648   0.00000  Uiso   1.00
C921   C     0.67415   0.49140   0.76233   0.00000  Uiso   1.00
C922   C     0.77884   0.56209   0.91980   0.00000  Uiso   1.00
C923   C     0.84788   0.65557   0.73788   0.00000  Uiso   1.00
C924   C     0.81852   0.34541   0.76198   0.00000  Uiso   1.00
C925   C     0.82260   0.38950   0.75893   0.00000  Uiso   1.00
C926   C     0.84362   0.61104   0.74128   0.00000  Uiso   1.00
C927   C     0.85500   0.47879   0.64405   0.00000  Uiso   1.00
C928   C     0.81218   0.52111   0.85616   0.00000  Uiso   1.00
C929   C     0.80500   0.53134   0.89890   0.00000  Uiso   1.00
C930   C     0.86524   0.47081   0.60147   0.00000  Uiso   1.00
C931   C     0.77391   0.57251   0.95992   0.00000  Uiso   1.00
C932   C     0.94970   0.41920   0.51925   0.00000  Uiso   1.00
C933   C     0.82588   0.51093   0.91865   0.00000  Uiso   1.00
C934   C     0.69317   0.53047   0.70289   0.00000  Uiso   1.00
C935   C     0.82311   0.52215   0.95875   0.00000  Uiso   1.00
C936   C     0.79586   0.55280   0.97956   0.00000  Uiso   1.00
C937   C     0.84636   0.50352   0.97871   0.00000  Uiso   1.00
C938   C     0.83812   0.51202   0.52021   0.00000  Uiso   1.00
C939   C     0.81257   0.54465   0.53955   0.00000  Uiso   1.00
C940   C     0.79173   0.56416   0.51944   0.00000  Uiso   1.00
F941   F     0.97945   0.47293   0.79349   0.00000  Uiso   1.00
F942   F     0.88188   0.33978   0.71010   0.00000  Uiso   1.00
F943   F     0.93318   0.43720   0.95456   0.00000  Uiso   1.00
F944   F     0.74808   0.60228   0.97941   0.00000  Uiso   1.00
F945   F     0.81088   0.56152   0.57680   0.00000  Uiso   1.00
H946   H     0.77262   0.58891   0.53534   0.00000  Uiso   1.00
H947   H     0.97664   0.43887   0.50048   0.00000  Uiso   1.00
H948   H     0.67728   0.54314   0.68421   0.00000  Uiso   1.00
H949   H     0.71292   0.55692   0.71483   0.00000  Uiso   1.00
H950   H     0.71474   0.50794   0.68371   0.00000  Uiso   1.00
H951   H     0.79103   0.66538   0.78419   0.00000  Uiso   1.00
H952   H     0.81462   0.50267   0.59931   0.00000  Uiso   1.00
H953   H     0.91729   0.43602   0.59704   0.00000  Uiso   1.00
H954   H     0.76228   0.57819   0.90510   0.00000  Uiso   1.00
H955   H     0.84359   0.48579   0.90211   0.00000  Uiso   1.00
H956   H     0.88971   0.47355   0.92647   0.00000  Uiso   1.00
H957   H     0.96266   0.40732   0.54063   0.00000  Uiso   1.00
H958   H     0.93863   0.39155   0.50128   0.00000  Uiso   1.00
O959   O     0.83333   0.50000   0.75000   0.00000  Uiso   1.00
O960   O     0.82360   0.45726   0.66625   0.00000  Uiso   1.00
O961   O     0.79354   0.53979   0.83749   0.00000  Uiso   1.00
O962   O     0.87755   0.50826   0.65877   0.00000  Uiso   1.00
O963   O     0.83865   0.49468   0.83749   0.00000  Uiso   1.00
O964   O     0.84515   0.41434   0.77820   0.00000  Uiso   1.00
O965   O     0.81247   0.59469   0.76767   0.00000  Uiso   1.00
O966   O     0.74119   0.46584   0.73607   0.00000  Uiso   1.00
O967   O     0.93452   0.52512   0.71805   0.00000  Uiso   1.00
O968   O     0.73656   0.52293   0.77820   0.00000  Uiso   1.00
O969   O     0.92106   0.48610   0.76767   0.00000  Uiso   1.00
O970   O     0.80467   0.40236   0.73607   0.00000  Uiso   1.00
O971   O     0.87104   0.58860   0.71806   0.00000  Uiso   1.00
Zn972  Zn    0.85910   0.47423   0.78277   0.00000  Uiso   1.00
Zn973  Zn    0.80125   0.45711   0.72257   0.00000  Uiso   1.00
Zn974  Zn    0.87833   0.52997   0.71188   0.00000  Uiso   1.00
Zn975  Zn    0.79465   0.53868   0.78277   0.00000  Uiso   1.00
C976   C     0.05258   0.82644   0.75908   0.00000  Uiso   1.00
C977   C     0.21235   0.81154   0.95815   0.00000  Uiso   1.00
C978   C     0.23487   0.79316   0.97743   0.00000  Uiso   1.00
C979   C     0.28122   0.84018   0.74099   0.00000  Uiso   1.00
C980   C     0.22429   0.79747   0.51883   0.00000  Uiso   1.00
C981   C     0.19072   0.82233   0.54044   0.00000  Uiso   1.00
C982   C     0.24606   0.77790   0.53956   0.00000  Uiso   1.00
C983   C     0.23346   0.78268   0.58077   0.00000  Uiso   1.00
C984   C     0.17652   0.82239   0.58167   0.00000  Uiso   1.00
C985   C     0.32757   0.84225   0.73648   0.00000  Uiso   1.00
C986   C     0.00748   0.82473   0.76233   0.00000  Uiso   1.00
C987   C     0.11218   0.89542   0.91980   0.00000  Uiso   1.00
C988   C     0.18122   0.98890   0.73788   0.00000  Uiso   1.00
C989   C     0.15186   0.67875   0.76198   0.00000  Uiso   1.00
C990   C     0.15594   0.72284   0.75893   0.00000  Uiso   1.00
C991   C     0.17696   0.94437   0.74128   0.00000  Uiso   1.00
C992   C     0.18833   0.81213   0.64405   0.00000  Uiso   1.00
C993   C     0.14551   0.85445   0.85616   0.00000  Uiso   1.00
C994   C     0.13833   0.86468   0.89890   0.00000  Uiso   1.00
C995   C     0.19857   0.80414   0.60147   0.00000  Uiso   1.00
C996   C     0.10724   0.90584   0.95992   0.00000  Uiso   1.00
C997   C     0.28304   0.75253   0.51925   0.00000  Uiso   1.00
C998   C     0.15921   0.84426   0.91865   0.00000  Uiso   1.00
C999   C     0.02650   0.86381   0.70289   0.00000  Uiso   1.00
C1000  C     0.15644   0.85549   0.95875   0.00000  Uiso   1.00
C1001  C     0.12920   0.88613   0.97956   0.00000  Uiso   1.00
C1002  C     0.17970   0.83685   0.97871   0.00000  Uiso   1.00
C1003  C     0.17145   0.84535   0.52021   0.00000  Uiso   1.00
C1004  C     0.14591   0.87798   0.53955   0.00000  Uiso   1.00
C1005  C     0.12506   0.89750   0.51944   0.00000  Uiso   1.00
F1006  F     0.31278   0.80627   0.79349   0.00000  Uiso   1.00
F1007  F     0.21521   0.67311   0.71010   0.00000  Uiso   1.00
F1008  F     0.26652   0.77054   0.95456   0.00000  Uiso   1.00
F1009  F     0.08141   0.93561   0.97941   0.00000  Uiso   1.00
F1010  F     0.14421   0.89486   0.57680   0.00000  Uiso   1.00
H1011  H     0.10595   0.92224   0.53534   0.00000  Uiso   1.00
H1012  H     0.30998   0.77220   0.50048   0.00000  Uiso   1.00
H1013  H     0.01061   0.87647   0.68421   0.00000  Uiso   1.00
H1014  H     0.04625   0.89026   0.71483   0.00000  Uiso   1.00
H1015  H     0.04808   0.84127   0.68371   0.00000  Uiso   1.00
H1016  H     0.12437   0.99871   0.78419   0.00000  Uiso   1.00
H1017  H     0.14796   0.83600   0.59931   0.00000  Uiso   1.00
H1018  H     0.25062   0.76935   0.59704   0.00000  Uiso   1.00
H1019  H     0.09561   0.91153   0.90510   0.00000  Uiso   1.00
H1020  H     0.17692   0.81913   0.90211   0.00000  Uiso   1.00
H1021  H     0.22305   0.80688   0.92647   0.00000  Uiso   1.00
H1022  H     0.29599   0.74065   0.54063   0.00000  Uiso   1.00
H1023  H     0.27196   0.72489   0.50128   0.00000  Uiso   1.00
O1024  O     0.16667   0.83333   0.75000   0.00000  Uiso   1.00
O1025  O     0.15693   0.79060   0.66625   0.00000  Uiso   1.00
O1026  O     0.12687   0.87313   0.83749   0.00000  Uiso   1.00
O1027  O     0.21088   0.84159   0.65877   0.00000  Uiso   1.00
O1028  O     0.17198   0.82802   0.83749   0.00000  Uiso   1.00
O1029  O     0.17849   0.74768   0.77820   0.00000  Uiso   1.00
O1030  O     0.14581   0.92803   0.76767   0.00000  Uiso   1.00
O1031  O     0.07452   0.79917   0.73607   0.00000  Uiso   1.00
O1032  O     0.26785   0.85845   0.71805   0.00000  Uiso   1.00
O1033  O     0.06990   0.85627   0.77820   0.00000  Uiso   1.00
O1034  O     0.25440   0.81944   0.76767   0.00000  Uiso   1.00
O1035  O     0.13800   0.73570   0.73607   0.00000  Uiso   1.00
O1036  O     0.20437   0.92193   0.71806   0.00000  Uiso   1.00
Zn1037 Zn    0.19244   0.80756   0.78277   0.00000  Uiso   1.00
Zn1038 Zn    0.13459   0.79044   0.72257   0.00000  Uiso   1.00
Zn1039 Zn    0.21166   0.86331   0.71188   0.00000  Uiso   1.00
Zn1040 Zn    0.12798   0.87202   0.78277   0.00000  Uiso   1.00
C1041  C     0.38592   0.82644   0.75908   0.00000  Uiso   1.00
C1042  C     0.54568   0.81154   0.95815   0.00000  Uiso   1.00
C1043  C     0.56820   0.79316   0.97743   0.00000  Uiso   1.00
C1044  C     0.61455   0.84018   0.74099   0.00000  Uiso   1.00
C1045  C     0.55763   0.79747   0.51883   0.00000  Uiso   1.00
C1046  C     0.52405   0.82233   0.54044   0.00000  Uiso   1.00
C1047  C     0.57940   0.77790   0.53956   0.00000  Uiso   1.00
C1048  C     0.56680   0.78268   0.58077   0.00000  Uiso   1.00
C1049  C     0.50985   0.82239   0.58167   0.00000  Uiso   1.00
C1050  C     0.66090   0.84225   0.73648   0.00000  Uiso   1.00
C1051  C     0.34081   0.82473   0.76233   0.00000  Uiso   1.00
C1052  C     0.44551   0.89542   0.91980   0.00000  Uiso   1.00
C1053  C     0.51455   0.98890   0.73788   0.00000  Uiso   1.00
C1054  C     0.48519   0.67875   0.76198   0.00000  Uiso   1.00
C1055  C     0.48927   0.72284   0.75893   0.00000  Uiso   1.00
C1056  C     0.51029   0.94437   0.74128   0.00000  Uiso   1.00
C1057  C     0.52167   0.81213   0.64405   0.00000  Uiso   1.00
C1058  C     0.47885   0.85445   0.85616   0.00000  Uiso   1.00
C1059  C     0.47167   0.86468   0.89890   0.00000  Uiso   1.00
C1060  C     0.53190   0.80414   0.60147   0.00000  Uiso   1.00
C1061  C     0.44058   0.90584   0.95992   0.00000  Uiso   1.00
C1062  C     0.61637   0.75253   0.51925   0.00000  Uiso   1.00
C1063  C     0.49255   0.84426   0.91865   0.00000  Uiso   1.00
C1064  C     0.35984   0.86381   0.70289   0.00000  Uiso   1.00
C1065  C     0.48978   0.85549   0.95875   0.00000  Uiso   1.00
C1066  C     0.46253   0.88613   0.97956   0.00000  Uiso   1.00
C1067  C     0.51303   0.83685   0.97871   0.00000  Uiso   1.00
C1068  C     0.50478   0.84535   0.52021   0.00000  Uiso   1.00
C1069  C     0.47924   0.87798   0.53955   0.00000  Uiso   1.00
C1070  C     0.45839   0.89750   0.51944   0.00000  Uiso   1.00
F1071  F     0.64612   0.80627   0.79349   0.00000  Uiso   1.00
F1072  F     0.54855   0.67311   0.71010   0.00000  Uiso   1.00
F1073  F     0.59985   0.77054   0.95456   0.00000  Uiso   1.00
F1074  F     0.41475   0.93561   0.97941   0.00000  Uiso   1.00
F1075  F     0.47755   0.89486   0.57680   0.00000  Uiso   1.00
H1076  H     0.43928   0.92224   0.53534   0.00000  Uiso   1.00
H1077  H     0.64331   0.77220   0.50048   0.00000  Uiso   1.00
H1078  H     0.34395   0.87647   0.68421   0.00000  Uiso   1.00
H1079  H     0.37958   0.89026   0.71483   0.00000  Uiso   1.00
H1080  H     0.38141   0.84127   0.68371   0.00000  Uiso   1.00
H1081  H     0.45770   0.99871   0.78419   0.00000  Uiso   1.00
H1082  H     0.48129   0.83600   0.59931   0.00000  Uiso   1.00
H1083  H     0.58395   0.76935   0.59704   0.00000  Uiso   1.00
H1084  H     0.42895   0.91153   0.90510   0.00000  Uiso   1.00
H1085  H     0.51026   0.81913   0.90211   0.00000  Uiso   1.00
H1086  H     0.55638   0.80688   0.92647   0.00000  Uiso   1.00
H1087  H     0.62932   0.74065   0.54063   0.00000  Uiso   1.00
H1088  H     0.60530   0.72489   0.50128   0.00000  Uiso   1.00
O1089  O     0.50000   0.83333   0.75000   0.00000  Uiso   1.00
O1090  O     0.49027   0.79060   0.66625   0.00000  Uiso   1.00
O1091  O     0.46020   0.87313   0.83749   0.00000  Uiso   1.00
O1092  O     0.54421   0.84159   0.65877   0.00000  Uiso   1.00
O1093  O     0.50532   0.82802   0.83749   0.00000  Uiso   1.00
O1094  O     0.51182   0.74768   0.77820   0.00000  Uiso   1.00
O1095  O     0.47914   0.92803   0.76767   0.00000  Uiso   1.00
O1096  O     0.40785   0.79917   0.73607   0.00000  Uiso   1.00
O1097  O     0.60119   0.85845   0.71805   0.00000  Uiso   1.00
O1098  O     0.40323   0.85627   0.77820   0.00000  Uiso   1.00
O1099  O     0.58773   0.81944   0.76767   0.00000  Uiso   1.00
O1100  O     0.47133   0.73570   0.73607   0.00000  Uiso   1.00
O1101  O     0.53771   0.92193   0.71806   0.00000  Uiso   1.00
Zn1102 Zn    0.52577   0.80756   0.78277   0.00000  Uiso   1.00
Zn1103 Zn    0.46792   0.79044   0.72257   0.00000  Uiso   1.00
Zn1104 Zn    0.54500   0.86331   0.71188   0.00000  Uiso   1.00
Zn1105 Zn    0.46131   0.87202   0.78277   0.00000  Uiso   1.00
C1106  C     0.71925   0.82644   0.75908   0.00000  Uiso   1.00
C1107  C     0.87902   0.81154   0.95815   0.00000  Uiso   1.00
C1108  C     0.90153   0.79316   0.97743   0.00000  Uiso   1.00
C1109  C     0.94788   0.84018   0.74099   0.00000  Uiso   1.00
C1110  C     0.89096   0.79747   0.51883   0.00000  Uiso   1.00
C1111  C     0.85739   0.82233   0.54044   0.00000  Uiso   1.00
C1112  C     0.91273   0.77790   0.53956   0.00000  Uiso   1.00
C1113  C     0.90013   0.78268   0.58077   0.00000  Uiso   1.00
C1114  C     0.84319   0.82239   0.58167   0.00000  Uiso   1.00
C1115  C     0.99424   0.84225   0.73648   0.00000  Uiso   1.00
C1116  C     0.67415   0.82473   0.76233   0.00000  Uiso   1.00
C1117  C     0.77884   0.89542   0.91980   0.00000  Uiso   1.00
C1118  C     0.84788   0.98890   0.73788   0.00000  Uiso   1.00
C1119  C     0.81852   0.67875   0.76198   0.00000  Uiso   1.00
C1120  C     0.82260   0.72284   0.75893   0.00000  Uiso   1.00
C1121  C     0.84362   0.94437   0.74128   0.00000  Uiso   1.00
C1122  C     0.85500   0.81213   0.64405   0.00000  Uiso   1.00
C1123  C     0.81218   0.85445   0.85616   0.00000  Uiso   1.00
C1124  C     0.80500   0.86468   0.89890   0.00000  Uiso   1.00
C1125  C     0.86524   0.80414   0.60147   0.00000  Uiso   1.00
C1126  C     0.77391   0.90584   0.95992   0.00000  Uiso   1.00
C1127  C     0.94970   0.75253   0.51925   0.00000  Uiso   1.00
C1128  C     0.82588   0.84426   0.91865   0.00000  Uiso   1.00
C1129  C     0.69317   0.86381   0.70289   0.00000  Uiso   1.00
C1130  C     0.82311   0.85549   0.95875   0.00000  Uiso   1.00
C1131  C     0.79586   0.88613   0.97956   0.00000  Uiso   1.00
C1132  C     0.84636   0.83685   0.97871   0.00000  Uiso   1.00
C1133  C     0.83812   0.84535   0.52021   0.00000  Uiso   1.00
C1134  C     0.81257   0.87798   0.53955   0.00000  Uiso   1.00
C1135  C     0.79173   0.89750   0.51944   0.00000  Uiso   1.00
F1136  F     0.97945   0.80627   0.79349   0.00000  Uiso   1.00
F1137  F     0.88188   0.67311   0.71010   0.00000  Uiso   1.00
F1138  F     0.93318   0.77054   0.95456   0.00000  Uiso   1.00
F1139  F     0.74808   0.93561   0.97941   0.00000  Uiso   1.00
F1140  F     0.81088   0.89486   0.57680   0.00000  Uiso   1.00
H1141  H     0.77262   0.92224   0.53534   0.00000  Uiso   1.00
H1142  H     0.97664   0.77220   0.50048   0.00000  Uiso   1.00
H1143  H     0.67728   0.87647   0.68421   0.00000  Uiso   1.00
H1144  H     0.71292   0.89026   0.71483   0.00000  Uiso   1.00
H1145  H     0.71474   0.84127   0.68371   0.00000  Uiso   1.00
H1146  H     0.79103   0.99871   0.78419   0.00000  Uiso   1.00
H1147  H     0.81462   0.83600   0.59931   0.00000  Uiso   1.00
H1148  H     0.91729   0.76935   0.59704   0.00000  Uiso   1.00
H1149  H     0.76228   0.91153   0.90510   0.00000  Uiso   1.00
H1150  H     0.84359   0.81913   0.90211   0.00000  Uiso   1.00
H1151  H     0.88971   0.80688   0.92647   0.00000  Uiso   1.00
H1152  H     0.96266   0.74065   0.54063   0.00000  Uiso   1.00
H1153  H     0.93863   0.72489   0.50128   0.00000  Uiso   1.00
O1154  O     0.83333   0.83333   0.75000   0.00000  Uiso   1.00
O1155  O     0.82360   0.79060   0.66625   0.00000  Uiso   1.00
O1156  O     0.79354   0.87313   0.83749   0.00000  Uiso   1.00
O1157  O     0.87755   0.84159   0.65877   0.00000  Uiso   1.00
O1158  O     0.83865   0.82802   0.83749   0.00000  Uiso   1.00
O1159  O     0.84515   0.74768   0.77820   0.00000  Uiso   1.00
O1160  O     0.81247   0.92803   0.76767   0.00000  Uiso   1.00
O1161  O     0.74119   0.79917   0.73607   0.00000  Uiso   1.00
O1162  O     0.93452   0.85845   0.71805   0.00000  Uiso   1.00
O1163  O     0.73656   0.85627   0.77820   0.00000  Uiso   1.00
O1164  O     0.92106   0.81944   0.76767   0.00000  Uiso   1.00
O1165  O     0.80467   0.73570   0.73607   0.00000  Uiso   1.00
O1166  O     0.87104   0.92193   0.71806   0.00000  Uiso   1.00
Zn1167 Zn    0.85910   0.80756   0.78277   0.00000  Uiso   1.00
Zn1168 Zn    0.80125   0.79044   0.72257   0.00000  Uiso   1.00
Zn1169 Zn    0.87833   0.86331   0.71188   0.00000  Uiso   1.00
Zn1170 Zn    0.79465   0.87202   0.78277   0.00000  Uiso   1.00
loop_
_geom_bond_atom_site_label_1
_geom_bond_atom_site_label_2
_geom_bond_distance
_geom_bond_site_symmetry_2
_ccdc_geom_bond_type
C1     C11     1.437   .     S
C1     O56     1.271   .     A
C1     O58     1.269   .     A
C2     C3      1.386   .     A
C2     H46     1.077   .     S
C2     C27     1.410   .     A
C3     F33     1.356   .     S
C3     C590    1.408   .     S
C4     O57     1.281   .     A
C4     O59     1.279   .     A
C4     C10     1.467   .     S
C5     C6      1.430   .     A
C5     C7      1.428   .     A
C5     C588    1.408   1_554 S
C6     C9      1.407   .     A
C6     C28     1.429   .     A
C7     C22     1.510   .     S
C7     C8      1.399   .     A
C8     H43     1.084   .     S
C8     C20     1.389   .     A
C9     H42     1.078   .     S
C9     C20     1.386   .     A
C10    C76     1.350   .     S
C10    C89     1.517   .     S
C11    C140    1.350   1_455 S
C11    F161    1.361   1_455 S
C12    H44     1.083   .     S
C12    C19     1.400   .     A
C12    C21     1.393   .     A
C13    C16     1.452   .     S
C13    C209    1.333   .     S
C13    F227    1.362   .     S
C14    C15     1.436   .     S
C14    C403    1.333   1_545 S
C14    H431    1.086   1_545 S
C15    O60     1.280   .     A
C15    O54     1.280   .     A
C16    O55     1.270   .     A
C16    O61     1.270   .     A
C17    O50     1.275   .     A
C17    O52     1.271   .     A
C17    C20     1.452   .     S
C18    O51     1.284   .     A
C18    C19     1.473   .     S
C18    O53     1.286   .     A
C19    C23     1.398   .     A
C21    C26     1.407   .     A
C21    F34     1.358   .     S
C22    H48     1.110   .     S
C22    H47     1.111   .     S
C22    H37     1.110   .     S
C23    H45     1.076   .     S
C23    C25     1.408   .     A
C24    H38     1.109   .     S
C24    H39     1.111   .     S
C24    H40     1.111   .     S
C24    C140    1.517   1_455 S
C25    C27     1.426   .     A
C25    C26     1.417   .     A
C26    C615    1.393   .     S
C27    C613    1.421   .     S
C28    C29     1.422   .     A
C28    C612    1.421   1_554 S
C29    C30     1.389   .     A
C29    F35     1.356   .     S
C30    H36     1.084   .     S
C30    C611    1.393   1_554 S
F31    C76     1.361   .     S
F32    C403    1.362   1_545 S
H41    C209    1.086   .     S
O49    Zn64    1.927   .     S
O49    Zn65    1.935   .     S
O49    Zn63    1.949   .     S
O49    Zn62    1.963   .     S
O50    Zn63    1.927   .     S
O51    Zn65    1.940   .     S
O52    Zn64    1.937   .     S
O53    Zn62    1.926   .     S
O54    Zn62    1.928   .     S
O55    Zn65    1.927   .     S
O56    Zn63    1.933   .     S
O57    Zn64    1.945   .     S
O58    Zn65    1.939   .     S
O59    Zn62    1.927   .     S
O60    Zn63    1.935   .     S
O61    Zn64    1.931   .     S
C66    C76     1.437   .     S
C66    O121    1.271   .     A
C66    O123    1.269   .     A
C67    C68     1.386   .     A
C67    H111    1.077   .     S
C67    C92     1.410   .     A
C68    F98     1.356   .     S
C68    C655    1.408   .     S
C69    O122    1.281   .     A
C69    O124    1.279   .     A
C69    C75     1.467   .     S
C70    C71     1.430   .     A
C70    C72     1.428   .     A
C70    C653    1.408   1_554 S
C71    C74     1.407   .     A
C71    C93     1.429   .     A
C72    C87     1.510   .     S
C72    C73     1.399   .     A
C73    H108    1.084   .     S
C73    C85     1.389   .     A
C74    H107    1.078   .     S
C74    C85     1.386   .     A
C75    C141    1.350   .     S
C75    C154    1.517   .     S
C77    H109    1.083   .     S
C77    C84     1.400   .     A
C77    C86     1.393   .     A
C78    C81     1.452   .     S
C78    C274    1.333   .     S
C78    F292    1.362   .     S
C79    C80     1.436   .     S
C79    C468    1.333   1_545 S
C79    H496    1.086   1_545 S
C80    O125    1.280   .     A
C80    O119    1.280   .     A
C81    O120    1.270   .     A
C81    O126    1.270   .     A
C82    O115    1.275   .     A
C82    O117    1.271   .     A
C82    C85     1.452   .     S
C83    O116    1.284   .     A
C83    C84     1.473   .     S
C83    O118    1.286   .     A
C84    C88     1.398   .     A
C86    C91     1.407   .     A
C86    F99     1.358   .     S
C87    H113    1.110   .     S
C87    H112    1.111   .     S
C87    H102    1.110   .     S
C88    H110    1.076   .     S
C88    C90     1.408   .     A
C89    H103    1.109   .     S
C89    H104    1.111   .     S
C89    H105    1.111   .     S
C90    C92     1.426   .     A
C90    C91     1.417   .     A
C91    C680    1.393   .     S
C92    C678    1.421   .     S
C93    C94     1.422   .     A
C93    C677    1.421   1_554 S
C94    C95     1.389   .     A
C94    F100    1.356   .     S
C95    H101    1.084   .     S
C95    C676    1.393   1_554 S
F96    C141    1.361   .     S
F97    C468    1.362   1_545 S
H106   C274    1.086   .     S
O114   Zn129   1.927   .     S
O114   Zn130   1.935   .     S
O114   Zn128   1.949   .     S
O114   Zn127   1.963   .     S
O115   Zn128   1.927   .     S
O116   Zn130   1.940   .     S
O117   Zn129   1.937   .     S
O118   Zn127   1.926   .     S
O119   Zn127   1.928   .     S
O120   Zn130   1.927   .     S
O121   Zn128   1.933   .     S
O122   Zn129   1.945   .     S
O123   Zn130   1.939   .     S
O124   Zn127   1.927   .     S
O125   Zn128   1.935   .     S
O126   Zn129   1.931   .     S
C131   C141    1.437   .     S
C131   O186    1.271   .     A
C131   O188    1.269   .     A
C132   C133    1.386   .     A
C132   H176    1.077   .     S
C132   C157    1.410   .     A
C133   F163    1.356   .     S
C133   C720    1.408   .     S
C134   O187    1.281   .     A
C134   O189    1.279   .     A
C134   C140    1.467   .     S
C135   C136    1.430   .     A
C135   C137    1.428   .     A
C135   C718    1.408   1_554 S
C136   C139    1.407   .     A
C136   C158    1.429   .     A
C137   C152    1.510   .     S
C137   C138    1.399   .     A
C138   H173    1.084   .     S
C138   C150    1.389   .     A
C139   H172    1.078   .     S
C139   C150    1.386   .     A
C140   C11     1.350   1_655 S
C140   C24     1.517   1_655 S
C142   H174    1.083   .     S
C142   C149    1.400   .     A
C142   C151    1.393   .     A
C143   C146    1.452   .     S
C143   C339    1.333   .     S
C143   F357    1.362   .     S
C144   C145    1.436   .     S
C144   C533    1.333   1_545 S
C144   H561    1.086   1_545 S
C145   O190    1.280   .     A
C145   O184    1.280   .     A
C146   O185    1.270   .     A
C146   O191    1.270   .     A
C147   O180    1.275   .     A
C147   O182    1.271   .     A
C147   C150    1.452   .     S
C148   O181    1.284   .     A
C148   C149    1.473   .     S
C148   O183    1.286   .     A
C149   C153    1.398   .     A
C151   C156    1.407   .     A
C151   F164    1.358   .     S
C152   H178    1.110   .     S
C152   H177    1.111   .     S
C152   H167    1.110   .     S
C153   H175    1.076   .     S
C153   C155    1.408   .     A
C154   H168    1.109   .     S
C154   H169    1.111   .     S
C154   H170    1.111   .     S
C155   C157    1.426   .     A
C155   C156    1.417   .     A
C156   C745    1.393   .     S
C157   C743    1.421   .     S
C158   C159    1.422   .     A
C158   C742    1.421   1_554 S
C159   C160    1.389   .     A
C159   F165    1.356   .     S
C160   H166    1.084   .     S
C160   C741    1.393   1_554 S
F161   C11     1.361   1_655 S
F162   C533    1.362   1_545 S
H171   C339    1.086   .     S
O179   Zn194   1.927   .     S
O179   Zn195   1.935   .     S
O179   Zn193   1.949   .     S
O179   Zn192   1.963   .     S
O180   Zn193   1.927   .     S
O181   Zn195   1.940   .     S
O182   Zn194   1.937   .     S
O183   Zn192   1.926   .     S
O184   Zn192   1.928   .     S
O185   Zn195   1.927   .     S
O186   Zn193   1.933   .     S
O187   Zn194   1.945   .     S
O188   Zn195   1.939   .     S
O189   Zn192   1.927   .     S
O190   Zn193   1.935   .     S
O191   Zn194   1.931   .     S
C196   C206    1.437   .     S
C196   O251    1.271   .     A
C196   O253    1.269   .     A
C197   C198    1.386   .     A
C197   H241    1.077   .     S
C197   C222    1.410   .     A
C198   F228    1.356   .     S
C198   C785    1.408   .     S
C199   O252    1.281   .     A
C199   O254    1.279   .     A
C199   C205    1.467   .     S
C200   C201    1.430   .     A
C200   C202    1.428   .     A
C200   C783    1.408   1_554 S
C201   C204    1.407   .     A
C201   C223    1.429   .     A
C202   C217    1.510   .     S
C202   C203    1.399   .     A
C203   H238    1.084   .     S
C203   C215    1.389   .     A
C204   H237    1.078   .     S
C204   C215    1.386   .     A
C205   C271    1.350   .     S
C205   C284    1.517   .     S
C206   C335    1.350   1_455 S
C206   F356    1.361   1_455 S
C207   H239    1.083   .     S
C207   C214    1.400   .     A
C207   C216    1.393   .     A
C208   C211    1.452   .     S
C208   C404    1.333   .     S
C208   F422    1.362   .     S
C209   C210    1.436   .     S
C210   O255    1.280   .     A
C210   O249    1.280   .     A
C211   O250    1.270   .     A
C211   O256    1.270   .     A
C212   O245    1.275   .     A
C212   O247    1.271   .     A
C212   C215    1.452   .     S
C213   O246    1.284   .     A
C213   C214    1.473   .     S
C213   O248    1.286   .     A
C214   C218    1.398   .     A
C216   C221    1.407   .     A
C216   F229    1.358   .     S
C217   H243    1.110   .     S
C217   H242    1.111   .     S
C217   H232    1.110   .     S
C218   H240    1.076   .     S
C218   C220    1.408   .     A
C219   H233    1.109   .     S
C219   H234    1.111   .     S
C219   H235    1.111   .     S
C219   C335    1.517   1_455 S
C220   C222    1.426   .     A
C220   C221    1.417   .     A
C221   C810    1.393   .     S
C222   C808    1.421   .     S
C223   C224    1.422   .     A
C223   C807    1.421   1_554 S
C224   C225    1.389   .     A
C224   F230    1.356   .     S
C225   H231    1.084   .     S
C225   C806    1.393   1_554 S
F226   C271    1.361   .     S
H236   C404    1.086   .     S
O244   Zn259   1.927   .     S
O244   Zn260   1.935   .     S
O244   Zn258   1.949   .     S
O244   Zn257   1.963   .     S
O245   Zn258   1.927   .     S
O246   Zn260   1.940   .     S
O247   Zn259   1.937   .     S
O248   Zn257   1.926   .     S
O249   Zn257   1.928   .     S
O250   Zn260   1.927   .     S
O251   Zn258   1.933   .     S
O252   Zn259   1.945   .     S
O253   Zn260   1.939   .     S
O254   Zn257   1.927   .     S
O255   Zn258   1.935   .     S
O256   Zn259   1.931   .     S
C261   C271    1.437   .     S
C261   O316    1.271   .     A
C261   O318    1.269   .     A
C262   C263    1.386   .     A
C262   H306    1.077   .     S
C262   C287    1.410   .     A
C263   F293    1.356   .     S
C263   C850    1.408   .     S
C264   O317    1.281   .     A
C264   O319    1.279   .     A
C264   C270    1.467   .     S
C265   C266    1.430   .     A
C265   C267    1.428   .     A
C265   C848    1.408   1_554 S
C266   C269    1.407   .     A
C266   C288    1.429   .     A
C267   C282    1.510   .     S
C267   C268    1.399   .     A
C268   H303    1.084   .     S
C268   C280    1.389   .     A
C269   H302    1.078   .     S
C269   C280    1.386   .     A
C270   C336    1.350   .     S
C270   C349    1.517   .     S
C272   H304    1.083   .     S
C272   C279    1.400   .     A
C272   C281    1.393   .     A
C273   C276    1.452   .     S
C273   C469    1.333   .     S
C273   F487    1.362   .     S
C274   C275    1.436   .     S
C275   O320    1.280   .     A
C275   O314    1.280   .     A
C276   O315    1.270   .     A
C276   O321    1.270   .     A
C277   O310    1.275   .     A
C277   O312    1.271   .     A
C277   C280    1.452   .     S
C278   O311    1.284   .     A
C278   C279    1.473   .     S
C278   O313    1.286   .     A
C279   C283    1.398   .     A
C281   C286    1.407   .     A
C281   F294    1.358   .     S
C282   H308    1.110   .     S
C282   H307    1.111   .     S
C282   H297    1.110   .     S
C283   H305    1.076   .     S
C283   C285    1.408   .     A
C284   H298    1.109   .     S
C284   H299    1.111   .     S
C284   H300    1.111   .     S
C285   C287    1.426   .     A
C285   C286    1.417   .     A
C286   C875    1.393   .     S
C287   C873    1.421   .     S
C288   C289    1.422   .     A
C288   C872    1.421   1_554 S
C289   C290    1.389   .     A
C289   F295    1.356   .     S
C290   H296    1.084   .     S
C290   C871    1.393   1_554 S
F291   C336    1.361   .     S
H301   C469    1.086   .     S
O309   Zn324   1.927   .     S
O309   Zn325   1.935   .     S
O309   Zn323   1.949   .     S
O309   Zn322   1.963   .     S
O310   Zn323   1.927   .     S
O311   Zn325   1.940   .     S
O312   Zn324   1.937   .     S
O313   Zn322   1.926   .     S
O314   Zn322   1.928   .     S
O315   Zn325   1.927   .     S
O316   Zn323   1.933   .     S
O317   Zn324   1.945   .     S
O318   Zn325   1.939   .     S
O319   Zn322   1.927   .     S
O320   Zn323   1.935   .     S
O321   Zn324   1.931   .     S
C326   C336    1.437   .     S
C326   O381    1.271   .     A
C326   O383    1.269   .     A
C327   C328    1.386   .     A
C327   H371    1.077   .     S
C327   C352    1.410   .     A
C328   F358    1.356   .     S
C328   C915    1.408   .     S
C329   O382    1.281   .     A
C329   O384    1.279   .     A
C329   C335    1.467   .     S
C330   C331    1.430   .     A
C330   C332    1.428   .     A
C330   C913    1.408   1_554 S
C331   C334    1.407   .     A
C331   C353    1.429   .     A
C332   C347    1.510   .     S
C332   C333    1.399   .     A
C333   H368    1.084   .     S
C333   C345    1.389   .     A
C334   H367    1.078   .     S
C334   C345    1.386   .     A
C335   C206    1.350   1_655 S
C335   C219    1.517   1_655 S
C337   H369    1.083   .     S
C337   C344    1.400   .     A
C337   C346    1.393   .     A
C338   C341    1.452   .     S
C338   C534    1.333   .     S
C338   F552    1.362   .     S
C339   C340    1.436   .     S
C340   O385    1.280   .     A
C340   O379    1.280   .     A
C341   O380    1.270   .     A
C341   O386    1.270   .     A
C342   O375    1.275   .     A
C342   O377    1.271   .     A
C342   C345    1.452   .     S
C343   O376    1.284   .     A
C343   C344    1.473   .     S
C343   O378    1.286   .     A
C344   C348    1.398   .     A
C346   C351    1.407   .     A
C346   F359    1.358   .     S
C347   H373    1.110   .     S
C347   H372    1.111   .     S
C347   H362    1.110   .     S
C348   H370    1.076   .     S
C348   C350    1.408   .     A
C349   H363    1.109   .     S
C349   H364    1.111   .     S
C349   H365    1.111   .     S
C350   C352    1.426   .     A
C350   C351    1.417   .     A
C351   C940    1.393   .     S
C352   C938    1.421   .     S
C353   C354    1.422   .     A
C353   C937    1.421   1_554 S
C354   C355    1.389   .     A
C354   F360    1.356   .     S
C355   H361    1.084   .     S
C355   C936    1.393   1_554 S
F356   C206    1.361   1_655 S
H366   C534    1.086   .     S
O374   Zn389   1.927   .     S
O374   Zn390   1.935   .     S
O374   Zn388   1.949   .     S
O374   Zn387   1.963   .     S
O375   Zn388   1.927   .     S
O376   Zn390   1.940   .     S
O377   Zn389   1.937   .     S
O378   Zn387   1.926   .     S
O379   Zn387   1.928   .     S
O380   Zn390   1.927   .     S
O381   Zn388   1.933   .     S
O382   Zn389   1.945   .     S
O383   Zn390   1.939   .     S
O384   Zn387   1.927   .     S
O385   Zn388   1.935   .     S
O386   Zn389   1.931   .     S
C391   C401    1.437   .     S
C391   O446    1.271   .     A
C391   O448    1.269   .     A
C392   C393    1.386   .     A
C392   H436    1.077   .     S
C392   C417    1.410   .     A
C393   F423    1.356   .     S
C393   C980    1.408   .     S
C394   O447    1.281   .     A
C394   O449    1.279   .     A
C394   C400    1.467   .     S
C395   C396    1.430   .     A
C395   C397    1.428   .     A
C395   C978    1.408   1_554 S
C396   C399    1.407   .     A
C396   C418    1.429   .     A
C397   C412    1.510   .     S
C397   C398    1.399   .     A
C398   H433    1.084   .     S
C398   C410    1.389   .     A
C399   H432    1.078   .     S
C399   C410    1.386   .     A
C400   C466    1.350   .     S
C400   C479    1.517   .     S
C401   C530    1.350   1_455 S
C401   F551    1.361   1_455 S
C402   H434    1.083   .     S
C402   C409    1.400   .     A
C402   C411    1.393   .     A
C403   C406    1.452   .     S
C403   C14     1.333   1_565 S
C403   F32     1.362   1_565 S
C404   C405    1.436   .     S
C405   O450    1.280   .     A
C405   O444    1.280   .     A
C406   O445    1.270   .     A
C406   O451    1.270   .     A
C407   O440    1.275   .     A
C407   O442    1.271   .     A
C407   C410    1.452   .     S
C408   O441    1.284   .     A
C408   C409    1.473   .     S
C408   O443    1.286   .     A
C409   C413    1.398   .     A
C411   C416    1.407   .     A
C411   F424    1.358   .     S
C412   H438    1.110   .     S
C412   H437    1.111   .     S
C412   H427    1.110   .     S
C413   H435    1.076   .     S
C413   C415    1.408   .     A
C414   H428    1.109   .     S
C414   H429    1.111   .     S
C414   H430    1.111   .     S
C414   C530    1.517   1_455 S
C415   C417    1.426   .     A
C415   C416    1.417   .     A
C416   C1005   1.393   .     S
C417   C1003   1.421   .     S
C418   C419    1.422   .     A
C418   C1002   1.421   1_554 S
C419   C420    1.389   .     A
C419   F425    1.356   .     S
C420   H426    1.084   .     S
C420   C1001   1.393   1_554 S
F421   C466    1.361   .     S
H431   C14     1.086   1_565 S
O439   Zn454   1.927   .     S
O439   Zn455   1.935   .     S
O439   Zn453   1.949   .     S
O439   Zn452   1.963   .     S
O440   Zn453   1.927   .     S
O441   Zn455   1.940   .     S
O442   Zn454   1.937   .     S
O443   Zn452   1.926   .     S
O444   Zn452   1.928   .     S
O445   Zn455   1.927   .     S
O446   Zn453   1.933   .     S
O447   Zn454   1.945   .     S
O448   Zn455   1.939   .     S
O449   Zn452   1.927   .     S
O450   Zn453   1.935   .     S
O451   Zn454   1.931   .     S
C456   C466    1.437   .     S
C456   O511    1.271   .     A
C456   O513    1.269   .     A
C457   C458    1.386   .     A
C457   H501    1.077   .     S
C457   C482    1.410   .     A
C458   F488    1.356   .     S
C458   C1045   1.408   .     S
C459   O512    1.281   .     A
C459   O514    1.279   .     A
C459   C465    1.467   .     S
C460   C461    1.430   .     A
C460   C462    1.428   .     A
C460   C1043   1.408   1_554 S
C461   C464    1.407   .     A
C461   C483    1.429   .     A
C462   C477    1.510   .     S
C462   C463    1.399   .     A
C463   H498    1.084   .     S
C463   C475    1.389   .     A
C464   H497    1.078   .     S
C464   C475    1.386   .     A
C465   C531    1.350   .     S
C465   C544    1.517   .     S
C467   H499    1.083   .     S
C467   C474    1.400   .     A
C467   C476    1.393   .     A
C468   C471    1.452   .     S
C468   C79     1.333   1_565 S
C468   F97     1.362   1_565 S
C469   C470    1.436   .     S
C470   O515    1.280   .     A
C470   O509    1.280   .     A
C471   O510    1.270   .     A
C471   O516    1.270   .     A
C472   O505    1.275   .     A
C472   O507    1.271   .     A
C472   C475    1.452   .     S
C473   O506    1.284   .     A
C473   C474    1.473   .     S
C473   O508    1.286   .     A
C474   C478    1.398   .     A
C476   C481    1.407   .     A
C476   F489    1.358   .     S
C477   H503    1.110   .     S
C477   H502    1.111   .     S
C477   H492    1.110   .     S
C478   H500    1.076   .     S
C478   C480    1.408   .     A
C479   H493    1.109   .     S
C479   H494    1.111   .     S
C479   H495    1.111   .     S
C480   C482    1.426   .     A
C480   C481    1.417   .     A
C481   C1070   1.393   .     S
C482   C1068   1.421   .     S
C483   C484    1.422   .     A
C483   C1067   1.421   1_554 S
C484   C485    1.389   .     A
C484   F490    1.356   .     S
C485   H491    1.084   .     S
C485   C1066   1.393   1_554 S
F486   C531    1.361   .     S
H496   C79     1.086   1_565 S
O504   Zn519   1.927   .     S
O504   Zn520   1.935   .     S
O504   Zn518   1.949   .     S
O504   Zn517   1.963   .     S
O505   Zn518   1.927   .     S
O506   Zn520   1.940   .     S
O507   Zn519   1.937   .     S
O508   Zn517   1.926   .     S
O509   Zn517   1.928   .     S
O510   Zn520   1.927   .     S
O511   Zn518   1.933   .     S
O512   Zn519   1.945   .     S
O513   Zn520   1.939   .     S
O514   Zn517   1.927   .     S
O515   Zn518   1.935   .     S
O516   Zn519   1.931   .     S
C521   C531    1.437   .     S
C521   O576    1.271   .     A
C521   O578    1.269   .     A
C522   C523    1.386   .     A
C522   H566    1.077   .     S
C522   C547    1.410   .     A
C523   F553    1.356   .     S
C523   C1110   1.408   .     S
C524   O577    1.281   .     A
C524   O579    1.279   .     A
C524   C530    1.467   .     S
C525   C526    1.430   .     A
C525   C527    1.428   .     A
C525   C1108   1.408   1_554 S
C526   C529    1.407   .     A
C526   C548    1.429   .     A
C527   C542    1.510   .     S
C527   C528    1.399   .     A
C528   H563    1.084   .     S
C528   C540    1.389   .     A
C529   H562    1.078   .     S
C529   C540    1.386   .     A
C530   C401    1.350   1_655 S
C530   C414    1.517   1_655 S
C532   H564    1.083   .     S
C532   C539    1.400   .     A
C532   C541    1.393   .     A
C533   C536    1.452   .     S
C533   C144    1.333   1_565 S
C533   F162    1.362   1_565 S
C534   C535    1.436   .     S
C535   O580    1.280   .     A
C535   O574    1.280   .     A
C536   O575    1.270   .     A
C536   O581    1.270   .     A
C537   O570    1.275   .     A
C537   O572    1.271   .     A
C537   C540    1.452   .     S
C538   O571    1.284   .     A
C538   C539    1.473   .     S
C538   O573    1.286   .     A
C539   C543    1.398   .     A
C541   C546    1.407   .     A
C541   F554    1.358   .     S
C542   H568    1.110   .     S
C542   H567    1.111   .     S
C542   H557    1.110   .     S
C543   H565    1.076   .     S
C543   C545    1.408   .     A
C544   H558    1.109   .     S
C544   H559    1.111   .     S
C544   H560    1.111   .     S
C545   C547    1.426   .     A
C545   C546    1.417   .     A
C546   C1135   1.393   .     S
C547   C1133   1.421   .     S
C548   C549    1.422   .     A
C548   C1132   1.421   1_554 S
C549   C550    1.389   .     A
C549   F555    1.356   .     S
C550   H556    1.084   .     S
C550   C1131   1.393   1_554 S
F551   C401    1.361   1_655 S
H561   C144    1.086   1_565 S
O569   Zn584   1.927   .     S
O569   Zn585   1.935   .     S
O569   Zn583   1.949   .     S
O569   Zn582   1.963   .     S
O570   Zn583   1.927   .     S
O571   Zn585   1.940   .     S
O572   Zn584   1.937   .     S
O573   Zn582   1.926   .     S
O574   Zn582   1.928   .     S
O575   Zn585   1.927   .     S
O576   Zn583   1.933   .     S
O577   Zn584   1.945   .     S
O578   Zn585   1.939   .     S
O579   Zn582   1.927   .     S
O580   Zn583   1.935   .     S
O581   Zn584   1.931   .     S
C586   C596    1.437   .     S
C586   O641    1.271   .     A
C586   O643    1.269   .     A
C587   C588    1.386   .     A
C587   H631    1.077   .     S
C587   C612    1.410   .     A
C588   F618    1.356   .     S
C588   C5      1.408   1_556 S
C589   O642    1.281   .     A
C589   O644    1.279   .     A
C589   C595    1.467   .     S
C590   C591    1.430   .     A
C590   C592    1.428   .     A
C591   C594    1.407   .     A
C591   C613    1.429   .     A
C592   C607    1.510   .     S
C592   C593    1.399   .     A
C593   H628    1.084   .     S
C593   C605    1.389   .     A
C594   H627    1.078   .     S
C594   C605    1.386   .     A
C595   C661    1.350   .     S
C595   C674    1.517   .     S
C596   C725    1.350   1_455 S
C596   F746    1.361   1_455 S
C597   H629    1.083   .     S
C597   C604    1.400   .     A
C597   C606    1.393   .     A
C598   C601    1.452   .     S
C598   C794    1.333   .     S
C598   F812    1.362   .     S
C599   C600    1.436   .     S
C599   C988    1.333   1_545 S
C599   H1016   1.086   1_545 S
C600   O645    1.280   .     A
C600   O639    1.280   .     A
C601   O640    1.270   .     A
C601   O646    1.270   .     A
C602   O635    1.275   .     A
C602   O637    1.271   .     A
C602   C605    1.452   .     S
C603   O636    1.284   .     A
C603   C604    1.473   .     S
C603   O638    1.286   .     A
C604   C608    1.398   .     A
C606   C611    1.407   .     A
C606   F619    1.358   .     S
C607   H633    1.110   .     S
C607   H632    1.111   .     S
C607   H622    1.110   .     S
C608   H630    1.076   .     S
C608   C610    1.408   .     A
C609   H623    1.109   .     S
C609   H624    1.111   .     S
C609   H625    1.111   .     S
C609   C725    1.517   1_455 S
C610   C612    1.426   .     A
C610   C611    1.417   .     A
C611   C30     1.393   1_556 S
C612   C28     1.421   1_556 S
C613   C614    1.422   .     A
C614   C615    1.389   .     A
C614   F620    1.356   .     S
C615   H621    1.084   .     S
F616   C661    1.361   .     S
F617   C988    1.362   1_545 S
H626   C794    1.086   .     S
O634   Zn649   1.927   .     S
O634   Zn650   1.935   .     S
O634   Zn648   1.949   .     S
O634   Zn647   1.963   .     S
O635   Zn648   1.927   .     S
O636   Zn650   1.940   .     S
O637   Zn649   1.937   .     S
O638   Zn647   1.926   .     S
O639   Zn647   1.928   .     S
O640   Zn650   1.927   .     S
O641   Zn648   1.933   .     S
O642   Zn649   1.945   .     S
O643   Zn650   1.939   .     S
O644   Zn647   1.927   .     S
O645   Zn648   1.935   .     S
O646   Zn649   1.931   .     S
C651   C661    1.437   .     S
C651   O706    1.271   .     A
C651   O708    1.269   .     A
C652   C653    1.386   .     A
C652   H696    1.077   .     S
C652   C677    1.410   .     A
C653   F683    1.356   .     S
C653   C70     1.408   1_556 S
C654   O707    1.281   .     A
C654   O709    1.279   .     A
C654   C660    1.467   .     S
C655   C656    1.430   .     A
C655   C657    1.428   .     A
C656   C659    1.407   .     A
C656   C678    1.429   .     A
C657   C672    1.510   .     S
C657   C658    1.399   .     A
C658   H693    1.084   .     S
C658   C670    1.389   .     A
C659   H692    1.078   .     S
C659   C670    1.386   .     A
C660   C726    1.350   .     S
C660   C739    1.517   .     S
C662   H694    1.083   .     S
C662   C669    1.400   .     A
C662   C671    1.393   .     A
C663   C666    1.452   .     S
C663   C859    1.333   .     S
C663   F877    1.362   .     S
C664   C665    1.436   .     S
C664   C1053   1.333   1_545 S
C664   H1081   1.086   1_545 S
C665   O710    1.280   .     A
C665   O704    1.280   .     A
C666   O705    1.270   .     A
C666   O711    1.270   .     A
C667   O700    1.275   .     A
C667   O702    1.271   .     A
C667   C670    1.452   .     S
C668   O701    1.284   .     A
C668   C669    1.473   .     S
C668   O703    1.286   .     A
C669   C673    1.398   .     A
C671   C676    1.407   .     A
C671   F684    1.358   .     S
C672   H698    1.110   .     S
C672   H697    1.111   .     S
C672   H687    1.110   .     S
C673   H695    1.076   .     S
C673   C675    1.408   .     A
C674   H688    1.109   .     S
C674   H689    1.111   .     S
C674   H690    1.111   .     S
C675   C677    1.426   .     A
C675   C676    1.417   .     A
C676   C95     1.393   1_556 S
C677   C93     1.421   1_556 S
C678   C679    1.422   .     A
C679   C680    1.389   .     A
C679   F685    1.356   .     S
C680   H686    1.084   .     S
F681   C726    1.361   .     S
F682   C1053   1.362   1_545 S
H691   C859    1.086   .     S
O699   Zn714   1.927   .     S
O699   Zn715   1.935   .     S
O699   Zn713   1.949   .     S
O699   Zn712   1.963   .     S
O700   Zn713   1.927   .     S
O701   Zn715   1.940   .     S
O702   Zn714   1.937   .     S
O703   Zn712   1.926   .     S
O704   Zn712   1.928   .     S
O705   Zn715   1.927   .     S
O706   Zn713   1.933   .     S
O707   Zn714   1.945   .     S
O708   Zn715   1.939   .     S
O709   Zn712   1.927   .     S
O710   Zn713   1.935   .     S
O711   Zn714   1.931   .     S
C716   C726    1.437   .     S
C716   O771    1.271   .     A
C716   O773    1.269   .     A
C717   C718    1.386   .     A
C717   H761    1.077   .     S
C717   C742    1.410   .     A
C718   F748    1.356   .     S
C718   C135    1.408   1_556 S
C719   O772    1.281   .     A
C719   O774    1.279   .     A
C719   C725    1.467   .     S
C720   C721    1.430   .     A
C720   C722    1.428   .     A
C721   C724    1.407   .     A
C721   C743    1.429   .     A
C722   C737    1.510   .     S
C722   C723    1.399   .     A
C723   H758    1.084   .     S
C723   C735    1.389   .     A
C724   H757    1.078   .     S
C724   C735    1.386   .     A
C725   C596    1.350   1_655 S
C725   C609    1.517   1_655 S
C727   H759    1.083   .     S
C727   C734    1.400   .     A
C727   C736    1.393   .     A
C728   C731    1.452   .     S
C728   C924    1.333   .     S
C728   F942    1.362   .     S
C729   C730    1.436   .     S
C729   C1118   1.333   1_545 S
C729   H1146   1.086   1_545 S
C730   O775    1.280   .     A
C730   O769    1.280   .     A
C731   O770    1.270   .     A
C731   O776    1.270   .     A
C732   O765    1.275   .     A
C732   O767    1.271   .     A
C732   C735    1.452   .     S
C733   O766    1.284   .     A
C733   C734    1.473   .     S
C733   O768    1.286   .     A
C734   C738    1.398   .     A
C736   C741    1.407   .     A
C736   F749    1.358   .     S
C737   H763    1.110   .     S
C737   H762    1.111   .     S
C737   H752    1.110   .     S
C738   H760    1.076   .     S
C738   C740    1.408   .     A
C739   H753    1.109   .     S
C739   H754    1.111   .     S
C739   H755    1.111   .     S
C740   C742    1.426   .     A
C740   C741    1.417   .     A
C741   C160    1.393   1_556 S
C742   C158    1.421   1_556 S
C743   C744    1.422   .     A
C744   C745    1.389   .     A
C744   F750    1.356   .     S
C745   H751    1.084   .     S
F746   C596    1.361   1_655 S
F747   C1118   1.362   1_545 S
H756   C924    1.086   .     S
O764   Zn779   1.927   .     S
O764   Zn780   1.935   .     S
O764   Zn778   1.949   .     S
O764   Zn777   1.963   .     S
O765   Zn778   1.927   .     S
O766   Zn780   1.940   .     S
O767   Zn779   1.937   .     S
O768   Zn777   1.926   .     S
O769   Zn777   1.928   .     S
O770   Zn780   1.927   .     S
O771   Zn778   1.933   .     S
O772   Zn779   1.945   .     S
O773   Zn780   1.939   .     S
O774   Zn777   1.927   .     S
O775   Zn778   1.935   .     S
O776   Zn779   1.931   .     S
C781   C791    1.437   .     S
C781   O836    1.271   .     A
C781   O838    1.269   .     A
C782   C783    1.386   .     A
C782   H826    1.077   .     S
C782   C807    1.410   .     A
C783   F813    1.356   .     S
C783   C200    1.408   1_556 S
C784   O837    1.281   .     A
C784   O839    1.279   .     A
C784   C790    1.467   .     S
C785   C786    1.430   .     A
C785   C787    1.428   .     A
C786   C789    1.407   .     A
C786   C808    1.429   .     A
C787   C802    1.510   .     S
C787   C788    1.399   .     A
C788   H823    1.084   .     S
C788   C800    1.389   .     A
C789   H822    1.078   .     S
C789   C800    1.386   .     A
C790   C856    1.350   .     S
C790   C869    1.517   .     S
C791   C920    1.350   1_455 S
C791   F941    1.361   1_455 S
C792   H824    1.083   .     S
C792   C799    1.400   .     A
C792   C801    1.393   .     A
C793   C796    1.452   .     S
C793   C989    1.333   .     S
C793   F1007   1.362   .     S
C794   C795    1.436   .     S
C795   O840    1.280   .     A
C795   O834    1.280   .     A
C796   O835    1.270   .     A
C796   O841    1.270   .     A
C797   O830    1.275   .     A
C797   O832    1.271   .     A
C797   C800    1.452   .     S
C798   O831    1.284   .     A
C798   C799    1.473   .     S
C798   O833    1.286   .     A
C799   C803    1.398   .     A
C801   C806    1.407   .     A
C801   F814    1.358   .     S
C802   H828    1.110   .     S
C802   H827    1.111   .     S
C802   H817    1.110   .     S
C803   H825    1.076   .     S
C803   C805    1.408   .     A
C804   H818    1.109   .     S
C804   H819    1.111   .     S
C804   H820    1.111   .     S
C804   C920    1.517   1_455 S
C805   C807    1.426   .     A
C805   C806    1.417   .     A
C806   C225    1.393   1_556 S
C807   C223    1.421   1_556 S
C808   C809    1.422   .     A
C809   C810    1.389   .     A
C809   F815    1.356   .     S
C810   H816    1.084   .     S
F811   C856    1.361   .     S
H821   C989    1.086   .     S
O829   Zn844   1.927   .     S
O829   Zn845   1.935   .     S
O829   Zn843   1.949   .     S
O829   Zn842   1.963   .     S
O830   Zn843   1.927   .     S
O831   Zn845   1.940   .     S
O832   Zn844   1.937   .     S
O833   Zn842   1.926   .     S
O834   Zn842   1.928   .     S
O835   Zn845   1.927   .     S
O836   Zn843   1.933   .     S
O837   Zn844   1.945   .     S
O838   Zn845   1.939   .     S
O839   Zn842   1.927   .     S
O840   Zn843   1.935   .     S
O841   Zn844   1.931   .     S
C846   C856    1.437   .     S
C846   O901    1.271   .     A
C846   O903    1.269   .     A
C847   C848    1.386   .     A
C847   H891    1.077   .     S
C847   C872    1.410   .     A
C848   F878    1.356   .     S
C848   C265    1.408   1_556 S
C849   O902    1.281   .     A
C849   O904    1.279   .     A
C849   C855    1.467   .     S
C850   C851    1.430   .     A
C850   C852    1.428   .     A
C851   C854    1.407   .     A
C851   C873    1.429   .     A
C852   C867    1.510   .     S
C852   C853    1.399   .     A
C853   H888    1.084   .     S
C853   C865    1.389   .     A
C854   H887    1.078   .     S
C854   C865    1.386   .     A
C855   C921    1.350   .     S
C855   C934    1.517   .     S
C857   H889    1.083   .     S
C857   C864    1.400   .     A
C857   C866    1.393   .     A
C858   C861    1.452   .     S
C858   C1054   1.333   .     S
C858   F1072   1.362   .     S
C859   C860    1.436   .     S
C860   O905    1.280   .     A
C860   O899    1.280   .     A
C861   O900    1.270   .     A
C861   O906    1.270   .     A
C862   O895    1.275   .     A
C862   O897    1.271   .     A
C862   C865    1.452   .     S
C863   O896    1.284   .     A
C863   C864    1.473   .     S
C863   O898    1.286   .     A
C864   C868    1.398   .     A
C866   C871    1.407   .     A
C866   F879    1.358   .     S
C867   H893    1.110   .     S
C867   H892    1.111   .     S
C867   H882    1.110   .     S
C868   H890    1.076   .     S
C868   C870    1.408   .     A
C869   H883    1.109   .     S
C869   H884    1.111   .     S
C869   H885    1.111   .     S
C870   C872    1.426   .     A
C870   C871    1.417   .     A
C871   C290    1.393   1_556 S
C872   C288    1.421   1_556 S
C873   C874    1.422   .     A
C874   C875    1.389   .     A
C874   F880    1.356   .     S
C875   H881    1.084   .     S
F876   C921    1.361   .     S
H886   C1054   1.086   .     S
O894   Zn909   1.927   .     S
O894   Zn910   1.935   .     S
O894   Zn908   1.949   .     S
O894   Zn907   1.963   .     S
O895   Zn908   1.927   .     S
O896   Zn910   1.940   .     S
O897   Zn909   1.937   .     S
O898   Zn907   1.926   .     S
O899   Zn907   1.928   .     S
O900   Zn910   1.927   .     S
O901   Zn908   1.933   .     S
O902   Zn909   1.945   .     S
O903   Zn910   1.939   .     S
O904   Zn907   1.927   .     S
O905   Zn908   1.935   .     S
O906   Zn909   1.931   .     S
C911   C921    1.437   .     S
C911   O966    1.271   .     A
C911   O968    1.269   .     A
C912   C913    1.386   .     A
C912   H956    1.077   .     S
C912   C937    1.410   .     A
C913   F943    1.356   .     S
C913   C330    1.408   1_556 S
C914   O967    1.281   .     A
C914   O969    1.279   .     A
C914   C920    1.467   .     S
C915   C916    1.430   .     A
C915   C917    1.428   .     A
C916   C919    1.407   .     A
C916   C938    1.429   .     A
C917   C932    1.510   .     S
C917   C918    1.399   .     A
C918   H953    1.084   .     S
C918   C930    1.389   .     A
C919   H952    1.078   .     S
C919   C930    1.386   .     A
C920   C791    1.350   1_655 S
C920   C804    1.517   1_655 S
C922   H954    1.083   .     S
C922   C929    1.400   .     A
C922   C931    1.393   .     A
C923   C926    1.452   .     S
C923   C1119   1.333   .     S
C923   F1137   1.362   .     S
C924   C925    1.436   .     S
C925   O970    1.280   .     A
C925   O964    1.280   .     A
C926   O965    1.270   .     A
C926   O971    1.270   .     A
C927   O960    1.275   .     A
C927   O962    1.271   .     A
C927   C930    1.452   .     S
C928   O961    1.284   .     A
C928   C929    1.473   .     S
C928   O963    1.286   .     A
C929   C933    1.398   .     A
C931   C936    1.407   .     A
C931   F944    1.358   .     S
C932   H958    1.110   .     S
C932   H957    1.111   .     S
C932   H947    1.110   .     S
C933   H955    1.076   .     S
C933   C935    1.408   .     A
C934   H948    1.109   .     S
C934   H949    1.111   .     S
C934   H950    1.111   .     S
C935   C937    1.426   .     A
C935   C936    1.417   .     A
C936   C355    1.393   1_556 S
C937   C353    1.421   1_556 S
C938   C939    1.422   .     A
C939   C940    1.389   .     A
C939   F945    1.356   .     S
C940   H946    1.084   .     S
F941   C791    1.361   1_655 S
H951   C1119   1.086   .     S
O959   Zn974   1.927   .     S
O959   Zn975   1.935   .     S
O959   Zn973   1.949   .     S
O959   Zn972   1.963   .     S
O960   Zn973   1.927   .     S
O961   Zn975   1.940   .     S
O962   Zn974   1.937   .     S
O963   Zn972   1.926   .     S
O964   Zn972   1.928   .     S
O965   Zn975   1.927   .     S
O966   Zn973   1.933   .     S
O967   Zn974   1.945   .     S
O968   Zn975   1.939   .     S
O969   Zn972   1.927   .     S
O970   Zn973   1.935   .     S
O971   Zn974   1.931   .     S
C976   C986    1.437   .     S
C976   O1031   1.271   .     A
C976   O1033   1.269   .     A
C977   C978    1.386   .     A
C977   H1021   1.077   .     S
C977   C1002   1.410   .     A
C978   F1008   1.356   .     S
C978   C395    1.408   1_556 S
C979   O1032   1.281   .     A
C979   O1034   1.279   .     A
C979   C985    1.467   .     S
C980   C981    1.430   .     A
C980   C982    1.428   .     A
C981   C984    1.407   .     A
C981   C1003   1.429   .     A
C982   C997    1.510   .     S
C982   C983    1.399   .     A
C983   H1018   1.084   .     S
C983   C995    1.389   .     A
C984   H1017   1.078   .     S
C984   C995    1.386   .     A
C985   C1051   1.350   .     S
C985   C1064   1.517   .     S
C986   C1115   1.350   1_455 S
C986   F1136   1.361   1_455 S
C987   H1019   1.083   .     S
C987   C994    1.400   .     A
C987   C996    1.393   .     A
C988   C991    1.452   .     S
C988   C599    1.333   1_565 S
C988   F617    1.362   1_565 S
C989   C990    1.436   .     S
C990   O1035   1.280   .     A
C990   O1029   1.280   .     A
C991   O1030   1.270   .     A
C991   O1036   1.270   .     A
C992   O1025   1.275   .     A
C992   O1027   1.271   .     A
C992   C995    1.452   .     S
C993   O1026   1.284   .     A
C993   C994    1.473   .     S
C993   O1028   1.286   .     A
C994   C998    1.398   .     A
C996   C1001   1.407   .     A
C996   F1009   1.358   .     S
C997   H1023   1.110   .     S
C997   H1022   1.111   .     S
C997   H1012   1.110   .     S
C998   H1020   1.076   .     S
C998   C1000   1.408   .     A
C999   H1013   1.109   .     S
C999   H1014   1.111   .     S
C999   H1015   1.111   .     S
C999   C1115   1.517   1_455 S
C1000  C1002   1.426   .     A
C1000  C1001   1.417   .     A
C1001  C420    1.393   1_556 S
C1002  C418    1.421   1_556 S
C1003  C1004   1.422   .     A
C1004  C1005   1.389   .     A
C1004  F1010   1.356   .     S
C1005  H1011   1.084   .     S
F1006  C1051   1.361   .     S
H1016  C599    1.086   1_565 S
O1024  Zn1039  1.927   .     S
O1024  Zn1040  1.935   .     S
O1024  Zn1038  1.949   .     S
O1024  Zn1037  1.963   .     S
O1025  Zn1038  1.927   .     S
O1026  Zn1040  1.940   .     S
O1027  Zn1039  1.937   .     S
O1028  Zn1037  1.926   .     S
O1029  Zn1037  1.928   .     S
O1030  Zn1040  1.927   .     S
O1031  Zn1038  1.933   .     S
O1032  Zn1039  1.945   .     S
O1033  Zn1040  1.939   .     S
O1034  Zn1037  1.927   .     S
O1035  Zn1038  1.935   .     S
O1036  Zn1039  1.931   .     S
C1041  C1051   1.437   .     S
C1041  O1096   1.271   .     A
C1041  O1098   1.269   .     A
C1042  C1043   1.386   .     A
C1042  H1086   1.077   .     S
C1042  C1067   1.410   .     A
C1043  F1073   1.356   .     S
C1043  C460    1.408   1_556 S
C1044  O1097   1.281   .     A
C1044  O1099   1.279   .     A
C1044  C1050   1.467   .     S
C1045  C1046   1.430   .     A
C1045  C1047   1.428   .     A
C1046  C1049   1.407   .     A
C1046  C1068   1.429   .     A
C1047  C1062   1.510   .     S
C1047  C1048   1.399   .     A
C1048  H1083   1.084   .     S
C1048  C1060   1.389   .     A
C1049  H1082   1.078   .     S
C1049  C1060   1.386   .     A
C1050  C1116   1.350   .     S
C1050  C1129   1.517   .     S
C1052  H1084   1.083   .     S
C1052  C1059   1.400   .     A
C1052  C1061   1.393   .     A
C1053  C1056   1.452   .     S
C1053  C664    1.333   1_565 S
C1053  F682    1.362   1_565 S
C1054  C1055   1.436   .     S
C1055  O1100   1.280   .     A
C1055  O1094   1.280   .     A
C1056  O1095   1.270   .     A
C1056  O1101   1.270   .     A
C1057  O1090   1.275   .     A
C1057  O1092   1.271   .     A
C1057  C1060   1.452   .     S
C1058  O1091   1.284   .     A
C1058  C1059   1.473   .     S
C1058  O1093   1.286   .     A
C1059  C1063   1.398   .     A
C1061  C1066   1.407   .     A
C1061  F1074   1.358   .     S
C1062  H1088   1.110   .     S
C1062  H1087   1.111   .     S
C1062  H1077   1.110   .     S
C1063  H1085   1.076   .     S
C1063  C1065   1.408   .     A
C1064  H1078   1.109   .     S
C1064  H1079   1.111   .     S
C1064  H1080   1.111   .     S
C1065  C1067   1.426   .     A
C1065  C1066   1.417   .     A
C1066  C485    1.393   1_556 S
C1067  C483    1.421   1_556 S
C1068  C1069   1.422   .     A
C1069  C1070   1.389   .     A
C1069  F1075   1.356   .     S
C1070  H1076   1.084   .     S
F1071  C1116   1.361   .     S
H1081  C664    1.086   1_565 S
O1089  Zn1104  1.927   .     S
O1089  Zn1105  1.935   .     S
O1089  Zn1103  1.949   .     S
O1089  Zn1102  1.963   .     S
O1090  Zn1103  1.927   .     S
O1091  Zn1105  1.940   .     S
O1092  Zn1104  1.937   .     S
O1093  Zn1102  1.926   .     S
O1094  Zn1102  1.928   .     S
O1095  Zn1105  1.927   .     S
O1096  Zn1103  1.933   .     S
O1097  Zn1104  1.945   .     S
O1098  Zn1105  1.939   .     S
O1099  Zn1102  1.927   .     S
O1100  Zn1103  1.935   .     S
O1101  Zn1104  1.931   .     S
C1106  C1116   1.437   .     S
C1106  O1161   1.271   .     A
C1106  O1163   1.269   .     A
C1107  C1108   1.386   .     A
C1107  H1151   1.077   .     S
C1107  C1132   1.410   .     A
C1108  F1138   1.356   .     S
C1108  C525    1.408   1_556 S
C1109  O1162   1.281   .     A
C1109  O1164   1.279   .     A
C1109  C1115   1.467   .     S
C1110  C1111   1.430   .     A
C1110  C1112   1.428   .     A
C1111  C1114   1.407   .     A
C1111  C1133   1.429   .     A
C1112  C1127   1.510   .     S
C1112  C1113   1.399   .     A
C1113  H1148   1.084   .     S
C1113  C1125   1.389   .     A
C1114  H1147   1.078   .     S
C1114  C1125   1.386   .     A
C1115  C986    1.350   1_655 S
C1115  C999    1.517   1_655 S
C1117  H1149   1.083   .     S
C1117  C1124   1.400   .     A
C1117  C1126   1.393   .     A
C1118  C1121   1.452   .     S
C1118  C729    1.333   1_565 S
C1118  F747    1.362   1_565 S
C1119  C1120   1.436   .     S
C1120  O1165   1.280   .     A
C1120  O1159   1.280   .     A
C1121  O1160   1.270   .     A
C1121  O1166   1.270   .     A
C1122  O1155   1.275   .     A
C1122  O1157   1.271   .     A
C1122  C1125   1.452   .     S
C1123  O1156   1.284   .     A
C1123  C1124   1.473   .     S
C1123  O1158   1.286   .     A
C1124  C1128   1.398   .     A
C1126  C1131   1.407   .     A
C1126  F1139   1.358   .     S
C1127  H1153   1.110   .     S
C1127  H1152   1.111   .     S
C1127  H1142   1.110   .     S
C1128  H1150   1.076   .     S
C1128  C1130   1.408   .     A
C1129  H1143   1.109   .     S
C1129  H1144   1.111   .     S
C1129  H1145   1.111   .     S
C1130  C1132   1.426   .     A
C1130  C1131   1.417   .     A
C1131  C550    1.393   1_556 S
C1132  C548    1.421   1_556 S
C1133  C1134   1.422   .     A
C1134  C1135   1.389   .     A
C1134  F1140   1.356   .     S
C1135  H1141   1.084   .     S
F1136  C986    1.361   1_655 S
H1146  C729    1.086   1_565 S
O1154  Zn1169  1.927   .     S
O1154  Zn1170  1.935   .     S
O1154  Zn1168  1.949   .     S
O1154  Zn1167  1.963   .     S
O1155  Zn1168  1.927   .     S
O1156  Zn1170  1.940   .     S
O1157  Zn1169  1.937   .     S
O1158  Zn1167  1.926   .     S
O1159  Zn1167  1.928   .     S
O1160  Zn1170  1.927   .     S
O1161  Zn1168  1.933   .     S
O1162  Zn1169  1.945   .     S
O1163  Zn1170  1.939   .     S
O1164  Zn1167  1.927   .     S
O1165  Zn1168  1.935   .     S
O1166  Zn1169  1.931   .     S
