data_str_m1_o10_o18_pcu_sym.28
_audit_creation_date              2020-01-03
_audit_creation_method            'Materials Studio'
_symmetry_space_group_name_H-M    'P1'
_symmetry_Int_Tables_number       1
_symmetry_cell_setting            triclinic
loop_
_symmetry_equiv_pos_as_xyz
  x,y,z
_cell_length_a                    32.5528
_cell_length_b                    32.5677
_cell_length_c                    35.8794
_cell_angle_alpha                 98.0069
_cell_angle_beta                  72.8987
_cell_angle_gamma                 98.7985
loop_
_atom_site_label
_atom_site_type_symbol
_atom_site_fract_x
_atom_site_fract_y
_atom_site_fract_z
_atom_site_U_iso_or_equiv
_atom_site_adp_type
_atom_site_occupancy
C1     C     0.05255   0.16001   0.25860   0.00000  Uiso   1.00
C2     C     0.20629   0.13913   0.45975   0.00000  Uiso   1.00
C3     C     0.22674   0.11959   0.47996   0.00000  Uiso   1.00
C4     C     0.28109   0.17360   0.24114   0.00000  Uiso   1.00
C5     C     0.21649   0.12577   0.02058   0.00000  Uiso   1.00
C6     C     0.18528   0.15281   0.04181   0.00000  Uiso   1.00
C7     C     0.23763   0.10529   0.04019   0.00000  Uiso   1.00
C8     C     0.22826   0.11129   0.08078   0.00000  Uiso   1.00
C9     C     0.17582   0.15757   0.08301   0.00000  Uiso   1.00
C10    C     0.32716   0.17628   0.23745   0.00000  Uiso   1.00
C11    C     0.00713   0.15763   0.26197   0.00000  Uiso   1.00
C12    C     0.10956   0.22641   0.41969   0.00000  Uiso   1.00
C13    C     0.18191   0.32250   0.23737   0.00000  Uiso   1.00
C14    C     0.15211   0.01206   0.26157   0.00000  Uiso   1.00
C15    C     0.15528   0.05626   0.25942   0.00000  Uiso   1.00
C16    C     0.17710   0.27777   0.24118   0.00000  Uiso   1.00
C17    C     0.18845   0.14518   0.14417   0.00000  Uiso   1.00
C18    C     0.14555   0.18779   0.35603   0.00000  Uiso   1.00
C19    C     0.13738   0.19713   0.39869   0.00000  Uiso   1.00
C20    C     0.19734   0.13733   0.10199   0.00000  Uiso   1.00
C21    C     0.10249   0.23486   0.46003   0.00000  Uiso   1.00
C22    C     0.21989   0.00877   0.20666   0.00000  Uiso   1.00
C23    C     0.15815   0.17662   0.41841   0.00000  Uiso   1.00
C24    C     0.15258   0.18545   0.45902   0.00000  Uiso   1.00
C25    C     0.12356   0.21457   0.47982   0.00000  Uiso   1.00
C26    C     0.17450   0.16587   0.47953   0.00000  Uiso   1.00
C27    C     0.16482   0.17388   0.02114   0.00000  Uiso   1.00
C28    C     0.13554   0.20313   0.04058   0.00000  Uiso   1.00
C29    C     0.11568   0.22320   0.02019   0.00000  Uiso   1.00
H30    H     0.09367   0.24556   0.03629   0.00000  Uiso   1.00
H31    H     0.09312   0.24263   0.40502   0.00000  Uiso   1.00
H32    H     0.17796   0.15336   0.40130   0.00000  Uiso   1.00
H33    H     0.12764   0.21201   0.07165   0.00000  Uiso   1.00
H34    H     0.21714   0.13312   0.42837   0.00000  Uiso   1.00
H35    H     0.24149   0.31895   0.18907   0.00000  Uiso   1.00
H36    H     0.20788   0.02319   0.18619   0.00000  Uiso   1.00
H37    H     0.23955   0.03318   0.22107   0.00000  Uiso   1.00
H38    H     0.26164   0.08484   0.02405   0.00000  Uiso   1.00
H39    H     0.01700   0.19346   0.21473   0.00000  Uiso   1.00
H40    H     0.31793   0.14047   0.28500   0.00000  Uiso   1.00
H41    H     0.12468   0.33159   0.28348   0.00000  Uiso   1.00
H42    H     0.15198   0.17670   0.10146   0.00000  Uiso   1.00
H43    H     0.24512   0.09576   0.09566   0.00000  Uiso   1.00
H44    H     0.25093   0.09942   0.46354   0.00000  Uiso   1.00
H45    H     0.08052   0.25735   0.47579   0.00000  Uiso   1.00
O46    O     0.16667   0.16667   0.25000   0.00000  Uiso   1.00
O47    O     0.15693   0.12393   0.16625   0.00000  Uiso   1.00
O48    O     0.12687   0.20646   0.33749   0.00000  Uiso   1.00
O49    O     0.21088   0.17493   0.15877   0.00000  Uiso   1.00
O50    O     0.17198   0.16135   0.33749   0.00000  Uiso   1.00
O51    O     0.17849   0.08101   0.27820   0.00000  Uiso   1.00
O52    O     0.14581   0.26136   0.26767   0.00000  Uiso   1.00
O53    O     0.07452   0.13251   0.23607   0.00000  Uiso   1.00
O54    O     0.26785   0.19179   0.21805   0.00000  Uiso   1.00
O55    O     0.06990   0.18960   0.27820   0.00000  Uiso   1.00
O56    O     0.25440   0.15277   0.26767   0.00000  Uiso   1.00
O57    O     0.13800   0.06903   0.23607   0.00000  Uiso   1.00
O58    O     0.20437   0.25527   0.21805   0.00000  Uiso   1.00
Zn59   Zn    0.19244   0.14090   0.28277   0.00000  Uiso   1.00
Zn60   Zn    0.13459   0.12378   0.22257   0.00000  Uiso   1.00
Zn61   Zn    0.21166   0.19664   0.21188   0.00000  Uiso   1.00
Zn62   Zn    0.12798   0.20535   0.28277   0.00000  Uiso   1.00
C63    C     0.38589   0.16001   0.25860   0.00000  Uiso   1.00
C64    C     0.53963   0.13913   0.45975   0.00000  Uiso   1.00
C65    C     0.56008   0.11959   0.47996   0.00000  Uiso   1.00
C66    C     0.61442   0.17360   0.24114   0.00000  Uiso   1.00
C67    C     0.54983   0.12577   0.02058   0.00000  Uiso   1.00
C68    C     0.51862   0.15281   0.04181   0.00000  Uiso   1.00
C69    C     0.57097   0.10529   0.04019   0.00000  Uiso   1.00
C70    C     0.56160   0.11129   0.08078   0.00000  Uiso   1.00
C71    C     0.50916   0.15757   0.08301   0.00000  Uiso   1.00
C72    C     0.66049   0.17628   0.23745   0.00000  Uiso   1.00
C73    C     0.34046   0.15763   0.26197   0.00000  Uiso   1.00
C74    C     0.44290   0.22641   0.41969   0.00000  Uiso   1.00
C75    C     0.51525   0.32250   0.23737   0.00000  Uiso   1.00
C76    C     0.48545   0.01206   0.26157   0.00000  Uiso   1.00
C77    C     0.48861   0.05626   0.25942   0.00000  Uiso   1.00
C78    C     0.51043   0.27777   0.24118   0.00000  Uiso   1.00
C79    C     0.52178   0.14518   0.14417   0.00000  Uiso   1.00
C80    C     0.47888   0.18779   0.35603   0.00000  Uiso   1.00
C81    C     0.47071   0.19713   0.39869   0.00000  Uiso   1.00
C82    C     0.53068   0.13733   0.10199   0.00000  Uiso   1.00
C83    C     0.43583   0.23486   0.46003   0.00000  Uiso   1.00
C84    C     0.55322   0.00877   0.20666   0.00000  Uiso   1.00
C85    C     0.49148   0.17662   0.41841   0.00000  Uiso   1.00
C86    C     0.48591   0.18545   0.45902   0.00000  Uiso   1.00
C87    C     0.45690   0.21457   0.47982   0.00000  Uiso   1.00
C88    C     0.50783   0.16587   0.47953   0.00000  Uiso   1.00
C89    C     0.49815   0.17388   0.02114   0.00000  Uiso   1.00
C90    C     0.46888   0.20313   0.04058   0.00000  Uiso   1.00
C91    C     0.44902   0.22320   0.02019   0.00000  Uiso   1.00
H92    H     0.42701   0.24556   0.03629   0.00000  Uiso   1.00
H93    H     0.42645   0.24263   0.40502   0.00000  Uiso   1.00
H94    H     0.51129   0.15336   0.40130   0.00000  Uiso   1.00
H95    H     0.46097   0.21201   0.07165   0.00000  Uiso   1.00
H96    H     0.55047   0.13312   0.42837   0.00000  Uiso   1.00
H97    H     0.57482   0.31895   0.18907   0.00000  Uiso   1.00
H98    H     0.54122   0.02319   0.18619   0.00000  Uiso   1.00
H99    H     0.57288   0.03318   0.22107   0.00000  Uiso   1.00
H100   H     0.59497   0.08484   0.02405   0.00000  Uiso   1.00
H101   H     0.35033   0.19346   0.21473   0.00000  Uiso   1.00
H102   H     0.65126   0.14047   0.28500   0.00000  Uiso   1.00
H103   H     0.45802   0.33159   0.28348   0.00000  Uiso   1.00
H104   H     0.48532   0.17670   0.10146   0.00000  Uiso   1.00
H105   H     0.57845   0.09576   0.09566   0.00000  Uiso   1.00
H106   H     0.58426   0.09942   0.46354   0.00000  Uiso   1.00
H107   H     0.41385   0.25735   0.47579   0.00000  Uiso   1.00
O108   O     0.50000   0.16667   0.25000   0.00000  Uiso   1.00
O109   O     0.49027   0.12393   0.16625   0.00000  Uiso   1.00
O110   O     0.46020   0.20646   0.33749   0.00000  Uiso   1.00
O111   O     0.54421   0.17493   0.15877   0.00000  Uiso   1.00
O112   O     0.50532   0.16135   0.33749   0.00000  Uiso   1.00
O113   O     0.51182   0.08101   0.27820   0.00000  Uiso   1.00
O114   O     0.47914   0.26136   0.26767   0.00000  Uiso   1.00
O115   O     0.40785   0.13251   0.23607   0.00000  Uiso   1.00
O116   O     0.60119   0.19179   0.21805   0.00000  Uiso   1.00
O117   O     0.40323   0.18960   0.27820   0.00000  Uiso   1.00
O118   O     0.58773   0.15277   0.26767   0.00000  Uiso   1.00
O119   O     0.47133   0.06903   0.23607   0.00000  Uiso   1.00
O120   O     0.53771   0.25527   0.21805   0.00000  Uiso   1.00
Zn121  Zn    0.52577   0.14090   0.28277   0.00000  Uiso   1.00
Zn122  Zn    0.46792   0.12378   0.22257   0.00000  Uiso   1.00
Zn123  Zn    0.54500   0.19664   0.21188   0.00000  Uiso   1.00
Zn124  Zn    0.46131   0.20535   0.28277   0.00000  Uiso   1.00
C125   C     0.71922   0.16001   0.25860   0.00000  Uiso   1.00
C126   C     0.87296   0.13913   0.45975   0.00000  Uiso   1.00
C127   C     0.89341   0.11959   0.47996   0.00000  Uiso   1.00
C128   C     0.94776   0.17360   0.24114   0.00000  Uiso   1.00
C129   C     0.88316   0.12577   0.02058   0.00000  Uiso   1.00
C130   C     0.85195   0.15281   0.04181   0.00000  Uiso   1.00
C131   C     0.90430   0.10529   0.04019   0.00000  Uiso   1.00
C132   C     0.89493   0.11129   0.08078   0.00000  Uiso   1.00
C133   C     0.84249   0.15757   0.08301   0.00000  Uiso   1.00
C134   C     0.99383   0.17628   0.23745   0.00000  Uiso   1.00
C135   C     0.67380   0.15763   0.26197   0.00000  Uiso   1.00
C136   C     0.77623   0.22641   0.41969   0.00000  Uiso   1.00
C137   C     0.84858   0.32250   0.23737   0.00000  Uiso   1.00
C138   C     0.81878   0.01206   0.26157   0.00000  Uiso   1.00
C139   C     0.82194   0.05626   0.25942   0.00000  Uiso   1.00
C140   C     0.84377   0.27777   0.24118   0.00000  Uiso   1.00
C141   C     0.85511   0.14518   0.14417   0.00000  Uiso   1.00
C142   C     0.81222   0.18779   0.35603   0.00000  Uiso   1.00
C143   C     0.80405   0.19713   0.39869   0.00000  Uiso   1.00
C144   C     0.86401   0.13733   0.10199   0.00000  Uiso   1.00
C145   C     0.76916   0.23486   0.46003   0.00000  Uiso   1.00
C146   C     0.88655   0.00877   0.20666   0.00000  Uiso   1.00
C147   C     0.82481   0.17662   0.41841   0.00000  Uiso   1.00
C148   C     0.81924   0.18545   0.45902   0.00000  Uiso   1.00
C149   C     0.79023   0.21457   0.47982   0.00000  Uiso   1.00
C150   C     0.84116   0.16587   0.47953   0.00000  Uiso   1.00
C151   C     0.83149   0.17388   0.02114   0.00000  Uiso   1.00
C152   C     0.80221   0.20313   0.04058   0.00000  Uiso   1.00
C153   C     0.78235   0.22320   0.02019   0.00000  Uiso   1.00
H154   H     0.76034   0.24556   0.03629   0.00000  Uiso   1.00
H155   H     0.75978   0.24263   0.40502   0.00000  Uiso   1.00
H156   H     0.84463   0.15336   0.40130   0.00000  Uiso   1.00
H157   H     0.79431   0.21201   0.07165   0.00000  Uiso   1.00
H158   H     0.88380   0.13312   0.42837   0.00000  Uiso   1.00
H159   H     0.90816   0.31895   0.18907   0.00000  Uiso   1.00
H160   H     0.87455   0.02319   0.18619   0.00000  Uiso   1.00
H161   H     0.90621   0.03318   0.22107   0.00000  Uiso   1.00
H162   H     0.92831   0.08484   0.02405   0.00000  Uiso   1.00
H163   H     0.68366   0.19346   0.21473   0.00000  Uiso   1.00
H164   H     0.98459   0.14047   0.28500   0.00000  Uiso   1.00
H165   H     0.79135   0.33159   0.28348   0.00000  Uiso   1.00
H166   H     0.81865   0.17670   0.10146   0.00000  Uiso   1.00
H167   H     0.91178   0.09576   0.09566   0.00000  Uiso   1.00
H168   H     0.91759   0.09942   0.46354   0.00000  Uiso   1.00
H169   H     0.74718   0.25735   0.47579   0.00000  Uiso   1.00
O170   O     0.83333   0.16667   0.25000   0.00000  Uiso   1.00
O171   O     0.82360   0.12393   0.16625   0.00000  Uiso   1.00
O172   O     0.79354   0.20646   0.33749   0.00000  Uiso   1.00
O173   O     0.87755   0.17493   0.15877   0.00000  Uiso   1.00
O174   O     0.83865   0.16135   0.33749   0.00000  Uiso   1.00
O175   O     0.84515   0.08101   0.27820   0.00000  Uiso   1.00
O176   O     0.81247   0.26136   0.26767   0.00000  Uiso   1.00
O177   O     0.74119   0.13251   0.23607   0.00000  Uiso   1.00
O178   O     0.93452   0.19179   0.21805   0.00000  Uiso   1.00
O179   O     0.73656   0.18960   0.27820   0.00000  Uiso   1.00
O180   O     0.92106   0.15277   0.26767   0.00000  Uiso   1.00
O181   O     0.80467   0.06903   0.23607   0.00000  Uiso   1.00
O182   O     0.87104   0.25527   0.21805   0.00000  Uiso   1.00
Zn183  Zn    0.85910   0.14090   0.28277   0.00000  Uiso   1.00
Zn184  Zn    0.80125   0.12378   0.22257   0.00000  Uiso   1.00
Zn185  Zn    0.87833   0.19664   0.21188   0.00000  Uiso   1.00
Zn186  Zn    0.79465   0.20535   0.28277   0.00000  Uiso   1.00
C187   C     0.05255   0.49334   0.25860   0.00000  Uiso   1.00
C188   C     0.20629   0.47247   0.45975   0.00000  Uiso   1.00
C189   C     0.22674   0.45292   0.47996   0.00000  Uiso   1.00
C190   C     0.28109   0.50694   0.24114   0.00000  Uiso   1.00
C191   C     0.21649   0.45910   0.02058   0.00000  Uiso   1.00
C192   C     0.18528   0.48614   0.04181   0.00000  Uiso   1.00
C193   C     0.23763   0.43862   0.04019   0.00000  Uiso   1.00
C194   C     0.22826   0.44462   0.08078   0.00000  Uiso   1.00
C195   C     0.17582   0.49091   0.08301   0.00000  Uiso   1.00
C196   C     0.32716   0.50962   0.23745   0.00000  Uiso   1.00
C197   C     0.00713   0.49096   0.26197   0.00000  Uiso   1.00
C198   C     0.10956   0.55974   0.41969   0.00000  Uiso   1.00
C199   C     0.18191   0.65584   0.23737   0.00000  Uiso   1.00
C200   C     0.15211   0.34539   0.26157   0.00000  Uiso   1.00
C201   C     0.15528   0.38960   0.25942   0.00000  Uiso   1.00
C202   C     0.17710   0.61110   0.24118   0.00000  Uiso   1.00
C203   C     0.18845   0.47851   0.14417   0.00000  Uiso   1.00
C204   C     0.14555   0.52112   0.35603   0.00000  Uiso   1.00
C205   C     0.13738   0.53046   0.39869   0.00000  Uiso   1.00
C206   C     0.19734   0.47066   0.10199   0.00000  Uiso   1.00
C207   C     0.10249   0.56820   0.46003   0.00000  Uiso   1.00
C208   C     0.21989   0.34210   0.20666   0.00000  Uiso   1.00
C209   C     0.15815   0.50996   0.41841   0.00000  Uiso   1.00
C210   C     0.15258   0.51878   0.45902   0.00000  Uiso   1.00
C211   C     0.12356   0.54791   0.47982   0.00000  Uiso   1.00
C212   C     0.17450   0.49920   0.47953   0.00000  Uiso   1.00
C213   C     0.16482   0.50721   0.02114   0.00000  Uiso   1.00
C214   C     0.13554   0.53646   0.04058   0.00000  Uiso   1.00
C215   C     0.11568   0.55654   0.02019   0.00000  Uiso   1.00
H216   H     0.09367   0.57889   0.03629   0.00000  Uiso   1.00
H217   H     0.09312   0.57597   0.40502   0.00000  Uiso   1.00
H218   H     0.17796   0.48669   0.40130   0.00000  Uiso   1.00
H219   H     0.12764   0.54534   0.07165   0.00000  Uiso   1.00
H220   H     0.21714   0.46645   0.42837   0.00000  Uiso   1.00
H221   H     0.24149   0.65228   0.18907   0.00000  Uiso   1.00
H222   H     0.20788   0.35652   0.18619   0.00000  Uiso   1.00
H223   H     0.23955   0.36652   0.22107   0.00000  Uiso   1.00
H224   H     0.26164   0.41817   0.02405   0.00000  Uiso   1.00
H225   H     0.01700   0.52679   0.21473   0.00000  Uiso   1.00
H226   H     0.31793   0.47380   0.28500   0.00000  Uiso   1.00
H227   H     0.12468   0.66493   0.28348   0.00000  Uiso   1.00
H228   H     0.15198   0.51004   0.10146   0.00000  Uiso   1.00
H229   H     0.24512   0.42909   0.09566   0.00000  Uiso   1.00
H230   H     0.25093   0.43275   0.46354   0.00000  Uiso   1.00
H231   H     0.08052   0.59068   0.47579   0.00000  Uiso   1.00
O232   O     0.16667   0.50000   0.25000   0.00000  Uiso   1.00
O233   O     0.15693   0.45726   0.16625   0.00000  Uiso   1.00
O234   O     0.12687   0.53979   0.33749   0.00000  Uiso   1.00
O235   O     0.21088   0.50826   0.15877   0.00000  Uiso   1.00
O236   O     0.17198   0.49468   0.33749   0.00000  Uiso   1.00
O237   O     0.17849   0.41434   0.27820   0.00000  Uiso   1.00
O238   O     0.14581   0.59469   0.26767   0.00000  Uiso   1.00
O239   O     0.07452   0.46584   0.23607   0.00000  Uiso   1.00
O240   O     0.26785   0.52512   0.21805   0.00000  Uiso   1.00
O241   O     0.06990   0.52293   0.27820   0.00000  Uiso   1.00
O242   O     0.25440   0.48610   0.26767   0.00000  Uiso   1.00
O243   O     0.13800   0.40236   0.23607   0.00000  Uiso   1.00
O244   O     0.20437   0.58860   0.21805   0.00000  Uiso   1.00
Zn245  Zn    0.19244   0.47423   0.28277   0.00000  Uiso   1.00
Zn246  Zn    0.13459   0.45711   0.22257   0.00000  Uiso   1.00
Zn247  Zn    0.21166   0.52997   0.21188   0.00000  Uiso   1.00
Zn248  Zn    0.12798   0.53868   0.28277   0.00000  Uiso   1.00
C249   C     0.38589   0.49334   0.25860   0.00000  Uiso   1.00
C250   C     0.53963   0.47247   0.45975   0.00000  Uiso   1.00
C251   C     0.56008   0.45292   0.47996   0.00000  Uiso   1.00
C252   C     0.61442   0.50694   0.24114   0.00000  Uiso   1.00
C253   C     0.54983   0.45910   0.02058   0.00000  Uiso   1.00
C254   C     0.51862   0.48614   0.04181   0.00000  Uiso   1.00
C255   C     0.57097   0.43862   0.04019   0.00000  Uiso   1.00
C256   C     0.56160   0.44462   0.08078   0.00000  Uiso   1.00
C257   C     0.50916   0.49091   0.08301   0.00000  Uiso   1.00
C258   C     0.66049   0.50962   0.23745   0.00000  Uiso   1.00
C259   C     0.34046   0.49096   0.26197   0.00000  Uiso   1.00
C260   C     0.44290   0.55974   0.41969   0.00000  Uiso   1.00
C261   C     0.51525   0.65584   0.23737   0.00000  Uiso   1.00
C262   C     0.48545   0.34539   0.26157   0.00000  Uiso   1.00
C263   C     0.48861   0.38960   0.25942   0.00000  Uiso   1.00
C264   C     0.51043   0.61110   0.24118   0.00000  Uiso   1.00
C265   C     0.52178   0.47851   0.14417   0.00000  Uiso   1.00
C266   C     0.47888   0.52112   0.35603   0.00000  Uiso   1.00
C267   C     0.47071   0.53046   0.39869   0.00000  Uiso   1.00
C268   C     0.53068   0.47066   0.10199   0.00000  Uiso   1.00
C269   C     0.43583   0.56820   0.46003   0.00000  Uiso   1.00
C270   C     0.55322   0.34210   0.20666   0.00000  Uiso   1.00
C271   C     0.49148   0.50996   0.41841   0.00000  Uiso   1.00
C272   C     0.48591   0.51878   0.45902   0.00000  Uiso   1.00
C273   C     0.45690   0.54791   0.47982   0.00000  Uiso   1.00
C274   C     0.50783   0.49920   0.47953   0.00000  Uiso   1.00
C275   C     0.49815   0.50721   0.02114   0.00000  Uiso   1.00
C276   C     0.46888   0.53646   0.04058   0.00000  Uiso   1.00
C277   C     0.44902   0.55654   0.02019   0.00000  Uiso   1.00
H278   H     0.42701   0.57889   0.03629   0.00000  Uiso   1.00
H279   H     0.42645   0.57597   0.40502   0.00000  Uiso   1.00
H280   H     0.51129   0.48669   0.40130   0.00000  Uiso   1.00
H281   H     0.46097   0.54534   0.07165   0.00000  Uiso   1.00
H282   H     0.55047   0.46645   0.42837   0.00000  Uiso   1.00
H283   H     0.57482   0.65228   0.18907   0.00000  Uiso   1.00
H284   H     0.54122   0.35652   0.18619   0.00000  Uiso   1.00
H285   H     0.57288   0.36652   0.22107   0.00000  Uiso   1.00
H286   H     0.59497   0.41817   0.02405   0.00000  Uiso   1.00
H287   H     0.35033   0.52679   0.21473   0.00000  Uiso   1.00
H288   H     0.65126   0.47380   0.28500   0.00000  Uiso   1.00
H289   H     0.45802   0.66493   0.28348   0.00000  Uiso   1.00
H290   H     0.48532   0.51004   0.10146   0.00000  Uiso   1.00
H291   H     0.57845   0.42909   0.09566   0.00000  Uiso   1.00
H292   H     0.58426   0.43275   0.46354   0.00000  Uiso   1.00
H293   H     0.41385   0.59068   0.47579   0.00000  Uiso   1.00
O294   O     0.50000   0.50000   0.25000   0.00000  Uiso   1.00
O295   O     0.49027   0.45726   0.16625   0.00000  Uiso   1.00
O296   O     0.46020   0.53979   0.33749   0.00000  Uiso   1.00
O297   O     0.54421   0.50826   0.15877   0.00000  Uiso   1.00
O298   O     0.50532   0.49468   0.33749   0.00000  Uiso   1.00
O299   O     0.51182   0.41434   0.27820   0.00000  Uiso   1.00
O300   O     0.47914   0.59469   0.26767   0.00000  Uiso   1.00
O301   O     0.40785   0.46584   0.23607   0.00000  Uiso   1.00
O302   O     0.60119   0.52512   0.21805   0.00000  Uiso   1.00
O303   O     0.40323   0.52293   0.27820   0.00000  Uiso   1.00
O304   O     0.58773   0.48610   0.26767   0.00000  Uiso   1.00
O305   O     0.47133   0.40236   0.23607   0.00000  Uiso   1.00
O306   O     0.53771   0.58860   0.21805   0.00000  Uiso   1.00
Zn307  Zn    0.52577   0.47423   0.28277   0.00000  Uiso   1.00
Zn308  Zn    0.46792   0.45711   0.22257   0.00000  Uiso   1.00
Zn309  Zn    0.54500   0.52997   0.21188   0.00000  Uiso   1.00
Zn310  Zn    0.46131   0.53868   0.28277   0.00000  Uiso   1.00
C311   C     0.71922   0.49334   0.25860   0.00000  Uiso   1.00
C312   C     0.87296   0.47247   0.45975   0.00000  Uiso   1.00
C313   C     0.89341   0.45292   0.47996   0.00000  Uiso   1.00
C314   C     0.94776   0.50694   0.24114   0.00000  Uiso   1.00
C315   C     0.88316   0.45910   0.02058   0.00000  Uiso   1.00
C316   C     0.85195   0.48614   0.04181   0.00000  Uiso   1.00
C317   C     0.90430   0.43862   0.04019   0.00000  Uiso   1.00
C318   C     0.89493   0.44462   0.08078   0.00000  Uiso   1.00
C319   C     0.84249   0.49091   0.08301   0.00000  Uiso   1.00
C320   C     0.99383   0.50962   0.23745   0.00000  Uiso   1.00
C321   C     0.67380   0.49096   0.26197   0.00000  Uiso   1.00
C322   C     0.77623   0.55974   0.41969   0.00000  Uiso   1.00
C323   C     0.84858   0.65584   0.23737   0.00000  Uiso   1.00
C324   C     0.81878   0.34539   0.26157   0.00000  Uiso   1.00
C325   C     0.82194   0.38960   0.25942   0.00000  Uiso   1.00
C326   C     0.84377   0.61110   0.24118   0.00000  Uiso   1.00
C327   C     0.85511   0.47851   0.14417   0.00000  Uiso   1.00
C328   C     0.81222   0.52112   0.35603   0.00000  Uiso   1.00
C329   C     0.80405   0.53046   0.39869   0.00000  Uiso   1.00
C330   C     0.86401   0.47066   0.10199   0.00000  Uiso   1.00
C331   C     0.76916   0.56820   0.46003   0.00000  Uiso   1.00
C332   C     0.88655   0.34210   0.20666   0.00000  Uiso   1.00
C333   C     0.82481   0.50996   0.41841   0.00000  Uiso   1.00
C334   C     0.81924   0.51878   0.45902   0.00000  Uiso   1.00
C335   C     0.79023   0.54791   0.47982   0.00000  Uiso   1.00
C336   C     0.84116   0.49920   0.47953   0.00000  Uiso   1.00
C337   C     0.83149   0.50721   0.02114   0.00000  Uiso   1.00
C338   C     0.80221   0.53646   0.04058   0.00000  Uiso   1.00
C339   C     0.78235   0.55654   0.02019   0.00000  Uiso   1.00
H340   H     0.76034   0.57889   0.03629   0.00000  Uiso   1.00
H341   H     0.75978   0.57597   0.40502   0.00000  Uiso   1.00
H342   H     0.84463   0.48669   0.40130   0.00000  Uiso   1.00
H343   H     0.79431   0.54534   0.07165   0.00000  Uiso   1.00
H344   H     0.88380   0.46645   0.42837   0.00000  Uiso   1.00
H345   H     0.90816   0.65228   0.18907   0.00000  Uiso   1.00
H346   H     0.87455   0.35652   0.18619   0.00000  Uiso   1.00
H347   H     0.90621   0.36652   0.22107   0.00000  Uiso   1.00
H348   H     0.92831   0.41817   0.02405   0.00000  Uiso   1.00
H349   H     0.68366   0.52679   0.21473   0.00000  Uiso   1.00
H350   H     0.98459   0.47380   0.28500   0.00000  Uiso   1.00
H351   H     0.79135   0.66493   0.28348   0.00000  Uiso   1.00
H352   H     0.81865   0.51004   0.10146   0.00000  Uiso   1.00
H353   H     0.91178   0.42909   0.09566   0.00000  Uiso   1.00
H354   H     0.91759   0.43275   0.46354   0.00000  Uiso   1.00
H355   H     0.74718   0.59068   0.47579   0.00000  Uiso   1.00
O356   O     0.83333   0.50000   0.25000   0.00000  Uiso   1.00
O357   O     0.82360   0.45726   0.16625   0.00000  Uiso   1.00
O358   O     0.79354   0.53979   0.33749   0.00000  Uiso   1.00
O359   O     0.87755   0.50826   0.15877   0.00000  Uiso   1.00
O360   O     0.83865   0.49468   0.33749   0.00000  Uiso   1.00
O361   O     0.84515   0.41434   0.27820   0.00000  Uiso   1.00
O362   O     0.81247   0.59469   0.26767   0.00000  Uiso   1.00
O363   O     0.74119   0.46584   0.23607   0.00000  Uiso   1.00
O364   O     0.93452   0.52512   0.21805   0.00000  Uiso   1.00
O365   O     0.73656   0.52293   0.27820   0.00000  Uiso   1.00
O366   O     0.92106   0.48610   0.26767   0.00000  Uiso   1.00
O367   O     0.80467   0.40236   0.23607   0.00000  Uiso   1.00
O368   O     0.87104   0.58860   0.21805   0.00000  Uiso   1.00
Zn369  Zn    0.85910   0.47423   0.28277   0.00000  Uiso   1.00
Zn370  Zn    0.80125   0.45711   0.22257   0.00000  Uiso   1.00
Zn371  Zn    0.87833   0.52997   0.21188   0.00000  Uiso   1.00
Zn372  Zn    0.79465   0.53868   0.28277   0.00000  Uiso   1.00
C373   C     0.05255   0.82667   0.25860   0.00000  Uiso   1.00
C374   C     0.20629   0.80580   0.45975   0.00000  Uiso   1.00
C375   C     0.22674   0.78626   0.47996   0.00000  Uiso   1.00
C376   C     0.28109   0.84027   0.24114   0.00000  Uiso   1.00
C377   C     0.21649   0.79244   0.02058   0.00000  Uiso   1.00
C378   C     0.18528   0.81948   0.04181   0.00000  Uiso   1.00
C379   C     0.23763   0.77195   0.04019   0.00000  Uiso   1.00
C380   C     0.22826   0.77795   0.08078   0.00000  Uiso   1.00
C381   C     0.17582   0.82424   0.08301   0.00000  Uiso   1.00
C382   C     0.32716   0.84295   0.23745   0.00000  Uiso   1.00
C383   C     0.00713   0.82430   0.26197   0.00000  Uiso   1.00
C384   C     0.10956   0.89308   0.41969   0.00000  Uiso   1.00
C385   C     0.18191   0.98917   0.23737   0.00000  Uiso   1.00
C386   C     0.15211   0.67872   0.26157   0.00000  Uiso   1.00
C387   C     0.15528   0.72293   0.25942   0.00000  Uiso   1.00
C388   C     0.17710   0.94444   0.24118   0.00000  Uiso   1.00
C389   C     0.18845   0.81185   0.14417   0.00000  Uiso   1.00
C390   C     0.14555   0.85445   0.35603   0.00000  Uiso   1.00
C391   C     0.13738   0.86379   0.39869   0.00000  Uiso   1.00
C392   C     0.19734   0.80399   0.10199   0.00000  Uiso   1.00
C393   C     0.10249   0.90153   0.46003   0.00000  Uiso   1.00
C394   C     0.21989   0.67544   0.20666   0.00000  Uiso   1.00
C395   C     0.15815   0.84329   0.41841   0.00000  Uiso   1.00
C396   C     0.15258   0.85211   0.45902   0.00000  Uiso   1.00
C397   C     0.12356   0.88124   0.47982   0.00000  Uiso   1.00
C398   C     0.17450   0.83254   0.47953   0.00000  Uiso   1.00
C399   C     0.16482   0.84055   0.02114   0.00000  Uiso   1.00
C400   C     0.13554   0.86980   0.04058   0.00000  Uiso   1.00
C401   C     0.11568   0.88987   0.02019   0.00000  Uiso   1.00
H402   H     0.09367   0.91222   0.03629   0.00000  Uiso   1.00
H403   H     0.09312   0.90930   0.40502   0.00000  Uiso   1.00
H404   H     0.17796   0.82003   0.40130   0.00000  Uiso   1.00
H405   H     0.12764   0.87867   0.07165   0.00000  Uiso   1.00
H406   H     0.21714   0.79979   0.42837   0.00000  Uiso   1.00
H407   H     0.24149   0.98562   0.18907   0.00000  Uiso   1.00
H408   H     0.20788   0.68986   0.18619   0.00000  Uiso   1.00
H409   H     0.23955   0.69985   0.22107   0.00000  Uiso   1.00
H410   H     0.26164   0.75151   0.02405   0.00000  Uiso   1.00
H411   H     0.01700   0.86012   0.21473   0.00000  Uiso   1.00
H412   H     0.31793   0.80714   0.28500   0.00000  Uiso   1.00
H413   H     0.12468   0.99826   0.28348   0.00000  Uiso   1.00
H414   H     0.15198   0.84337   0.10146   0.00000  Uiso   1.00
H415   H     0.24512   0.76242   0.09566   0.00000  Uiso   1.00
H416   H     0.25093   0.76608   0.46354   0.00000  Uiso   1.00
H417   H     0.08052   0.92402   0.47579   0.00000  Uiso   1.00
O418   O     0.16667   0.83333   0.25000   0.00000  Uiso   1.00
O419   O     0.15693   0.79060   0.16625   0.00000  Uiso   1.00
O420   O     0.12687   0.87313   0.33749   0.00000  Uiso   1.00
O421   O     0.21088   0.84159   0.15877   0.00000  Uiso   1.00
O422   O     0.17198   0.82802   0.33749   0.00000  Uiso   1.00
O423   O     0.17849   0.74768   0.27820   0.00000  Uiso   1.00
O424   O     0.14581   0.92803   0.26767   0.00000  Uiso   1.00
O425   O     0.07452   0.79917   0.23607   0.00000  Uiso   1.00
O426   O     0.26785   0.85845   0.21805   0.00000  Uiso   1.00
O427   O     0.06990   0.85627   0.27820   0.00000  Uiso   1.00
O428   O     0.25440   0.81944   0.26767   0.00000  Uiso   1.00
O429   O     0.13800   0.73570   0.23607   0.00000  Uiso   1.00
O430   O     0.20437   0.92193   0.21805   0.00000  Uiso   1.00
Zn431  Zn    0.19244   0.80756   0.28277   0.00000  Uiso   1.00
Zn432  Zn    0.13459   0.79044   0.22257   0.00000  Uiso   1.00
Zn433  Zn    0.21166   0.86331   0.21188   0.00000  Uiso   1.00
Zn434  Zn    0.12798   0.87202   0.28277   0.00000  Uiso   1.00
C435   C     0.38589   0.82667   0.25860   0.00000  Uiso   1.00
C436   C     0.53963   0.80580   0.45975   0.00000  Uiso   1.00
C437   C     0.56008   0.78626   0.47996   0.00000  Uiso   1.00
C438   C     0.61442   0.84027   0.24114   0.00000  Uiso   1.00
C439   C     0.54983   0.79244   0.02058   0.00000  Uiso   1.00
C440   C     0.51862   0.81948   0.04181   0.00000  Uiso   1.00
C441   C     0.57097   0.77195   0.04019   0.00000  Uiso   1.00
C442   C     0.56160   0.77795   0.08078   0.00000  Uiso   1.00
C443   C     0.50916   0.82424   0.08301   0.00000  Uiso   1.00
C444   C     0.66049   0.84295   0.23745   0.00000  Uiso   1.00
C445   C     0.34046   0.82430   0.26197   0.00000  Uiso   1.00
C446   C     0.44290   0.89308   0.41969   0.00000  Uiso   1.00
C447   C     0.51525   0.98917   0.23737   0.00000  Uiso   1.00
C448   C     0.48545   0.67872   0.26157   0.00000  Uiso   1.00
C449   C     0.48861   0.72293   0.25942   0.00000  Uiso   1.00
C450   C     0.51043   0.94444   0.24118   0.00000  Uiso   1.00
C451   C     0.52178   0.81185   0.14417   0.00000  Uiso   1.00
C452   C     0.47888   0.85445   0.35603   0.00000  Uiso   1.00
C453   C     0.47071   0.86379   0.39869   0.00000  Uiso   1.00
C454   C     0.53068   0.80399   0.10199   0.00000  Uiso   1.00
C455   C     0.43583   0.90153   0.46003   0.00000  Uiso   1.00
C456   C     0.55322   0.67544   0.20666   0.00000  Uiso   1.00
C457   C     0.49148   0.84329   0.41841   0.00000  Uiso   1.00
C458   C     0.48591   0.85211   0.45902   0.00000  Uiso   1.00
C459   C     0.45690   0.88124   0.47982   0.00000  Uiso   1.00
C460   C     0.50783   0.83254   0.47953   0.00000  Uiso   1.00
C461   C     0.49815   0.84055   0.02114   0.00000  Uiso   1.00
C462   C     0.46888   0.86980   0.04058   0.00000  Uiso   1.00
C463   C     0.44902   0.88987   0.02019   0.00000  Uiso   1.00
H464   H     0.42701   0.91222   0.03629   0.00000  Uiso   1.00
H465   H     0.42645   0.90930   0.40502   0.00000  Uiso   1.00
H466   H     0.51129   0.82003   0.40130   0.00000  Uiso   1.00
H467   H     0.46097   0.87867   0.07165   0.00000  Uiso   1.00
H468   H     0.55047   0.79979   0.42837   0.00000  Uiso   1.00
H469   H     0.57482   0.98562   0.18907   0.00000  Uiso   1.00
H470   H     0.54122   0.68986   0.18619   0.00000  Uiso   1.00
H471   H     0.57288   0.69985   0.22107   0.00000  Uiso   1.00
H472   H     0.59497   0.75151   0.02405   0.00000  Uiso   1.00
H473   H     0.35033   0.86012   0.21473   0.00000  Uiso   1.00
H474   H     0.65126   0.80714   0.28500   0.00000  Uiso   1.00
H475   H     0.45802   0.99826   0.28348   0.00000  Uiso   1.00
H476   H     0.48532   0.84337   0.10146   0.00000  Uiso   1.00
H477   H     0.57845   0.76242   0.09566   0.00000  Uiso   1.00
H478   H     0.58426   0.76608   0.46354   0.00000  Uiso   1.00
H479   H     0.41385   0.92402   0.47579   0.00000  Uiso   1.00
O480   O     0.50000   0.83333   0.25000   0.00000  Uiso   1.00
O481   O     0.49027   0.79060   0.16625   0.00000  Uiso   1.00
O482   O     0.46020   0.87313   0.33749   0.00000  Uiso   1.00
O483   O     0.54421   0.84159   0.15877   0.00000  Uiso   1.00
O484   O     0.50532   0.82802   0.33749   0.00000  Uiso   1.00
O485   O     0.51182   0.74768   0.27820   0.00000  Uiso   1.00
O486   O     0.47914   0.92803   0.26767   0.00000  Uiso   1.00
O487   O     0.40785   0.79917   0.23607   0.00000  Uiso   1.00
O488   O     0.60119   0.85845   0.21805   0.00000  Uiso   1.00
O489   O     0.40323   0.85627   0.27820   0.00000  Uiso   1.00
O490   O     0.58773   0.81944   0.26767   0.00000  Uiso   1.00
O491   O     0.47133   0.73570   0.23607   0.00000  Uiso   1.00
O492   O     0.53771   0.92193   0.21805   0.00000  Uiso   1.00
Zn493  Zn    0.52577   0.80756   0.28277   0.00000  Uiso   1.00
Zn494  Zn    0.46792   0.79044   0.22257   0.00000  Uiso   1.00
Zn495  Zn    0.54500   0.86331   0.21188   0.00000  Uiso   1.00
Zn496  Zn    0.46131   0.87202   0.28277   0.00000  Uiso   1.00
C497   C     0.71922   0.82667   0.25860   0.00000  Uiso   1.00
C498   C     0.87296   0.80580   0.45975   0.00000  Uiso   1.00
C499   C     0.89341   0.78626   0.47996   0.00000  Uiso   1.00
C500   C     0.94776   0.84027   0.24114   0.00000  Uiso   1.00
C501   C     0.88316   0.79244   0.02058   0.00000  Uiso   1.00
C502   C     0.85195   0.81948   0.04181   0.00000  Uiso   1.00
C503   C     0.90430   0.77195   0.04019   0.00000  Uiso   1.00
C504   C     0.89493   0.77795   0.08078   0.00000  Uiso   1.00
C505   C     0.84249   0.82424   0.08301   0.00000  Uiso   1.00
C506   C     0.99383   0.84295   0.23745   0.00000  Uiso   1.00
C507   C     0.67380   0.82430   0.26197   0.00000  Uiso   1.00
C508   C     0.77623   0.89308   0.41969   0.00000  Uiso   1.00
C509   C     0.84858   0.98917   0.23737   0.00000  Uiso   1.00
C510   C     0.81878   0.67872   0.26157   0.00000  Uiso   1.00
C511   C     0.82194   0.72293   0.25942   0.00000  Uiso   1.00
C512   C     0.84377   0.94444   0.24118   0.00000  Uiso   1.00
C513   C     0.85511   0.81185   0.14417   0.00000  Uiso   1.00
C514   C     0.81222   0.85445   0.35603   0.00000  Uiso   1.00
C515   C     0.80405   0.86379   0.39869   0.00000  Uiso   1.00
C516   C     0.86401   0.80399   0.10199   0.00000  Uiso   1.00
C517   C     0.76916   0.90153   0.46003   0.00000  Uiso   1.00
C518   C     0.88655   0.67544   0.20666   0.00000  Uiso   1.00
C519   C     0.82481   0.84329   0.41841   0.00000  Uiso   1.00
C520   C     0.81924   0.85211   0.45902   0.00000  Uiso   1.00
C521   C     0.79023   0.88124   0.47982   0.00000  Uiso   1.00
C522   C     0.84116   0.83254   0.47953   0.00000  Uiso   1.00
C523   C     0.83149   0.84055   0.02114   0.00000  Uiso   1.00
C524   C     0.80221   0.86980   0.04058   0.00000  Uiso   1.00
C525   C     0.78235   0.88987   0.02019   0.00000  Uiso   1.00
H526   H     0.76034   0.91222   0.03629   0.00000  Uiso   1.00
H527   H     0.75978   0.90930   0.40502   0.00000  Uiso   1.00
H528   H     0.84463   0.82003   0.40130   0.00000  Uiso   1.00
H529   H     0.79431   0.87867   0.07165   0.00000  Uiso   1.00
H530   H     0.88380   0.79979   0.42837   0.00000  Uiso   1.00
H531   H     0.90816   0.98562   0.18907   0.00000  Uiso   1.00
H532   H     0.87455   0.68986   0.18619   0.00000  Uiso   1.00
H533   H     0.90621   0.69985   0.22107   0.00000  Uiso   1.00
H534   H     0.92831   0.75151   0.02405   0.00000  Uiso   1.00
H535   H     0.68366   0.86012   0.21473   0.00000  Uiso   1.00
H536   H     0.98459   0.80714   0.28500   0.00000  Uiso   1.00
H537   H     0.79135   0.99826   0.28348   0.00000  Uiso   1.00
H538   H     0.81865   0.84337   0.10146   0.00000  Uiso   1.00
H539   H     0.91178   0.76242   0.09566   0.00000  Uiso   1.00
H540   H     0.91759   0.76608   0.46354   0.00000  Uiso   1.00
H541   H     0.74718   0.92402   0.47579   0.00000  Uiso   1.00
O542   O     0.83333   0.83333   0.25000   0.00000  Uiso   1.00
O543   O     0.82360   0.79060   0.16625   0.00000  Uiso   1.00
O544   O     0.79354   0.87313   0.33749   0.00000  Uiso   1.00
O545   O     0.87755   0.84159   0.15877   0.00000  Uiso   1.00
O546   O     0.83865   0.82802   0.33749   0.00000  Uiso   1.00
O547   O     0.84515   0.74768   0.27820   0.00000  Uiso   1.00
O548   O     0.81247   0.92803   0.26767   0.00000  Uiso   1.00
O549   O     0.74119   0.79917   0.23607   0.00000  Uiso   1.00
O550   O     0.93452   0.85845   0.21805   0.00000  Uiso   1.00
O551   O     0.73656   0.85627   0.27820   0.00000  Uiso   1.00
O552   O     0.92106   0.81944   0.26767   0.00000  Uiso   1.00
O553   O     0.80467   0.73570   0.23607   0.00000  Uiso   1.00
O554   O     0.87104   0.92193   0.21805   0.00000  Uiso   1.00
Zn555  Zn    0.85910   0.80756   0.28277   0.00000  Uiso   1.00
Zn556  Zn    0.80125   0.79044   0.22257   0.00000  Uiso   1.00
Zn557  Zn    0.87833   0.86331   0.21188   0.00000  Uiso   1.00
Zn558  Zn    0.79465   0.87202   0.28277   0.00000  Uiso   1.00
C559   C     0.05255   0.16001   0.75860   0.00000  Uiso   1.00
C560   C     0.20629   0.13913   0.95975   0.00000  Uiso   1.00
C561   C     0.22674   0.11959   0.97996   0.00000  Uiso   1.00
C562   C     0.28109   0.17360   0.74114   0.00000  Uiso   1.00
C563   C     0.21649   0.12577   0.52058   0.00000  Uiso   1.00
C564   C     0.18528   0.15281   0.54181   0.00000  Uiso   1.00
C565   C     0.23763   0.10529   0.54019   0.00000  Uiso   1.00
C566   C     0.22826   0.11129   0.58078   0.00000  Uiso   1.00
C567   C     0.17582   0.15757   0.58301   0.00000  Uiso   1.00
C568   C     0.32716   0.17628   0.73745   0.00000  Uiso   1.00
C569   C     0.00713   0.15763   0.76197   0.00000  Uiso   1.00
C570   C     0.10956   0.22641   0.91969   0.00000  Uiso   1.00
C571   C     0.18191   0.32250   0.73737   0.00000  Uiso   1.00
C572   C     0.15211   0.01206   0.76157   0.00000  Uiso   1.00
C573   C     0.15528   0.05626   0.75942   0.00000  Uiso   1.00
C574   C     0.17710   0.27777   0.74118   0.00000  Uiso   1.00
C575   C     0.18845   0.14518   0.64417   0.00000  Uiso   1.00
C576   C     0.14555   0.18779   0.85603   0.00000  Uiso   1.00
C577   C     0.13738   0.19713   0.89869   0.00000  Uiso   1.00
C578   C     0.19734   0.13733   0.60199   0.00000  Uiso   1.00
C579   C     0.10249   0.23486   0.96003   0.00000  Uiso   1.00
C580   C     0.21989   0.00877   0.70666   0.00000  Uiso   1.00
C581   C     0.15815   0.17662   0.91841   0.00000  Uiso   1.00
C582   C     0.15258   0.18545   0.95902   0.00000  Uiso   1.00
C583   C     0.12356   0.21457   0.97982   0.00000  Uiso   1.00
C584   C     0.17450   0.16587   0.97953   0.00000  Uiso   1.00
C585   C     0.16482   0.17388   0.52114   0.00000  Uiso   1.00
C586   C     0.13554   0.20313   0.54058   0.00000  Uiso   1.00
C587   C     0.11568   0.22320   0.52019   0.00000  Uiso   1.00
H588   H     0.09367   0.24556   0.53629   0.00000  Uiso   1.00
H589   H     0.09312   0.24263   0.90502   0.00000  Uiso   1.00
H590   H     0.17796   0.15336   0.90130   0.00000  Uiso   1.00
H591   H     0.12764   0.21201   0.57165   0.00000  Uiso   1.00
H592   H     0.21714   0.13312   0.92837   0.00000  Uiso   1.00
H593   H     0.24149   0.31895   0.68907   0.00000  Uiso   1.00
H594   H     0.20788   0.02319   0.68619   0.00000  Uiso   1.00
H595   H     0.23955   0.03318   0.72107   0.00000  Uiso   1.00
H596   H     0.26164   0.08484   0.52405   0.00000  Uiso   1.00
H597   H     0.01700   0.19346   0.71473   0.00000  Uiso   1.00
H598   H     0.31793   0.14047   0.78500   0.00000  Uiso   1.00
H599   H     0.12468   0.33159   0.78348   0.00000  Uiso   1.00
H600   H     0.15198   0.17670   0.60146   0.00000  Uiso   1.00
H601   H     0.24512   0.09576   0.59566   0.00000  Uiso   1.00
H602   H     0.25093   0.09942   0.96354   0.00000  Uiso   1.00
H603   H     0.08052   0.25735   0.97579   0.00000  Uiso   1.00
O604   O     0.16667   0.16667   0.75000   0.00000  Uiso   1.00
O605   O     0.15693   0.12393   0.66625   0.00000  Uiso   1.00
O606   O     0.12687   0.20646   0.83749   0.00000  Uiso   1.00
O607   O     0.21088   0.17493   0.65877   0.00000  Uiso   1.00
O608   O     0.17198   0.16135   0.83749   0.00000  Uiso   1.00
O609   O     0.17849   0.08101   0.77820   0.00000  Uiso   1.00
O610   O     0.14581   0.26136   0.76767   0.00000  Uiso   1.00
O611   O     0.07452   0.13251   0.73607   0.00000  Uiso   1.00
O612   O     0.26785   0.19179   0.71805   0.00000  Uiso   1.00
O613   O     0.06990   0.18960   0.77820   0.00000  Uiso   1.00
O614   O     0.25440   0.15277   0.76767   0.00000  Uiso   1.00
O615   O     0.13800   0.06903   0.73607   0.00000  Uiso   1.00
O616   O     0.20437   0.25527   0.71805   0.00000  Uiso   1.00
Zn617  Zn    0.19244   0.14090   0.78277   0.00000  Uiso   1.00
Zn618  Zn    0.13459   0.12378   0.72257   0.00000  Uiso   1.00
Zn619  Zn    0.21166   0.19664   0.71188   0.00000  Uiso   1.00
Zn620  Zn    0.12798   0.20535   0.78277   0.00000  Uiso   1.00
C621   C     0.38589   0.16001   0.75860   0.00000  Uiso   1.00
C622   C     0.53963   0.13913   0.95975   0.00000  Uiso   1.00
C623   C     0.56008   0.11959   0.97996   0.00000  Uiso   1.00
C624   C     0.61442   0.17360   0.74114   0.00000  Uiso   1.00
C625   C     0.54983   0.12577   0.52058   0.00000  Uiso   1.00
C626   C     0.51862   0.15281   0.54181   0.00000  Uiso   1.00
C627   C     0.57097   0.10529   0.54019   0.00000  Uiso   1.00
C628   C     0.56160   0.11129   0.58078   0.00000  Uiso   1.00
C629   C     0.50916   0.15757   0.58301   0.00000  Uiso   1.00
C630   C     0.66049   0.17628   0.73745   0.00000  Uiso   1.00
C631   C     0.34046   0.15763   0.76197   0.00000  Uiso   1.00
C632   C     0.44290   0.22641   0.91969   0.00000  Uiso   1.00
C633   C     0.51525   0.32250   0.73737   0.00000  Uiso   1.00
C634   C     0.48545   0.01206   0.76157   0.00000  Uiso   1.00
C635   C     0.48861   0.05626   0.75942   0.00000  Uiso   1.00
C636   C     0.51043   0.27777   0.74118   0.00000  Uiso   1.00
C637   C     0.52178   0.14518   0.64417   0.00000  Uiso   1.00
C638   C     0.47888   0.18779   0.85603   0.00000  Uiso   1.00
C639   C     0.47071   0.19713   0.89869   0.00000  Uiso   1.00
C640   C     0.53068   0.13733   0.60199   0.00000  Uiso   1.00
C641   C     0.43583   0.23486   0.96003   0.00000  Uiso   1.00
C642   C     0.55322   0.00877   0.70666   0.00000  Uiso   1.00
C643   C     0.49148   0.17662   0.91841   0.00000  Uiso   1.00
C644   C     0.48591   0.18545   0.95902   0.00000  Uiso   1.00
C645   C     0.45690   0.21457   0.97982   0.00000  Uiso   1.00
C646   C     0.50783   0.16587   0.97953   0.00000  Uiso   1.00
C647   C     0.49815   0.17388   0.52114   0.00000  Uiso   1.00
C648   C     0.46888   0.20313   0.54058   0.00000  Uiso   1.00
C649   C     0.44902   0.22320   0.52019   0.00000  Uiso   1.00
H650   H     0.42701   0.24556   0.53629   0.00000  Uiso   1.00
H651   H     0.42645   0.24263   0.90502   0.00000  Uiso   1.00
H652   H     0.51129   0.15336   0.90130   0.00000  Uiso   1.00
H653   H     0.46097   0.21201   0.57165   0.00000  Uiso   1.00
H654   H     0.55047   0.13312   0.92837   0.00000  Uiso   1.00
H655   H     0.57482   0.31895   0.68907   0.00000  Uiso   1.00
H656   H     0.54122   0.02319   0.68619   0.00000  Uiso   1.00
H657   H     0.57288   0.03318   0.72107   0.00000  Uiso   1.00
H658   H     0.59497   0.08484   0.52405   0.00000  Uiso   1.00
H659   H     0.35033   0.19346   0.71473   0.00000  Uiso   1.00
H660   H     0.65126   0.14047   0.78500   0.00000  Uiso   1.00
H661   H     0.45802   0.33159   0.78348   0.00000  Uiso   1.00
H662   H     0.48532   0.17670   0.60146   0.00000  Uiso   1.00
H663   H     0.57845   0.09576   0.59566   0.00000  Uiso   1.00
H664   H     0.58426   0.09942   0.96354   0.00000  Uiso   1.00
H665   H     0.41385   0.25735   0.97579   0.00000  Uiso   1.00
O666   O     0.50000   0.16667   0.75000   0.00000  Uiso   1.00
O667   O     0.49027   0.12393   0.66625   0.00000  Uiso   1.00
O668   O     0.46020   0.20646   0.83749   0.00000  Uiso   1.00
O669   O     0.54421   0.17493   0.65877   0.00000  Uiso   1.00
O670   O     0.50532   0.16135   0.83749   0.00000  Uiso   1.00
O671   O     0.51182   0.08101   0.77820   0.00000  Uiso   1.00
O672   O     0.47914   0.26136   0.76767   0.00000  Uiso   1.00
O673   O     0.40785   0.13251   0.73607   0.00000  Uiso   1.00
O674   O     0.60119   0.19179   0.71805   0.00000  Uiso   1.00
O675   O     0.40323   0.18960   0.77820   0.00000  Uiso   1.00
O676   O     0.58773   0.15277   0.76767   0.00000  Uiso   1.00
O677   O     0.47133   0.06903   0.73607   0.00000  Uiso   1.00
O678   O     0.53771   0.25527   0.71805   0.00000  Uiso   1.00
Zn679  Zn    0.52577   0.14090   0.78277   0.00000  Uiso   1.00
Zn680  Zn    0.46792   0.12378   0.72257   0.00000  Uiso   1.00
Zn681  Zn    0.54500   0.19664   0.71188   0.00000  Uiso   1.00
Zn682  Zn    0.46131   0.20535   0.78277   0.00000  Uiso   1.00
C683   C     0.71922   0.16001   0.75860   0.00000  Uiso   1.00
C684   C     0.87296   0.13913   0.95975   0.00000  Uiso   1.00
C685   C     0.89341   0.11959   0.97996   0.00000  Uiso   1.00
C686   C     0.94776   0.17360   0.74114   0.00000  Uiso   1.00
C687   C     0.88316   0.12577   0.52058   0.00000  Uiso   1.00
C688   C     0.85195   0.15281   0.54181   0.00000  Uiso   1.00
C689   C     0.90430   0.10529   0.54019   0.00000  Uiso   1.00
C690   C     0.89493   0.11129   0.58078   0.00000  Uiso   1.00
C691   C     0.84249   0.15757   0.58301   0.00000  Uiso   1.00
C692   C     0.99383   0.17628   0.73745   0.00000  Uiso   1.00
C693   C     0.67380   0.15763   0.76197   0.00000  Uiso   1.00
C694   C     0.77623   0.22641   0.91969   0.00000  Uiso   1.00
C695   C     0.84858   0.32250   0.73737   0.00000  Uiso   1.00
C696   C     0.81878   0.01206   0.76157   0.00000  Uiso   1.00
C697   C     0.82194   0.05626   0.75942   0.00000  Uiso   1.00
C698   C     0.84377   0.27777   0.74118   0.00000  Uiso   1.00
C699   C     0.85511   0.14518   0.64417   0.00000  Uiso   1.00
C700   C     0.81222   0.18779   0.85603   0.00000  Uiso   1.00
C701   C     0.80405   0.19713   0.89869   0.00000  Uiso   1.00
C702   C     0.86401   0.13733   0.60199   0.00000  Uiso   1.00
C703   C     0.76916   0.23486   0.96003   0.00000  Uiso   1.00
C704   C     0.88655   0.00877   0.70666   0.00000  Uiso   1.00
C705   C     0.82481   0.17662   0.91841   0.00000  Uiso   1.00
C706   C     0.81924   0.18545   0.95902   0.00000  Uiso   1.00
C707   C     0.79023   0.21457   0.97982   0.00000  Uiso   1.00
C708   C     0.84116   0.16587   0.97953   0.00000  Uiso   1.00
C709   C     0.83149   0.17388   0.52114   0.00000  Uiso   1.00
C710   C     0.80221   0.20313   0.54058   0.00000  Uiso   1.00
C711   C     0.78235   0.22320   0.52019   0.00000  Uiso   1.00
H712   H     0.76034   0.24556   0.53629   0.00000  Uiso   1.00
H713   H     0.75978   0.24263   0.90502   0.00000  Uiso   1.00
H714   H     0.84463   0.15336   0.90130   0.00000  Uiso   1.00
H715   H     0.79431   0.21201   0.57165   0.00000  Uiso   1.00
H716   H     0.88380   0.13312   0.92837   0.00000  Uiso   1.00
H717   H     0.90816   0.31895   0.68907   0.00000  Uiso   1.00
H718   H     0.87455   0.02319   0.68619   0.00000  Uiso   1.00
H719   H     0.90621   0.03318   0.72107   0.00000  Uiso   1.00
H720   H     0.92831   0.08484   0.52405   0.00000  Uiso   1.00
H721   H     0.68366   0.19346   0.71473   0.00000  Uiso   1.00
H722   H     0.98459   0.14047   0.78500   0.00000  Uiso   1.00
H723   H     0.79135   0.33159   0.78348   0.00000  Uiso   1.00
H724   H     0.81865   0.17670   0.60146   0.00000  Uiso   1.00
H725   H     0.91178   0.09576   0.59566   0.00000  Uiso   1.00
H726   H     0.91759   0.09942   0.96354   0.00000  Uiso   1.00
H727   H     0.74718   0.25735   0.97579   0.00000  Uiso   1.00
O728   O     0.83333   0.16667   0.75000   0.00000  Uiso   1.00
O729   O     0.82360   0.12393   0.66625   0.00000  Uiso   1.00
O730   O     0.79354   0.20646   0.83749   0.00000  Uiso   1.00
O731   O     0.87755   0.17493   0.65877   0.00000  Uiso   1.00
O732   O     0.83865   0.16135   0.83749   0.00000  Uiso   1.00
O733   O     0.84515   0.08101   0.77820   0.00000  Uiso   1.00
O734   O     0.81247   0.26136   0.76767   0.00000  Uiso   1.00
O735   O     0.74119   0.13251   0.73607   0.00000  Uiso   1.00
O736   O     0.93452   0.19179   0.71805   0.00000  Uiso   1.00
O737   O     0.73656   0.18960   0.77820   0.00000  Uiso   1.00
O738   O     0.92106   0.15277   0.76767   0.00000  Uiso   1.00
O739   O     0.80467   0.06903   0.73607   0.00000  Uiso   1.00
O740   O     0.87104   0.25527   0.71805   0.00000  Uiso   1.00
Zn741  Zn    0.85910   0.14090   0.78277   0.00000  Uiso   1.00
Zn742  Zn    0.80125   0.12378   0.72257   0.00000  Uiso   1.00
Zn743  Zn    0.87833   0.19664   0.71188   0.00000  Uiso   1.00
Zn744  Zn    0.79465   0.20535   0.78277   0.00000  Uiso   1.00
C745   C     0.05255   0.49334   0.75860   0.00000  Uiso   1.00
C746   C     0.20629   0.47247   0.95975   0.00000  Uiso   1.00
C747   C     0.22674   0.45292   0.97996   0.00000  Uiso   1.00
C748   C     0.28109   0.50694   0.74114   0.00000  Uiso   1.00
C749   C     0.21649   0.45910   0.52058   0.00000  Uiso   1.00
C750   C     0.18528   0.48614   0.54181   0.00000  Uiso   1.00
C751   C     0.23763   0.43862   0.54019   0.00000  Uiso   1.00
C752   C     0.22826   0.44462   0.58078   0.00000  Uiso   1.00
C753   C     0.17582   0.49091   0.58301   0.00000  Uiso   1.00
C754   C     0.32716   0.50962   0.73745   0.00000  Uiso   1.00
C755   C     0.00713   0.49096   0.76197   0.00000  Uiso   1.00
C756   C     0.10956   0.55974   0.91969   0.00000  Uiso   1.00
C757   C     0.18191   0.65584   0.73737   0.00000  Uiso   1.00
C758   C     0.15211   0.34539   0.76157   0.00000  Uiso   1.00
C759   C     0.15528   0.38960   0.75942   0.00000  Uiso   1.00
C760   C     0.17710   0.61110   0.74118   0.00000  Uiso   1.00
C761   C     0.18845   0.47851   0.64417   0.00000  Uiso   1.00
C762   C     0.14555   0.52112   0.85603   0.00000  Uiso   1.00
C763   C     0.13738   0.53046   0.89869   0.00000  Uiso   1.00
C764   C     0.19734   0.47066   0.60199   0.00000  Uiso   1.00
C765   C     0.10249   0.56820   0.96003   0.00000  Uiso   1.00
C766   C     0.21989   0.34210   0.70666   0.00000  Uiso   1.00
C767   C     0.15815   0.50996   0.91841   0.00000  Uiso   1.00
C768   C     0.15258   0.51878   0.95902   0.00000  Uiso   1.00
C769   C     0.12356   0.54791   0.97982   0.00000  Uiso   1.00
C770   C     0.17450   0.49920   0.97953   0.00000  Uiso   1.00
C771   C     0.16482   0.50721   0.52114   0.00000  Uiso   1.00
C772   C     0.13554   0.53646   0.54058   0.00000  Uiso   1.00
C773   C     0.11568   0.55654   0.52019   0.00000  Uiso   1.00
H774   H     0.09367   0.57889   0.53629   0.00000  Uiso   1.00
H775   H     0.09312   0.57597   0.90502   0.00000  Uiso   1.00
H776   H     0.17796   0.48669   0.90130   0.00000  Uiso   1.00
H777   H     0.12764   0.54534   0.57165   0.00000  Uiso   1.00
H778   H     0.21714   0.46645   0.92837   0.00000  Uiso   1.00
H779   H     0.24149   0.65228   0.68907   0.00000  Uiso   1.00
H780   H     0.20788   0.35652   0.68619   0.00000  Uiso   1.00
H781   H     0.23955   0.36652   0.72107   0.00000  Uiso   1.00
H782   H     0.26164   0.41817   0.52405   0.00000  Uiso   1.00
H783   H     0.01700   0.52679   0.71473   0.00000  Uiso   1.00
H784   H     0.31793   0.47380   0.78500   0.00000  Uiso   1.00
H785   H     0.12468   0.66493   0.78348   0.00000  Uiso   1.00
H786   H     0.15198   0.51004   0.60146   0.00000  Uiso   1.00
H787   H     0.24512   0.42909   0.59566   0.00000  Uiso   1.00
H788   H     0.25093   0.43275   0.96354   0.00000  Uiso   1.00
H789   H     0.08052   0.59068   0.97579   0.00000  Uiso   1.00
O790   O     0.16667   0.50000   0.75000   0.00000  Uiso   1.00
O791   O     0.15693   0.45726   0.66625   0.00000  Uiso   1.00
O792   O     0.12687   0.53979   0.83749   0.00000  Uiso   1.00
O793   O     0.21088   0.50826   0.65877   0.00000  Uiso   1.00
O794   O     0.17198   0.49468   0.83749   0.00000  Uiso   1.00
O795   O     0.17849   0.41434   0.77820   0.00000  Uiso   1.00
O796   O     0.14581   0.59469   0.76767   0.00000  Uiso   1.00
O797   O     0.07452   0.46584   0.73607   0.00000  Uiso   1.00
O798   O     0.26785   0.52512   0.71805   0.00000  Uiso   1.00
O799   O     0.06990   0.52293   0.77820   0.00000  Uiso   1.00
O800   O     0.25440   0.48610   0.76767   0.00000  Uiso   1.00
O801   O     0.13800   0.40236   0.73607   0.00000  Uiso   1.00
O802   O     0.20437   0.58860   0.71805   0.00000  Uiso   1.00
Zn803  Zn    0.19244   0.47423   0.78277   0.00000  Uiso   1.00
Zn804  Zn    0.13459   0.45711   0.72257   0.00000  Uiso   1.00
Zn805  Zn    0.21166   0.52997   0.71188   0.00000  Uiso   1.00
Zn806  Zn    0.12798   0.53868   0.78277   0.00000  Uiso   1.00
C807   C     0.38589   0.49334   0.75860   0.00000  Uiso   1.00
C808   C     0.53963   0.47247   0.95975   0.00000  Uiso   1.00
C809   C     0.56008   0.45292   0.97996   0.00000  Uiso   1.00
C810   C     0.61442   0.50694   0.74114   0.00000  Uiso   1.00
C811   C     0.54983   0.45910   0.52058   0.00000  Uiso   1.00
C812   C     0.51862   0.48614   0.54181   0.00000  Uiso   1.00
C813   C     0.57097   0.43862   0.54019   0.00000  Uiso   1.00
C814   C     0.56160   0.44462   0.58078   0.00000  Uiso   1.00
C815   C     0.50916   0.49091   0.58301   0.00000  Uiso   1.00
C816   C     0.66049   0.50962   0.73745   0.00000  Uiso   1.00
C817   C     0.34046   0.49096   0.76197   0.00000  Uiso   1.00
C818   C     0.44290   0.55974   0.91969   0.00000  Uiso   1.00
C819   C     0.51525   0.65584   0.73737   0.00000  Uiso   1.00
C820   C     0.48545   0.34539   0.76157   0.00000  Uiso   1.00
C821   C     0.48861   0.38960   0.75942   0.00000  Uiso   1.00
C822   C     0.51043   0.61110   0.74118   0.00000  Uiso   1.00
C823   C     0.52178   0.47851   0.64417   0.00000  Uiso   1.00
C824   C     0.47888   0.52112   0.85603   0.00000  Uiso   1.00
C825   C     0.47071   0.53046   0.89869   0.00000  Uiso   1.00
C826   C     0.53068   0.47066   0.60199   0.00000  Uiso   1.00
C827   C     0.43583   0.56820   0.96003   0.00000  Uiso   1.00
C828   C     0.55322   0.34210   0.70666   0.00000  Uiso   1.00
C829   C     0.49148   0.50996   0.91841   0.00000  Uiso   1.00
C830   C     0.48591   0.51878   0.95902   0.00000  Uiso   1.00
C831   C     0.45690   0.54791   0.97982   0.00000  Uiso   1.00
C832   C     0.50783   0.49920   0.97953   0.00000  Uiso   1.00
C833   C     0.49815   0.50721   0.52114   0.00000  Uiso   1.00
C834   C     0.46888   0.53646   0.54058   0.00000  Uiso   1.00
C835   C     0.44902   0.55654   0.52019   0.00000  Uiso   1.00
H836   H     0.42701   0.57889   0.53629   0.00000  Uiso   1.00
H837   H     0.42645   0.57597   0.90502   0.00000  Uiso   1.00
H838   H     0.51129   0.48669   0.90130   0.00000  Uiso   1.00
H839   H     0.46097   0.54534   0.57165   0.00000  Uiso   1.00
H840   H     0.55047   0.46645   0.92837   0.00000  Uiso   1.00
H841   H     0.57482   0.65228   0.68907   0.00000  Uiso   1.00
H842   H     0.54122   0.35652   0.68619   0.00000  Uiso   1.00
H843   H     0.57288   0.36652   0.72107   0.00000  Uiso   1.00
H844   H     0.59497   0.41817   0.52405   0.00000  Uiso   1.00
H845   H     0.35033   0.52679   0.71473   0.00000  Uiso   1.00
H846   H     0.65126   0.47380   0.78500   0.00000  Uiso   1.00
H847   H     0.45802   0.66493   0.78348   0.00000  Uiso   1.00
H848   H     0.48532   0.51004   0.60146   0.00000  Uiso   1.00
H849   H     0.57845   0.42909   0.59566   0.00000  Uiso   1.00
H850   H     0.58426   0.43275   0.96354   0.00000  Uiso   1.00
H851   H     0.41385   0.59068   0.97579   0.00000  Uiso   1.00
O852   O     0.50000   0.50000   0.75000   0.00000  Uiso   1.00
O853   O     0.49027   0.45726   0.66625   0.00000  Uiso   1.00
O854   O     0.46020   0.53979   0.83749   0.00000  Uiso   1.00
O855   O     0.54421   0.50826   0.65877   0.00000  Uiso   1.00
O856   O     0.50532   0.49468   0.83749   0.00000  Uiso   1.00
O857   O     0.51182   0.41434   0.77820   0.00000  Uiso   1.00
O858   O     0.47914   0.59469   0.76767   0.00000  Uiso   1.00
O859   O     0.40785   0.46584   0.73607   0.00000  Uiso   1.00
O860   O     0.60119   0.52512   0.71805   0.00000  Uiso   1.00
O861   O     0.40323   0.52293   0.77820   0.00000  Uiso   1.00
O862   O     0.58773   0.48610   0.76767   0.00000  Uiso   1.00
O863   O     0.47133   0.40236   0.73607   0.00000  Uiso   1.00
O864   O     0.53771   0.58860   0.71805   0.00000  Uiso   1.00
Zn865  Zn    0.52577   0.47423   0.78277   0.00000  Uiso   1.00
Zn866  Zn    0.46792   0.45711   0.72257   0.00000  Uiso   1.00
Zn867  Zn    0.54500   0.52997   0.71188   0.00000  Uiso   1.00
Zn868  Zn    0.46131   0.53868   0.78277   0.00000  Uiso   1.00
C869   C     0.71922   0.49334   0.75860   0.00000  Uiso   1.00
C870   C     0.87296   0.47247   0.95975   0.00000  Uiso   1.00
C871   C     0.89341   0.45292   0.97996   0.00000  Uiso   1.00
C872   C     0.94776   0.50694   0.74114   0.00000  Uiso   1.00
C873   C     0.88316   0.45910   0.52058   0.00000  Uiso   1.00
C874   C     0.85195   0.48614   0.54181   0.00000  Uiso   1.00
C875   C     0.90430   0.43862   0.54019   0.00000  Uiso   1.00
C876   C     0.89493   0.44462   0.58078   0.00000  Uiso   1.00
C877   C     0.84249   0.49091   0.58301   0.00000  Uiso   1.00
C878   C     0.99383   0.50962   0.73745   0.00000  Uiso   1.00
C879   C     0.67380   0.49096   0.76197   0.00000  Uiso   1.00
C880   C     0.77623   0.55974   0.91969   0.00000  Uiso   1.00
C881   C     0.84858   0.65584   0.73737   0.00000  Uiso   1.00
C882   C     0.81878   0.34539   0.76157   0.00000  Uiso   1.00
C883   C     0.82194   0.38960   0.75942   0.00000  Uiso   1.00
C884   C     0.84377   0.61110   0.74118   0.00000  Uiso   1.00
C885   C     0.85511   0.47851   0.64417   0.00000  Uiso   1.00
C886   C     0.81222   0.52112   0.85603   0.00000  Uiso   1.00
C887   C     0.80405   0.53046   0.89869   0.00000  Uiso   1.00
C888   C     0.86401   0.47066   0.60199   0.00000  Uiso   1.00
C889   C     0.76916   0.56820   0.96003   0.00000  Uiso   1.00
C890   C     0.88655   0.34210   0.70666   0.00000  Uiso   1.00
C891   C     0.82481   0.50996   0.91841   0.00000  Uiso   1.00
C892   C     0.81924   0.51878   0.95902   0.00000  Uiso   1.00
C893   C     0.79023   0.54791   0.97982   0.00000  Uiso   1.00
C894   C     0.84116   0.49920   0.97953   0.00000  Uiso   1.00
C895   C     0.83149   0.50721   0.52114   0.00000  Uiso   1.00
C896   C     0.80221   0.53646   0.54058   0.00000  Uiso   1.00
C897   C     0.78235   0.55654   0.52019   0.00000  Uiso   1.00
H898   H     0.76034   0.57889   0.53629   0.00000  Uiso   1.00
H899   H     0.75978   0.57597   0.90502   0.00000  Uiso   1.00
H900   H     0.84463   0.48669   0.90130   0.00000  Uiso   1.00
H901   H     0.79431   0.54534   0.57165   0.00000  Uiso   1.00
H902   H     0.88380   0.46645   0.92837   0.00000  Uiso   1.00
H903   H     0.90816   0.65228   0.68907   0.00000  Uiso   1.00
H904   H     0.87455   0.35652   0.68619   0.00000  Uiso   1.00
H905   H     0.90621   0.36652   0.72107   0.00000  Uiso   1.00
H906   H     0.92831   0.41817   0.52405   0.00000  Uiso   1.00
H907   H     0.68366   0.52679   0.71473   0.00000  Uiso   1.00
H908   H     0.98459   0.47380   0.78500   0.00000  Uiso   1.00
H909   H     0.79135   0.66493   0.78348   0.00000  Uiso   1.00
H910   H     0.81865   0.51004   0.60146   0.00000  Uiso   1.00
H911   H     0.91178   0.42909   0.59566   0.00000  Uiso   1.00
H912   H     0.91759   0.43275   0.96354   0.00000  Uiso   1.00
H913   H     0.74718   0.59068   0.97579   0.00000  Uiso   1.00
O914   O     0.83333   0.50000   0.75000   0.00000  Uiso   1.00
O915   O     0.82360   0.45726   0.66625   0.00000  Uiso   1.00
O916   O     0.79354   0.53979   0.83749   0.00000  Uiso   1.00
O917   O     0.87755   0.50826   0.65877   0.00000  Uiso   1.00
O918   O     0.83865   0.49468   0.83749   0.00000  Uiso   1.00
O919   O     0.84515   0.41434   0.77820   0.00000  Uiso   1.00
O920   O     0.81247   0.59469   0.76767   0.00000  Uiso   1.00
O921   O     0.74119   0.46584   0.73607   0.00000  Uiso   1.00
O922   O     0.93452   0.52512   0.71805   0.00000  Uiso   1.00
O923   O     0.73656   0.52293   0.77820   0.00000  Uiso   1.00
O924   O     0.92106   0.48610   0.76767   0.00000  Uiso   1.00
O925   O     0.80467   0.40236   0.73607   0.00000  Uiso   1.00
O926   O     0.87104   0.58860   0.71805   0.00000  Uiso   1.00
Zn927  Zn    0.85910   0.47423   0.78277   0.00000  Uiso   1.00
Zn928  Zn    0.80125   0.45711   0.72257   0.00000  Uiso   1.00
Zn929  Zn    0.87833   0.52997   0.71188   0.00000  Uiso   1.00
Zn930  Zn    0.79465   0.53868   0.78277   0.00000  Uiso   1.00
C931   C     0.05255   0.82667   0.75860   0.00000  Uiso   1.00
C932   C     0.20629   0.80580   0.95975   0.00000  Uiso   1.00
C933   C     0.22674   0.78626   0.97996   0.00000  Uiso   1.00
C934   C     0.28109   0.84027   0.74114   0.00000  Uiso   1.00
C935   C     0.21649   0.79244   0.52058   0.00000  Uiso   1.00
C936   C     0.18528   0.81948   0.54181   0.00000  Uiso   1.00
C937   C     0.23763   0.77195   0.54019   0.00000  Uiso   1.00
C938   C     0.22826   0.77795   0.58078   0.00000  Uiso   1.00
C939   C     0.17582   0.82424   0.58301   0.00000  Uiso   1.00
C940   C     0.32716   0.84295   0.73745   0.00000  Uiso   1.00
C941   C     0.00713   0.82430   0.76197   0.00000  Uiso   1.00
C942   C     0.10956   0.89308   0.91969   0.00000  Uiso   1.00
C943   C     0.18191   0.98917   0.73737   0.00000  Uiso   1.00
C944   C     0.15211   0.67872   0.76157   0.00000  Uiso   1.00
C945   C     0.15528   0.72293   0.75942   0.00000  Uiso   1.00
C946   C     0.17710   0.94444   0.74118   0.00000  Uiso   1.00
C947   C     0.18845   0.81185   0.64417   0.00000  Uiso   1.00
C948   C     0.14555   0.85445   0.85603   0.00000  Uiso   1.00
C949   C     0.13738   0.86379   0.89869   0.00000  Uiso   1.00
C950   C     0.19734   0.80399   0.60199   0.00000  Uiso   1.00
C951   C     0.10249   0.90153   0.96003   0.00000  Uiso   1.00
C952   C     0.21989   0.67544   0.70666   0.00000  Uiso   1.00
C953   C     0.15815   0.84329   0.91841   0.00000  Uiso   1.00
C954   C     0.15258   0.85211   0.95902   0.00000  Uiso   1.00
C955   C     0.12356   0.88124   0.97982   0.00000  Uiso   1.00
C956   C     0.17450   0.83254   0.97953   0.00000  Uiso   1.00
C957   C     0.16482   0.84055   0.52114   0.00000  Uiso   1.00
C958   C     0.13554   0.86980   0.54058   0.00000  Uiso   1.00
C959   C     0.11568   0.88987   0.52019   0.00000  Uiso   1.00
H960   H     0.09367   0.91222   0.53629   0.00000  Uiso   1.00
H961   H     0.09312   0.90930   0.90502   0.00000  Uiso   1.00
H962   H     0.17796   0.82003   0.90130   0.00000  Uiso   1.00
H963   H     0.12764   0.87867   0.57165   0.00000  Uiso   1.00
H964   H     0.21714   0.79979   0.92837   0.00000  Uiso   1.00
H965   H     0.24149   0.98562   0.68907   0.00000  Uiso   1.00
H966   H     0.20788   0.68986   0.68619   0.00000  Uiso   1.00
H967   H     0.23955   0.69985   0.72107   0.00000  Uiso   1.00
H968   H     0.26164   0.75151   0.52405   0.00000  Uiso   1.00
H969   H     0.01700   0.86012   0.71473   0.00000  Uiso   1.00
H970   H     0.31793   0.80714   0.78500   0.00000  Uiso   1.00
H971   H     0.12468   0.99826   0.78348   0.00000  Uiso   1.00
H972   H     0.15198   0.84337   0.60146   0.00000  Uiso   1.00
H973   H     0.24512   0.76242   0.59566   0.00000  Uiso   1.00
H974   H     0.25093   0.76608   0.96354   0.00000  Uiso   1.00
H975   H     0.08052   0.92402   0.97579   0.00000  Uiso   1.00
O976   O     0.16667   0.83333   0.75000   0.00000  Uiso   1.00
O977   O     0.15693   0.79060   0.66625   0.00000  Uiso   1.00
O978   O     0.12687   0.87313   0.83749   0.00000  Uiso   1.00
O979   O     0.21088   0.84159   0.65877   0.00000  Uiso   1.00
O980   O     0.17198   0.82802   0.83749   0.00000  Uiso   1.00
O981   O     0.17849   0.74768   0.77820   0.00000  Uiso   1.00
O982   O     0.14581   0.92803   0.76767   0.00000  Uiso   1.00
O983   O     0.07452   0.79917   0.73607   0.00000  Uiso   1.00
O984   O     0.26785   0.85845   0.71805   0.00000  Uiso   1.00
O985   O     0.06990   0.85627   0.77820   0.00000  Uiso   1.00
O986   O     0.25440   0.81944   0.76767   0.00000  Uiso   1.00
O987   O     0.13800   0.73570   0.73607   0.00000  Uiso   1.00
O988   O     0.20437   0.92193   0.71805   0.00000  Uiso   1.00
Zn989  Zn    0.19244   0.80756   0.78277   0.00000  Uiso   1.00
Zn990  Zn    0.13459   0.79044   0.72257   0.00000  Uiso   1.00
Zn991  Zn    0.21166   0.86331   0.71188   0.00000  Uiso   1.00
Zn992  Zn    0.12798   0.87202   0.78277   0.00000  Uiso   1.00
C993   C     0.38589   0.82667   0.75860   0.00000  Uiso   1.00
C994   C     0.53963   0.80580   0.95975   0.00000  Uiso   1.00
C995   C     0.56008   0.78626   0.97996   0.00000  Uiso   1.00
C996   C     0.61442   0.84027   0.74114   0.00000  Uiso   1.00
C997   C     0.54983   0.79244   0.52058   0.00000  Uiso   1.00
C998   C     0.51862   0.81948   0.54181   0.00000  Uiso   1.00
C999   C     0.57097   0.77195   0.54019   0.00000  Uiso   1.00
C1000  C     0.56160   0.77795   0.58078   0.00000  Uiso   1.00
C1001  C     0.50916   0.82424   0.58301   0.00000  Uiso   1.00
C1002  C     0.66049   0.84295   0.73745   0.00000  Uiso   1.00
C1003  C     0.34046   0.82430   0.76197   0.00000  Uiso   1.00
C1004  C     0.44290   0.89308   0.91969   0.00000  Uiso   1.00
C1005  C     0.51525   0.98917   0.73737   0.00000  Uiso   1.00
C1006  C     0.48545   0.67872   0.76157   0.00000  Uiso   1.00
C1007  C     0.48861   0.72293   0.75942   0.00000  Uiso   1.00
C1008  C     0.51043   0.94444   0.74118   0.00000  Uiso   1.00
C1009  C     0.52178   0.81185   0.64417   0.00000  Uiso   1.00
C1010  C     0.47888   0.85445   0.85603   0.00000  Uiso   1.00
C1011  C     0.47071   0.86379   0.89869   0.00000  Uiso   1.00
C1012  C     0.53068   0.80399   0.60199   0.00000  Uiso   1.00
C1013  C     0.43583   0.90153   0.96003   0.00000  Uiso   1.00
C1014  C     0.55322   0.67544   0.70666   0.00000  Uiso   1.00
C1015  C     0.49148   0.84329   0.91841   0.00000  Uiso   1.00
C1016  C     0.48591   0.85211   0.95902   0.00000  Uiso   1.00
C1017  C     0.45690   0.88124   0.97982   0.00000  Uiso   1.00
C1018  C     0.50783   0.83254   0.97953   0.00000  Uiso   1.00
C1019  C     0.49815   0.84055   0.52114   0.00000  Uiso   1.00
C1020  C     0.46888   0.86980   0.54058   0.00000  Uiso   1.00
C1021  C     0.44902   0.88987   0.52019   0.00000  Uiso   1.00
H1022  H     0.42701   0.91222   0.53629   0.00000  Uiso   1.00
H1023  H     0.42645   0.90930   0.90502   0.00000  Uiso   1.00
H1024  H     0.51129   0.82003   0.90130   0.00000  Uiso   1.00
H1025  H     0.46097   0.87867   0.57165   0.00000  Uiso   1.00
H1026  H     0.55047   0.79979   0.92837   0.00000  Uiso   1.00
H1027  H     0.57482   0.98562   0.68907   0.00000  Uiso   1.00
H1028  H     0.54122   0.68986   0.68619   0.00000  Uiso   1.00
H1029  H     0.57288   0.69985   0.72107   0.00000  Uiso   1.00
H1030  H     0.59497   0.75151   0.52405   0.00000  Uiso   1.00
H1031  H     0.35033   0.86012   0.71473   0.00000  Uiso   1.00
H1032  H     0.65126   0.80714   0.78500   0.00000  Uiso   1.00
H1033  H     0.45802   0.99826   0.78348   0.00000  Uiso   1.00
H1034  H     0.48532   0.84337   0.60146   0.00000  Uiso   1.00
H1035  H     0.57845   0.76242   0.59566   0.00000  Uiso   1.00
H1036  H     0.58426   0.76608   0.96354   0.00000  Uiso   1.00
H1037  H     0.41385   0.92402   0.97579   0.00000  Uiso   1.00
O1038  O     0.50000   0.83333   0.75000   0.00000  Uiso   1.00
O1039  O     0.49027   0.79060   0.66625   0.00000  Uiso   1.00
O1040  O     0.46020   0.87313   0.83749   0.00000  Uiso   1.00
O1041  O     0.54421   0.84159   0.65877   0.00000  Uiso   1.00
O1042  O     0.50532   0.82802   0.83749   0.00000  Uiso   1.00
O1043  O     0.51182   0.74768   0.77820   0.00000  Uiso   1.00
O1044  O     0.47914   0.92803   0.76767   0.00000  Uiso   1.00
O1045  O     0.40785   0.79917   0.73607   0.00000  Uiso   1.00
O1046  O     0.60119   0.85845   0.71805   0.00000  Uiso   1.00
O1047  O     0.40323   0.85627   0.77820   0.00000  Uiso   1.00
O1048  O     0.58773   0.81944   0.76767   0.00000  Uiso   1.00
O1049  O     0.47133   0.73570   0.73607   0.00000  Uiso   1.00
O1050  O     0.53771   0.92193   0.71805   0.00000  Uiso   1.00
Zn1051 Zn    0.52577   0.80756   0.78277   0.00000  Uiso   1.00
Zn1052 Zn    0.46792   0.79044   0.72257   0.00000  Uiso   1.00
Zn1053 Zn    0.54500   0.86331   0.71188   0.00000  Uiso   1.00
Zn1054 Zn    0.46131   0.87202   0.78277   0.00000  Uiso   1.00
C1055  C     0.71922   0.82667   0.75860   0.00000  Uiso   1.00
C1056  C     0.87296   0.80580   0.95975   0.00000  Uiso   1.00
C1057  C     0.89341   0.78626   0.97996   0.00000  Uiso   1.00
C1058  C     0.94776   0.84027   0.74114   0.00000  Uiso   1.00
C1059  C     0.88316   0.79244   0.52058   0.00000  Uiso   1.00
C1060  C     0.85195   0.81948   0.54181   0.00000  Uiso   1.00
C1061  C     0.90430   0.77195   0.54019   0.00000  Uiso   1.00
C1062  C     0.89493   0.77795   0.58078   0.00000  Uiso   1.00
C1063  C     0.84249   0.82424   0.58301   0.00000  Uiso   1.00
C1064  C     0.99383   0.84295   0.73745   0.00000  Uiso   1.00
C1065  C     0.67380   0.82430   0.76197   0.00000  Uiso   1.00
C1066  C     0.77623   0.89308   0.91969   0.00000  Uiso   1.00
C1067  C     0.84858   0.98917   0.73737   0.00000  Uiso   1.00
C1068  C     0.81878   0.67872   0.76157   0.00000  Uiso   1.00
C1069  C     0.82194   0.72293   0.75942   0.00000  Uiso   1.00
C1070  C     0.84377   0.94444   0.74118   0.00000  Uiso   1.00
C1071  C     0.85511   0.81185   0.64417   0.00000  Uiso   1.00
C1072  C     0.81222   0.85445   0.85603   0.00000  Uiso   1.00
C1073  C     0.80405   0.86379   0.89869   0.00000  Uiso   1.00
C1074  C     0.86401   0.80399   0.60199   0.00000  Uiso   1.00
C1075  C     0.76916   0.90153   0.96003   0.00000  Uiso   1.00
C1076  C     0.88655   0.67544   0.70666   0.00000  Uiso   1.00
C1077  C     0.82481   0.84329   0.91841   0.00000  Uiso   1.00
C1078  C     0.81924   0.85211   0.95902   0.00000  Uiso   1.00
C1079  C     0.79023   0.88124   0.97982   0.00000  Uiso   1.00
C1080  C     0.84116   0.83254   0.97953   0.00000  Uiso   1.00
C1081  C     0.83149   0.84055   0.52114   0.00000  Uiso   1.00
C1082  C     0.80221   0.86980   0.54058   0.00000  Uiso   1.00
C1083  C     0.78235   0.88987   0.52019   0.00000  Uiso   1.00
H1084  H     0.76034   0.91222   0.53629   0.00000  Uiso   1.00
H1085  H     0.75978   0.90930   0.90502   0.00000  Uiso   1.00
H1086  H     0.84463   0.82003   0.90130   0.00000  Uiso   1.00
H1087  H     0.79431   0.87867   0.57165   0.00000  Uiso   1.00
H1088  H     0.88380   0.79979   0.92837   0.00000  Uiso   1.00
H1089  H     0.90816   0.98562   0.68907   0.00000  Uiso   1.00
H1090  H     0.87455   0.68986   0.68619   0.00000  Uiso   1.00
H1091  H     0.90621   0.69985   0.72107   0.00000  Uiso   1.00
H1092  H     0.92831   0.75151   0.52405   0.00000  Uiso   1.00
H1093  H     0.68366   0.86012   0.71473   0.00000  Uiso   1.00
H1094  H     0.98459   0.80714   0.78500   0.00000  Uiso   1.00
H1095  H     0.79135   0.99826   0.78348   0.00000  Uiso   1.00
H1096  H     0.81865   0.84337   0.60146   0.00000  Uiso   1.00
H1097  H     0.91178   0.76242   0.59566   0.00000  Uiso   1.00
H1098  H     0.91759   0.76608   0.96354   0.00000  Uiso   1.00
H1099  H     0.74718   0.92402   0.97579   0.00000  Uiso   1.00
O1100  O     0.83333   0.83333   0.75000   0.00000  Uiso   1.00
O1101  O     0.82360   0.79060   0.66625   0.00000  Uiso   1.00
O1102  O     0.79354   0.87313   0.83749   0.00000  Uiso   1.00
O1103  O     0.87755   0.84159   0.65877   0.00000  Uiso   1.00
O1104  O     0.83865   0.82802   0.83749   0.00000  Uiso   1.00
O1105  O     0.84515   0.74768   0.77820   0.00000  Uiso   1.00
O1106  O     0.81247   0.92803   0.76767   0.00000  Uiso   1.00
O1107  O     0.74119   0.79917   0.73607   0.00000  Uiso   1.00
O1108  O     0.93452   0.85845   0.71805   0.00000  Uiso   1.00
O1109  O     0.73656   0.85627   0.77820   0.00000  Uiso   1.00
O1110  O     0.92106   0.81944   0.76767   0.00000  Uiso   1.00
O1111  O     0.80467   0.73570   0.73607   0.00000  Uiso   1.00
O1112  O     0.87104   0.92193   0.71805   0.00000  Uiso   1.00
Zn1113 Zn    0.85910   0.80756   0.78277   0.00000  Uiso   1.00
Zn1114 Zn    0.80125   0.79044   0.72257   0.00000  Uiso   1.00
Zn1115 Zn    0.87833   0.86331   0.71188   0.00000  Uiso   1.00
Zn1116 Zn    0.79465   0.87202   0.78277   0.00000  Uiso   1.00
loop_
_geom_bond_atom_site_label_1
_geom_bond_atom_site_label_2
_geom_bond_distance
_geom_bond_site_symmetry_2
_ccdc_geom_bond_type
C1     C11     1.439   .     S
C1     O55     1.273   .     A
C1     O53     1.273   .     A
C2     H34     1.075   .     S
C2     C3      1.384   .     A
C2     C26     1.416   .     A
C3     H44     1.084   .     S
C3     C563    1.389   .     S
C4     O54     1.283   .     A
C4     O56     1.279   .     A
C4     C10     1.456   .     S
C5     C6      1.421   .     A
C5     C7      1.403   .     A
C5     C561    1.389   1_554 S
C6     C27     1.427   .     A
C6     C9      1.410   .     A
C7     C8      1.390   .     A
C7     H38     1.084   .     S
C8     H43     1.083   .     S
C8     C20     1.394   .     A
C9     C20     1.392   .     A
C9     H42     1.077   .     S
C10    C73     1.336   .     S
C10    H101    1.087   .     S
C11    C134    1.336   1_455 S
C11    H164    1.086   1_455 S
C12    C21     1.391   .     A
C12    C19     1.400   .     A
C12    H31     1.083   .     S
C13    C16     1.462   .     S
C13    C200    1.340   .     S
C13    C208    1.518   .     S
C14    C15     1.439   .     S
C14    C385    1.340   1_545 S
C14    H413    1.086   1_545 S
C15    O51     1.279   .     A
C15    O57     1.279   .     A
C16    O58     1.269   .     A
C16    O52     1.278   .     A
C17    O47     1.271   .     A
C17    O49     1.270   .     A
C17    C20     1.448   .     S
C18    O50     1.286   .     A
C18    C19     1.470   .     S
C18    O48     1.283   .     A
C19    C23     1.398   .     A
C21    H45     1.084   .     S
C21    C25     1.403   .     A
C22    H36     1.111   .     S
C22    H37     1.111   .     S
C22    C385    1.518   1_545 S
C22    H407    1.109   1_545 S
C23    C24     1.408   .     A
C23    H32     1.074   .     S
C24    C26     1.427   .     A
C24    C25     1.418   .     A
C25    C587    1.390   .     S
C26    C585    1.427   .     S
C27    C28     1.416   .     A
C27    C584    1.427   1_554 S
C28    H33     1.076   .     S
C28    C29     1.386   .     A
C29    H30     1.084   .     S
C29    C583    1.390   1_554 S
H35    C208    1.109   .     S
H39    C134    1.087   1_455 S
H40    C73     1.086   .     S
H41    C200    1.086   .     S
O46    Zn59    1.965   .     S
O46    Zn62    1.938   .     S
O46    Zn61    1.930   .     S
O46    Zn60    1.946   .     S
O47    Zn60    1.937   .     S
O48    Zn62    1.948   .     S
O49    Zn61    1.944   .     S
O50    Zn59    1.935   .     S
O51    Zn59    1.929   .     S
O52    Zn62    1.930   .     S
O53    Zn60    1.927   .     S
O54    Zn61    1.938   .     S
O55    Zn62    1.931   .     S
O56    Zn59    1.920   .     S
O57    Zn60    1.939   .     S
O58    Zn61    1.934   .     S
C63    C73     1.439   .     S
C63    O117    1.273   .     A
C63    O115    1.273   .     A
C64    H96     1.075   .     S
C64    C65     1.384   .     A
C64    C88     1.416   .     A
C65    H106    1.084   .     S
C65    C625    1.389   .     S
C66    O116    1.283   .     A
C66    O118    1.279   .     A
C66    C72     1.456   .     S
C67    C68     1.421   .     A
C67    C69     1.403   .     A
C67    C623    1.389   1_554 S
C68    C89     1.427   .     A
C68    C71     1.410   .     A
C69    C70     1.390   .     A
C69    H100    1.084   .     S
C70    H105    1.083   .     S
C70    C82     1.394   .     A
C71    C82     1.392   .     A
C71    H104    1.077   .     S
C72    C135    1.336   .     S
C72    H163    1.087   .     S
C74    C83     1.391   .     A
C74    C81     1.400   .     A
C74    H93     1.083   .     S
C75    C78     1.462   .     S
C75    C262    1.340   .     S
C75    C270    1.518   .     S
C76    C77     1.439   .     S
C76    C447    1.340   1_545 S
C76    H475    1.086   1_545 S
C77    O113    1.279   .     A
C77    O119    1.279   .     A
C78    O120    1.269   .     A
C78    O114    1.278   .     A
C79    O109    1.271   .     A
C79    O111    1.270   .     A
C79    C82     1.448   .     S
C80    O112    1.286   .     A
C80    C81     1.470   .     S
C80    O110    1.283   .     A
C81    C85     1.398   .     A
C83    H107    1.084   .     S
C83    C87     1.403   .     A
C84    H98     1.111   .     S
C84    H99     1.111   .     S
C84    C447    1.518   1_545 S
C84    H469    1.109   1_545 S
C85    C86     1.408   .     A
C85    H94     1.074   .     S
C86    C88     1.427   .     A
C86    C87     1.418   .     A
C87    C649    1.390   .     S
C88    C647    1.427   .     S
C89    C90     1.416   .     A
C89    C646    1.427   1_554 S
C90    H95     1.076   .     S
C90    C91     1.386   .     A
C91    H92     1.084   .     S
C91    C645    1.390   1_554 S
H97    C270    1.109   .     S
H102   C135    1.086   .     S
H103   C262    1.086   .     S
O108   Zn121   1.965   .     S
O108   Zn124   1.938   .     S
O108   Zn123   1.930   .     S
O108   Zn122   1.946   .     S
O109   Zn122   1.937   .     S
O110   Zn124   1.948   .     S
O111   Zn123   1.944   .     S
O112   Zn121   1.935   .     S
O113   Zn121   1.929   .     S
O114   Zn124   1.930   .     S
O115   Zn122   1.927   .     S
O116   Zn123   1.938   .     S
O117   Zn124   1.931   .     S
O118   Zn121   1.920   .     S
O119   Zn122   1.939   .     S
O120   Zn123   1.934   .     S
C125   C135    1.439   .     S
C125   O179    1.273   .     A
C125   O177    1.273   .     A
C126   H158    1.075   .     S
C126   C127    1.384   .     A
C126   C150    1.416   .     A
C127   H168    1.084   .     S
C127   C687    1.389   .     S
C128   O178    1.283   .     A
C128   O180    1.279   .     A
C128   C134    1.456   .     S
C129   C130    1.421   .     A
C129   C131    1.403   .     A
C129   C685    1.389   1_554 S
C130   C151    1.427   .     A
C130   C133    1.410   .     A
C131   C132    1.390   .     A
C131   H162    1.084   .     S
C132   H167    1.083   .     S
C132   C144    1.394   .     A
C133   C144    1.392   .     A
C133   H166    1.077   .     S
C134   C11     1.336   1_655 S
C134   H39     1.087   1_655 S
C136   C145    1.391   .     A
C136   C143    1.400   .     A
C136   H155    1.083   .     S
C137   C140    1.462   .     S
C137   C324    1.340   .     S
C137   C332    1.518   .     S
C138   C139    1.439   .     S
C138   C509    1.340   1_545 S
C138   H537    1.086   1_545 S
C139   O175    1.279   .     A
C139   O181    1.279   .     A
C140   O182    1.269   .     A
C140   O176    1.278   .     A
C141   O171    1.271   .     A
C141   O173    1.270   .     A
C141   C144    1.448   .     S
C142   O174    1.286   .     A
C142   C143    1.470   .     S
C142   O172    1.283   .     A
C143   C147    1.398   .     A
C145   H169    1.084   .     S
C145   C149    1.403   .     A
C146   H160    1.111   .     S
C146   H161    1.111   .     S
C146   C509    1.518   1_545 S
C146   H531    1.109   1_545 S
C147   C148    1.408   .     A
C147   H156    1.074   .     S
C148   C150    1.427   .     A
C148   C149    1.418   .     A
C149   C711    1.390   .     S
C150   C709    1.427   .     S
C151   C152    1.416   .     A
C151   C708    1.427   1_554 S
C152   H157    1.076   .     S
C152   C153    1.386   .     A
C153   H154    1.084   .     S
C153   C707    1.390   1_554 S
H159   C332    1.109   .     S
H164   C11     1.086   1_655 S
H165   C324    1.086   .     S
O170   Zn183   1.965   .     S
O170   Zn186   1.938   .     S
O170   Zn185   1.930   .     S
O170   Zn184   1.946   .     S
O171   Zn184   1.937   .     S
O172   Zn186   1.948   .     S
O173   Zn185   1.944   .     S
O174   Zn183   1.935   .     S
O175   Zn183   1.929   .     S
O176   Zn186   1.930   .     S
O177   Zn184   1.927   .     S
O178   Zn185   1.938   .     S
O179   Zn186   1.931   .     S
O180   Zn183   1.920   .     S
O181   Zn184   1.939   .     S
O182   Zn185   1.934   .     S
C187   C197    1.439   .     S
C187   O241    1.273   .     A
C187   O239    1.273   .     A
C188   H220    1.075   .     S
C188   C189    1.384   .     A
C188   C212    1.416   .     A
C189   H230    1.084   .     S
C189   C749    1.389   .     S
C190   O240    1.283   .     A
C190   O242    1.279   .     A
C190   C196    1.456   .     S
C191   C192    1.421   .     A
C191   C193    1.403   .     A
C191   C747    1.389   1_554 S
C192   C213    1.427   .     A
C192   C195    1.410   .     A
C193   C194    1.390   .     A
C193   H224    1.084   .     S
C194   H229    1.083   .     S
C194   C206    1.394   .     A
C195   C206    1.392   .     A
C195   H228    1.077   .     S
C196   C259    1.336   .     S
C196   H287    1.087   .     S
C197   C320    1.336   1_455 S
C197   H350    1.086   1_455 S
C198   C207    1.391   .     A
C198   C205    1.400   .     A
C198   H217    1.083   .     S
C199   C202    1.462   .     S
C199   C386    1.340   .     S
C199   C394    1.518   .     S
C200   C201    1.439   .     S
C201   O237    1.279   .     A
C201   O243    1.279   .     A
C202   O244    1.269   .     A
C202   O238    1.278   .     A
C203   O233    1.271   .     A
C203   O235    1.270   .     A
C203   C206    1.448   .     S
C204   O236    1.286   .     A
C204   C205    1.470   .     S
C204   O234    1.283   .     A
C205   C209    1.398   .     A
C207   H231    1.084   .     S
C207   C211    1.403   .     A
C208   H222    1.111   .     S
C208   H223    1.111   .     S
C209   C210    1.408   .     A
C209   H218    1.074   .     S
C210   C212    1.427   .     A
C210   C211    1.418   .     A
C211   C773    1.390   .     S
C212   C771    1.427   .     S
C213   C214    1.416   .     A
C213   C770    1.427   1_554 S
C214   H219    1.076   .     S
C214   C215    1.386   .     A
C215   H216    1.084   .     S
C215   C769    1.390   1_554 S
H221   C394    1.109   .     S
H225   C320    1.087   1_455 S
H226   C259    1.086   .     S
H227   C386    1.086   .     S
O232   Zn245   1.965   .     S
O232   Zn248   1.938   .     S
O232   Zn247   1.930   .     S
O232   Zn246   1.946   .     S
O233   Zn246   1.937   .     S
O234   Zn248   1.948   .     S
O235   Zn247   1.944   .     S
O236   Zn245   1.935   .     S
O237   Zn245   1.929   .     S
O238   Zn248   1.930   .     S
O239   Zn246   1.927   .     S
O240   Zn247   1.938   .     S
O241   Zn248   1.931   .     S
O242   Zn245   1.920   .     S
O243   Zn246   1.939   .     S
O244   Zn247   1.934   .     S
C249   C259    1.439   .     S
C249   O303    1.273   .     A
C249   O301    1.273   .     A
C250   H282    1.075   .     S
C250   C251    1.384   .     A
C250   C274    1.416   .     A
C251   H292    1.084   .     S
C251   C811    1.389   .     S
C252   O302    1.283   .     A
C252   O304    1.279   .     A
C252   C258    1.456   .     S
C253   C254    1.421   .     A
C253   C255    1.403   .     A
C253   C809    1.389   1_554 S
C254   C275    1.427   .     A
C254   C257    1.410   .     A
C255   C256    1.390   .     A
C255   H286    1.084   .     S
C256   H291    1.083   .     S
C256   C268    1.394   .     A
C257   C268    1.392   .     A
C257   H290    1.077   .     S
C258   C321    1.336   .     S
C258   H349    1.087   .     S
C260   C269    1.391   .     A
C260   C267    1.400   .     A
C260   H279    1.083   .     S
C261   C264    1.462   .     S
C261   C448    1.340   .     S
C261   C456    1.518   .     S
C262   C263    1.439   .     S
C263   O299    1.279   .     A
C263   O305    1.279   .     A
C264   O306    1.269   .     A
C264   O300    1.278   .     A
C265   O295    1.271   .     A
C265   O297    1.270   .     A
C265   C268    1.448   .     S
C266   O298    1.286   .     A
C266   C267    1.470   .     S
C266   O296    1.283   .     A
C267   C271    1.398   .     A
C269   H293    1.084   .     S
C269   C273    1.403   .     A
C270   H284    1.111   .     S
C270   H285    1.111   .     S
C271   C272    1.408   .     A
C271   H280    1.074   .     S
C272   C274    1.427   .     A
C272   C273    1.418   .     A
C273   C835    1.390   .     S
C274   C833    1.427   .     S
C275   C276    1.416   .     A
C275   C832    1.427   1_554 S
C276   H281    1.076   .     S
C276   C277    1.386   .     A
C277   H278    1.084   .     S
C277   C831    1.390   1_554 S
H283   C456    1.109   .     S
H288   C321    1.086   .     S
H289   C448    1.086   .     S
O294   Zn307   1.965   .     S
O294   Zn310   1.938   .     S
O294   Zn309   1.930   .     S
O294   Zn308   1.946   .     S
O295   Zn308   1.937   .     S
O296   Zn310   1.948   .     S
O297   Zn309   1.944   .     S
O298   Zn307   1.935   .     S
O299   Zn307   1.929   .     S
O300   Zn310   1.930   .     S
O301   Zn308   1.927   .     S
O302   Zn309   1.938   .     S
O303   Zn310   1.931   .     S
O304   Zn307   1.920   .     S
O305   Zn308   1.939   .     S
O306   Zn309   1.934   .     S
C311   C321    1.439   .     S
C311   O365    1.273   .     A
C311   O363    1.273   .     A
C312   H344    1.075   .     S
C312   C313    1.384   .     A
C312   C336    1.416   .     A
C313   H354    1.084   .     S
C313   C873    1.389   .     S
C314   O364    1.283   .     A
C314   O366    1.279   .     A
C314   C320    1.456   .     S
C315   C316    1.421   .     A
C315   C317    1.403   .     A
C315   C871    1.389   1_554 S
C316   C337    1.427   .     A
C316   C319    1.410   .     A
C317   C318    1.390   .     A
C317   H348    1.084   .     S
C318   H353    1.083   .     S
C318   C330    1.394   .     A
C319   C330    1.392   .     A
C319   H352    1.077   .     S
C320   C197    1.336   1_655 S
C320   H225    1.087   1_655 S
C322   C331    1.391   .     A
C322   C329    1.400   .     A
C322   H341    1.083   .     S
C323   C326    1.462   .     S
C323   C510    1.340   .     S
C323   C518    1.518   .     S
C324   C325    1.439   .     S
C325   O361    1.279   .     A
C325   O367    1.279   .     A
C326   O368    1.269   .     A
C326   O362    1.278   .     A
C327   O357    1.271   .     A
C327   O359    1.270   .     A
C327   C330    1.448   .     S
C328   O360    1.286   .     A
C328   C329    1.470   .     S
C328   O358    1.283   .     A
C329   C333    1.398   .     A
C331   H355    1.084   .     S
C331   C335    1.403   .     A
C332   H346    1.111   .     S
C332   H347    1.111   .     S
C333   C334    1.408   .     A
C333   H342    1.074   .     S
C334   C336    1.427   .     A
C334   C335    1.418   .     A
C335   C897    1.390   .     S
C336   C895    1.427   .     S
C337   C338    1.416   .     A
C337   C894    1.427   1_554 S
C338   H343    1.076   .     S
C338   C339    1.386   .     A
C339   H340    1.084   .     S
C339   C893    1.390   1_554 S
H345   C518    1.109   .     S
H350   C197    1.086   1_655 S
H351   C510    1.086   .     S
O356   Zn369   1.965   .     S
O356   Zn372   1.938   .     S
O356   Zn371   1.930   .     S
O356   Zn370   1.946   .     S
O357   Zn370   1.937   .     S
O358   Zn372   1.948   .     S
O359   Zn371   1.944   .     S
O360   Zn369   1.935   .     S
O361   Zn369   1.929   .     S
O362   Zn372   1.930   .     S
O363   Zn370   1.927   .     S
O364   Zn371   1.938   .     S
O365   Zn372   1.931   .     S
O366   Zn369   1.920   .     S
O367   Zn370   1.939   .     S
O368   Zn371   1.934   .     S
C373   C383    1.439   .     S
C373   O427    1.273   .     A
C373   O425    1.273   .     A
C374   H406    1.075   .     S
C374   C375    1.384   .     A
C374   C398    1.416   .     A
C375   H416    1.084   .     S
C375   C935    1.389   .     S
C376   O426    1.283   .     A
C376   O428    1.279   .     A
C376   C382    1.456   .     S
C377   C378    1.421   .     A
C377   C379    1.403   .     A
C377   C933    1.389   1_554 S
C378   C399    1.427   .     A
C378   C381    1.410   .     A
C379   C380    1.390   .     A
C379   H410    1.084   .     S
C380   H415    1.083   .     S
C380   C392    1.394   .     A
C381   C392    1.392   .     A
C381   H414    1.077   .     S
C382   C445    1.336   .     S
C382   H473    1.087   .     S
C383   C506    1.336   1_455 S
C383   H536    1.086   1_455 S
C384   C393    1.391   .     A
C384   C391    1.400   .     A
C384   H403    1.083   .     S
C385   C388    1.462   .     S
C385   C14     1.340   1_565 S
C385   C22     1.518   1_565 S
C386   C387    1.439   .     S
C387   O423    1.279   .     A
C387   O429    1.279   .     A
C388   O430    1.269   .     A
C388   O424    1.278   .     A
C389   O419    1.271   .     A
C389   O421    1.270   .     A
C389   C392    1.448   .     S
C390   O422    1.286   .     A
C390   C391    1.470   .     S
C390   O420    1.283   .     A
C391   C395    1.398   .     A
C393   H417    1.084   .     S
C393   C397    1.403   .     A
C394   H408    1.111   .     S
C394   H409    1.111   .     S
C395   C396    1.408   .     A
C395   H404    1.074   .     S
C396   C398    1.427   .     A
C396   C397    1.418   .     A
C397   C959    1.390   .     S
C398   C957    1.427   .     S
C399   C400    1.416   .     A
C399   C956    1.427   1_554 S
C400   H405    1.076   .     S
C400   C401    1.386   .     A
C401   H402    1.084   .     S
C401   C955    1.390   1_554 S
H407   C22     1.109   1_565 S
H411   C506    1.087   1_455 S
H412   C445    1.086   .     S
H413   C14     1.086   1_565 S
O418   Zn431   1.965   .     S
O418   Zn434   1.938   .     S
O418   Zn433   1.930   .     S
O418   Zn432   1.946   .     S
O419   Zn432   1.937   .     S
O420   Zn434   1.948   .     S
O421   Zn433   1.944   .     S
O422   Zn431   1.935   .     S
O423   Zn431   1.929   .     S
O424   Zn434   1.930   .     S
O425   Zn432   1.927   .     S
O426   Zn433   1.938   .     S
O427   Zn434   1.931   .     S
O428   Zn431   1.920   .     S
O429   Zn432   1.939   .     S
O430   Zn433   1.934   .     S
C435   C445    1.439   .     S
C435   O489    1.273   .     A
C435   O487    1.273   .     A
C436   H468    1.075   .     S
C436   C437    1.384   .     A
C436   C460    1.416   .     A
C437   H478    1.084   .     S
C437   C997    1.389   .     S
C438   O488    1.283   .     A
C438   O490    1.279   .     A
C438   C444    1.456   .     S
C439   C440    1.421   .     A
C439   C441    1.403   .     A
C439   C995    1.389   1_554 S
C440   C461    1.427   .     A
C440   C443    1.410   .     A
C441   C442    1.390   .     A
C441   H472    1.084   .     S
C442   H477    1.083   .     S
C442   C454    1.394   .     A
C443   C454    1.392   .     A
C443   H476    1.077   .     S
C444   C507    1.336   .     S
C444   H535    1.087   .     S
C446   C455    1.391   .     A
C446   C453    1.400   .     A
C446   H465    1.083   .     S
C447   C450    1.462   .     S
C447   C76     1.340   1_565 S
C447   C84     1.518   1_565 S
C448   C449    1.439   .     S
C449   O485    1.279   .     A
C449   O491    1.279   .     A
C450   O492    1.269   .     A
C450   O486    1.278   .     A
C451   O481    1.271   .     A
C451   O483    1.270   .     A
C451   C454    1.448   .     S
C452   O484    1.286   .     A
C452   C453    1.470   .     S
C452   O482    1.283   .     A
C453   C457    1.398   .     A
C455   H479    1.084   .     S
C455   C459    1.403   .     A
C456   H470    1.111   .     S
C456   H471    1.111   .     S
C457   C458    1.408   .     A
C457   H466    1.074   .     S
C458   C460    1.427   .     A
C458   C459    1.418   .     A
C459   C1021   1.390   .     S
C460   C1019   1.427   .     S
C461   C462    1.416   .     A
C461   C1018   1.427   1_554 S
C462   H467    1.076   .     S
C462   C463    1.386   .     A
C463   H464    1.084   .     S
C463   C1017   1.390   1_554 S
H469   C84     1.109   1_565 S
H474   C507    1.086   .     S
H475   C76     1.086   1_565 S
O480   Zn493   1.965   .     S
O480   Zn496   1.938   .     S
O480   Zn495   1.930   .     S
O480   Zn494   1.946   .     S
O481   Zn494   1.937   .     S
O482   Zn496   1.948   .     S
O483   Zn495   1.944   .     S
O484   Zn493   1.935   .     S
O485   Zn493   1.929   .     S
O486   Zn496   1.930   .     S
O487   Zn494   1.927   .     S
O488   Zn495   1.938   .     S
O489   Zn496   1.931   .     S
O490   Zn493   1.920   .     S
O491   Zn494   1.939   .     S
O492   Zn495   1.934   .     S
C497   C507    1.439   .     S
C497   O551    1.273   .     A
C497   O549    1.273   .     A
C498   H530    1.075   .     S
C498   C499    1.384   .     A
C498   C522    1.416   .     A
C499   H540    1.084   .     S
C499   C1059   1.389   .     S
C500   O550    1.283   .     A
C500   O552    1.279   .     A
C500   C506    1.456   .     S
C501   C502    1.421   .     A
C501   C503    1.403   .     A
C501   C1057   1.389   1_554 S
C502   C523    1.427   .     A
C502   C505    1.410   .     A
C503   C504    1.390   .     A
C503   H534    1.084   .     S
C504   H539    1.083   .     S
C504   C516    1.394   .     A
C505   C516    1.392   .     A
C505   H538    1.077   .     S
C506   C383    1.336   1_655 S
C506   H411    1.087   1_655 S
C508   C517    1.391   .     A
C508   C515    1.400   .     A
C508   H527    1.083   .     S
C509   C512    1.462   .     S
C509   C138    1.340   1_565 S
C509   C146    1.518   1_565 S
C510   C511    1.439   .     S
C511   O547    1.279   .     A
C511   O553    1.279   .     A
C512   O554    1.269   .     A
C512   O548    1.278   .     A
C513   O543    1.271   .     A
C513   O545    1.270   .     A
C513   C516    1.448   .     S
C514   O546    1.286   .     A
C514   C515    1.470   .     S
C514   O544    1.283   .     A
C515   C519    1.398   .     A
C517   H541    1.084   .     S
C517   C521    1.403   .     A
C518   H532    1.111   .     S
C518   H533    1.111   .     S
C519   C520    1.408   .     A
C519   H528    1.074   .     S
C520   C522    1.427   .     A
C520   C521    1.418   .     A
C521   C1083   1.390   .     S
C522   C1081   1.427   .     S
C523   C524    1.416   .     A
C523   C1080   1.427   1_554 S
C524   H529    1.076   .     S
C524   C525    1.386   .     A
C525   H526    1.084   .     S
C525   C1079   1.390   1_554 S
H531   C146    1.109   1_565 S
H536   C383    1.086   1_655 S
H537   C138    1.086   1_565 S
O542   Zn555   1.965   .     S
O542   Zn558   1.938   .     S
O542   Zn557   1.930   .     S
O542   Zn556   1.946   .     S
O543   Zn556   1.937   .     S
O544   Zn558   1.948   .     S
O545   Zn557   1.944   .     S
O546   Zn555   1.935   .     S
O547   Zn555   1.929   .     S
O548   Zn558   1.930   .     S
O549   Zn556   1.927   .     S
O550   Zn557   1.938   .     S
O551   Zn558   1.931   .     S
O552   Zn555   1.920   .     S
O553   Zn556   1.939   .     S
O554   Zn557   1.934   .     S
C559   C569    1.439   .     S
C559   O613    1.273   .     A
C559   O611    1.273   .     A
C560   H592    1.075   .     S
C560   C561    1.384   .     A
C560   C584    1.416   .     A
C561   H602    1.084   .     S
C561   C5      1.389   1_556 S
C562   O612    1.283   .     A
C562   O614    1.279   .     A
C562   C568    1.456   .     S
C563   C564    1.421   .     A
C563   C565    1.403   .     A
C564   C585    1.427   .     A
C564   C567    1.410   .     A
C565   C566    1.390   .     A
C565   H596    1.084   .     S
C566   H601    1.083   .     S
C566   C578    1.394   .     A
C567   C578    1.392   .     A
C567   H600    1.077   .     S
C568   C631    1.336   .     S
C568   H659    1.087   .     S
C569   C692    1.336   1_455 S
C569   H722    1.086   1_455 S
C570   C579    1.391   .     A
C570   C577    1.400   .     A
C570   H589    1.083   .     S
C571   C574    1.462   .     S
C571   C758    1.340   .     S
C571   C766    1.518   .     S
C572   C573    1.439   .     S
C572   C943    1.340   1_545 S
C572   H971    1.086   1_545 S
C573   O609    1.279   .     A
C573   O615    1.279   .     A
C574   O616    1.269   .     A
C574   O610    1.278   .     A
C575   O605    1.271   .     A
C575   O607    1.270   .     A
C575   C578    1.448   .     S
C576   O608    1.286   .     A
C576   C577    1.470   .     S
C576   O606    1.283   .     A
C577   C581    1.398   .     A
C579   H603    1.084   .     S
C579   C583    1.403   .     A
C580   H594    1.111   .     S
C580   H595    1.111   .     S
C580   C943    1.518   1_545 S
C580   H965    1.109   1_545 S
C581   C582    1.408   .     A
C581   H590    1.074   .     S
C582   C584    1.427   .     A
C582   C583    1.418   .     A
C583   C29     1.390   1_556 S
C584   C27     1.427   1_556 S
C585   C586    1.416   .     A
C586   H591    1.076   .     S
C586   C587    1.386   .     A
C587   H588    1.084   .     S
H593   C766    1.109   .     S
H597   C692    1.087   1_455 S
H598   C631    1.086   .     S
H599   C758    1.086   .     S
O604   Zn617   1.965   .     S
O604   Zn620   1.938   .     S
O604   Zn619   1.930   .     S
O604   Zn618   1.946   .     S
O605   Zn618   1.937   .     S
O606   Zn620   1.948   .     S
O607   Zn619   1.944   .     S
O608   Zn617   1.935   .     S
O609   Zn617   1.929   .     S
O610   Zn620   1.930   .     S
O611   Zn618   1.927   .     S
O612   Zn619   1.938   .     S
O613   Zn620   1.931   .     S
O614   Zn617   1.920   .     S
O615   Zn618   1.939   .     S
O616   Zn619   1.934   .     S
C621   C631    1.439   .     S
C621   O675    1.273   .     A
C621   O673    1.273   .     A
C622   H654    1.075   .     S
C622   C623    1.384   .     A
C622   C646    1.416   .     A
C623   H664    1.084   .     S
C623   C67     1.389   1_556 S
C624   O674    1.283   .     A
C624   O676    1.279   .     A
C624   C630    1.456   .     S
C625   C626    1.421   .     A
C625   C627    1.403   .     A
C626   C647    1.427   .     A
C626   C629    1.410   .     A
C627   C628    1.390   .     A
C627   H658    1.084   .     S
C628   H663    1.083   .     S
C628   C640    1.394   .     A
C629   C640    1.392   .     A
C629   H662    1.077   .     S
C630   C693    1.336   .     S
C630   H721    1.087   .     S
C632   C641    1.391   .     A
C632   C639    1.400   .     A
C632   H651    1.083   .     S
C633   C636    1.462   .     S
C633   C820    1.340   .     S
C633   C828    1.518   .     S
C634   C635    1.439   .     S
C634   C1005   1.340   1_545 S
C634   H1033   1.086   1_545 S
C635   O671    1.279   .     A
C635   O677    1.279   .     A
C636   O678    1.269   .     A
C636   O672    1.278   .     A
C637   O667    1.271   .     A
C637   O669    1.270   .     A
C637   C640    1.448   .     S
C638   O670    1.286   .     A
C638   C639    1.470   .     S
C638   O668    1.283   .     A
C639   C643    1.398   .     A
C641   H665    1.084   .     S
C641   C645    1.403   .     A
C642   H656    1.111   .     S
C642   H657    1.111   .     S
C642   C1005   1.518   1_545 S
C642   H1027   1.109   1_545 S
C643   C644    1.408   .     A
C643   H652    1.074   .     S
C644   C646    1.427   .     A
C644   C645    1.418   .     A
C645   C91     1.390   1_556 S
C646   C89     1.427   1_556 S
C647   C648    1.416   .     A
C648   H653    1.076   .     S
C648   C649    1.386   .     A
C649   H650    1.084   .     S
H655   C828    1.109   .     S
H660   C693    1.086   .     S
H661   C820    1.086   .     S
O666   Zn679   1.965   .     S
O666   Zn682   1.938   .     S
O666   Zn681   1.930   .     S
O666   Zn680   1.946   .     S
O667   Zn680   1.937   .     S
O668   Zn682   1.948   .     S
O669   Zn681   1.944   .     S
O670   Zn679   1.935   .     S
O671   Zn679   1.929   .     S
O672   Zn682   1.930   .     S
O673   Zn680   1.927   .     S
O674   Zn681   1.938   .     S
O675   Zn682   1.931   .     S
O676   Zn679   1.920   .     S
O677   Zn680   1.939   .     S
O678   Zn681   1.934   .     S
C683   C693    1.439   .     S
C683   O737    1.273   .     A
C683   O735    1.273   .     A
C684   H716    1.075   .     S
C684   C685    1.384   .     A
C684   C708    1.416   .     A
C685   H726    1.084   .     S
C685   C129    1.389   1_556 S
C686   O736    1.283   .     A
C686   O738    1.279   .     A
C686   C692    1.456   .     S
C687   C688    1.421   .     A
C687   C689    1.403   .     A
C688   C709    1.427   .     A
C688   C691    1.410   .     A
C689   C690    1.390   .     A
C689   H720    1.084   .     S
C690   H725    1.083   .     S
C690   C702    1.394   .     A
C691   C702    1.392   .     A
C691   H724    1.077   .     S
C692   C569    1.336   1_655 S
C692   H597    1.087   1_655 S
C694   C703    1.391   .     A
C694   C701    1.400   .     A
C694   H713    1.083   .     S
C695   C698    1.462   .     S
C695   C882    1.340   .     S
C695   C890    1.518   .     S
C696   C697    1.439   .     S
C696   C1067   1.340   1_545 S
C696   H1095   1.086   1_545 S
C697   O733    1.279   .     A
C697   O739    1.279   .     A
C698   O740    1.269   .     A
C698   O734    1.278   .     A
C699   O729    1.271   .     A
C699   O731    1.270   .     A
C699   C702    1.448   .     S
C700   O732    1.286   .     A
C700   C701    1.470   .     S
C700   O730    1.283   .     A
C701   C705    1.398   .     A
C703   H727    1.084   .     S
C703   C707    1.403   .     A
C704   H718    1.111   .     S
C704   H719    1.111   .     S
C704   C1067   1.518   1_545 S
C704   H1089   1.109   1_545 S
C705   C706    1.408   .     A
C705   H714    1.074   .     S
C706   C708    1.427   .     A
C706   C707    1.418   .     A
C707   C153    1.390   1_556 S
C708   C151    1.427   1_556 S
C709   C710    1.416   .     A
C710   H715    1.076   .     S
C710   C711    1.386   .     A
C711   H712    1.084   .     S
H717   C890    1.109   .     S
H722   C569    1.086   1_655 S
H723   C882    1.086   .     S
O728   Zn741   1.965   .     S
O728   Zn744   1.938   .     S
O728   Zn743   1.930   .     S
O728   Zn742   1.946   .     S
O729   Zn742   1.937   .     S
O730   Zn744   1.948   .     S
O731   Zn743   1.944   .     S
O732   Zn741   1.935   .     S
O733   Zn741   1.929   .     S
O734   Zn744   1.930   .     S
O735   Zn742   1.927   .     S
O736   Zn743   1.938   .     S
O737   Zn744   1.931   .     S
O738   Zn741   1.920   .     S
O739   Zn742   1.939   .     S
O740   Zn743   1.934   .     S
C745   C755    1.439   .     S
C745   O799    1.273   .     A
C745   O797    1.273   .     A
C746   H778    1.075   .     S
C746   C747    1.384   .     A
C746   C770    1.416   .     A
C747   H788    1.084   .     S
C747   C191    1.389   1_556 S
C748   O798    1.283   .     A
C748   O800    1.279   .     A
C748   C754    1.456   .     S
C749   C750    1.421   .     A
C749   C751    1.403   .     A
C750   C771    1.427   .     A
C750   C753    1.410   .     A
C751   C752    1.390   .     A
C751   H782    1.084   .     S
C752   H787    1.083   .     S
C752   C764    1.394   .     A
C753   C764    1.392   .     A
C753   H786    1.077   .     S
C754   C817    1.336   .     S
C754   H845    1.087   .     S
C755   C878    1.336   1_455 S
C755   H908    1.086   1_455 S
C756   C765    1.391   .     A
C756   C763    1.400   .     A
C756   H775    1.083   .     S
C757   C760    1.462   .     S
C757   C944    1.340   .     S
C757   C952    1.518   .     S
C758   C759    1.439   .     S
C759   O795    1.279   .     A
C759   O801    1.279   .     A
C760   O802    1.269   .     A
C760   O796    1.278   .     A
C761   O791    1.271   .     A
C761   O793    1.270   .     A
C761   C764    1.448   .     S
C762   O794    1.286   .     A
C762   C763    1.470   .     S
C762   O792    1.283   .     A
C763   C767    1.398   .     A
C765   H789    1.084   .     S
C765   C769    1.403   .     A
C766   H780    1.111   .     S
C766   H781    1.111   .     S
C767   C768    1.408   .     A
C767   H776    1.074   .     S
C768   C770    1.427   .     A
C768   C769    1.418   .     A
C769   C215    1.390   1_556 S
C770   C213    1.427   1_556 S
C771   C772    1.416   .     A
C772   H777    1.076   .     S
C772   C773    1.386   .     A
C773   H774    1.084   .     S
H779   C952    1.109   .     S
H783   C878    1.087   1_455 S
H784   C817    1.086   .     S
H785   C944    1.086   .     S
O790   Zn803   1.965   .     S
O790   Zn806   1.938   .     S
O790   Zn805   1.930   .     S
O790   Zn804   1.946   .     S
O791   Zn804   1.937   .     S
O792   Zn806   1.948   .     S
O793   Zn805   1.944   .     S
O794   Zn803   1.935   .     S
O795   Zn803   1.929   .     S
O796   Zn806   1.930   .     S
O797   Zn804   1.927   .     S
O798   Zn805   1.938   .     S
O799   Zn806   1.931   .     S
O800   Zn803   1.920   .     S
O801   Zn804   1.939   .     S
O802   Zn805   1.934   .     S
C807   C817    1.439   .     S
C807   O861    1.273   .     A
C807   O859    1.273   .     A
C808   H840    1.075   .     S
C808   C809    1.384   .     A
C808   C832    1.416   .     A
C809   H850    1.084   .     S
C809   C253    1.389   1_556 S
C810   O860    1.283   .     A
C810   O862    1.279   .     A
C810   C816    1.456   .     S
C811   C812    1.421   .     A
C811   C813    1.403   .     A
C812   C833    1.427   .     A
C812   C815    1.410   .     A
C813   C814    1.390   .     A
C813   H844    1.084   .     S
C814   H849    1.083   .     S
C814   C826    1.394   .     A
C815   C826    1.392   .     A
C815   H848    1.077   .     S
C816   C879    1.336   .     S
C816   H907    1.087   .     S
C818   C827    1.391   .     A
C818   C825    1.400   .     A
C818   H837    1.083   .     S
C819   C822    1.462   .     S
C819   C1006   1.340   .     S
C819   C1014   1.518   .     S
C820   C821    1.439   .     S
C821   O857    1.279   .     A
C821   O863    1.279   .     A
C822   O864    1.269   .     A
C822   O858    1.278   .     A
C823   O853    1.271   .     A
C823   O855    1.270   .     A
C823   C826    1.448   .     S
C824   O856    1.286   .     A
C824   C825    1.470   .     S
C824   O854    1.283   .     A
C825   C829    1.398   .     A
C827   H851    1.084   .     S
C827   C831    1.403   .     A
C828   H842    1.111   .     S
C828   H843    1.111   .     S
C829   C830    1.408   .     A
C829   H838    1.074   .     S
C830   C832    1.427   .     A
C830   C831    1.418   .     A
C831   C277    1.390   1_556 S
C832   C275    1.427   1_556 S
C833   C834    1.416   .     A
C834   H839    1.076   .     S
C834   C835    1.386   .     A
C835   H836    1.084   .     S
H841   C1014   1.109   .     S
H846   C879    1.086   .     S
H847   C1006   1.086   .     S
O852   Zn865   1.965   .     S
O852   Zn868   1.938   .     S
O852   Zn867   1.930   .     S
O852   Zn866   1.946   .     S
O853   Zn866   1.937   .     S
O854   Zn868   1.948   .     S
O855   Zn867   1.944   .     S
O856   Zn865   1.935   .     S
O857   Zn865   1.929   .     S
O858   Zn868   1.930   .     S
O859   Zn866   1.927   .     S
O860   Zn867   1.938   .     S
O861   Zn868   1.931   .     S
O862   Zn865   1.920   .     S
O863   Zn866   1.939   .     S
O864   Zn867   1.934   .     S
C869   C879    1.439   .     S
C869   O923    1.273   .     A
C869   O921    1.273   .     A
C870   H902    1.075   .     S
C870   C871    1.384   .     A
C870   C894    1.416   .     A
C871   H912    1.084   .     S
C871   C315    1.389   1_556 S
C872   O922    1.283   .     A
C872   O924    1.279   .     A
C872   C878    1.456   .     S
C873   C874    1.421   .     A
C873   C875    1.403   .     A
C874   C895    1.427   .     A
C874   C877    1.410   .     A
C875   C876    1.390   .     A
C875   H906    1.084   .     S
C876   H911    1.083   .     S
C876   C888    1.394   .     A
C877   C888    1.392   .     A
C877   H910    1.077   .     S
C878   C755    1.336   1_655 S
C878   H783    1.087   1_655 S
C880   C889    1.391   .     A
C880   C887    1.400   .     A
C880   H899    1.083   .     S
C881   C884    1.462   .     S
C881   C1068   1.340   .     S
C881   C1076   1.518   .     S
C882   C883    1.439   .     S
C883   O919    1.279   .     A
C883   O925    1.279   .     A
C884   O926    1.269   .     A
C884   O920    1.278   .     A
C885   O915    1.271   .     A
C885   O917    1.270   .     A
C885   C888    1.448   .     S
C886   O918    1.286   .     A
C886   C887    1.470   .     S
C886   O916    1.283   .     A
C887   C891    1.398   .     A
C889   H913    1.084   .     S
C889   C893    1.403   .     A
C890   H904    1.111   .     S
C890   H905    1.111   .     S
C891   C892    1.408   .     A
C891   H900    1.074   .     S
C892   C894    1.427   .     A
C892   C893    1.418   .     A
C893   C339    1.390   1_556 S
C894   C337    1.427   1_556 S
C895   C896    1.416   .     A
C896   H901    1.076   .     S
C896   C897    1.386   .     A
C897   H898    1.084   .     S
H903   C1076   1.109   .     S
H908   C755    1.086   1_655 S
H909   C1068   1.086   .     S
O914   Zn927   1.965   .     S
O914   Zn930   1.938   .     S
O914   Zn929   1.930   .     S
O914   Zn928   1.946   .     S
O915   Zn928   1.937   .     S
O916   Zn930   1.948   .     S
O917   Zn929   1.944   .     S
O918   Zn927   1.935   .     S
O919   Zn927   1.929   .     S
O920   Zn930   1.930   .     S
O921   Zn928   1.927   .     S
O922   Zn929   1.938   .     S
O923   Zn930   1.931   .     S
O924   Zn927   1.920   .     S
O925   Zn928   1.939   .     S
O926   Zn929   1.934   .     S
C931   C941    1.439   .     S
C931   O985    1.273   .     A
C931   O983    1.273   .     A
C932   H964    1.075   .     S
C932   C933    1.384   .     A
C932   C956    1.416   .     A
C933   H974    1.084   .     S
C933   C377    1.389   1_556 S
C934   O984    1.283   .     A
C934   O986    1.279   .     A
C934   C940    1.456   .     S
C935   C936    1.421   .     A
C935   C937    1.403   .     A
C936   C957    1.427   .     A
C936   C939    1.410   .     A
C937   C938    1.390   .     A
C937   H968    1.084   .     S
C938   H973    1.083   .     S
C938   C950    1.394   .     A
C939   C950    1.392   .     A
C939   H972    1.077   .     S
C940   C1003   1.336   .     S
C940   H1031   1.087   .     S
C941   C1064   1.336   1_455 S
C941   H1094   1.086   1_455 S
C942   C951    1.391   .     A
C942   C949    1.400   .     A
C942   H961    1.083   .     S
C943   C946    1.462   .     S
C943   C572    1.340   1_565 S
C943   C580    1.518   1_565 S
C944   C945    1.439   .     S
C945   O981    1.279   .     A
C945   O987    1.279   .     A
C946   O988    1.269   .     A
C946   O982    1.278   .     A
C947   O977    1.271   .     A
C947   O979    1.270   .     A
C947   C950    1.448   .     S
C948   O980    1.286   .     A
C948   C949    1.470   .     S
C948   O978    1.283   .     A
C949   C953    1.398   .     A
C951   H975    1.084   .     S
C951   C955    1.403   .     A
C952   H966    1.111   .     S
C952   H967    1.111   .     S
C953   C954    1.408   .     A
C953   H962    1.074   .     S
C954   C956    1.427   .     A
C954   C955    1.418   .     A
C955   C401    1.390   1_556 S
C956   C399    1.427   1_556 S
C957   C958    1.416   .     A
C958   H963    1.076   .     S
C958   C959    1.386   .     A
C959   H960    1.084   .     S
H965   C580    1.109   1_565 S
H969   C1064   1.087   1_455 S
H970   C1003   1.086   .     S
H971   C572    1.086   1_565 S
O976   Zn989   1.965   .     S
O976   Zn992   1.938   .     S
O976   Zn991   1.930   .     S
O976   Zn990   1.946   .     S
O977   Zn990   1.937   .     S
O978   Zn992   1.948   .     S
O979   Zn991   1.944   .     S
O980   Zn989   1.935   .     S
O981   Zn989   1.929   .     S
O982   Zn992   1.930   .     S
O983   Zn990   1.927   .     S
O984   Zn991   1.938   .     S
O985   Zn992   1.931   .     S
O986   Zn989   1.920   .     S
O987   Zn990   1.939   .     S
O988   Zn991   1.934   .     S
C993   C1003   1.439   .     S
C993   O1047   1.273   .     A
C993   O1045   1.273   .     A
C994   H1026   1.075   .     S
C994   C995    1.384   .     A
C994   C1018   1.416   .     A
C995   H1036   1.084   .     S
C995   C439    1.389   1_556 S
C996   O1046   1.283   .     A
C996   O1048   1.279   .     A
C996   C1002   1.456   .     S
C997   C998    1.421   .     A
C997   C999    1.403   .     A
C998   C1019   1.427   .     A
C998   C1001   1.410   .     A
C999   C1000   1.390   .     A
C999   H1030   1.084   .     S
C1000  H1035   1.083   .     S
C1000  C1012   1.394   .     A
C1001  C1012   1.392   .     A
C1001  H1034   1.077   .     S
C1002  C1065   1.336   .     S
C1002  H1093   1.087   .     S
C1004  C1013   1.391   .     A
C1004  C1011   1.400   .     A
C1004  H1023   1.083   .     S
C1005  C1008   1.462   .     S
C1005  C634    1.340   1_565 S
C1005  C642    1.518   1_565 S
C1006  C1007   1.439   .     S
C1007  O1043   1.279   .     A
C1007  O1049   1.279   .     A
C1008  O1050   1.269   .     A
C1008  O1044   1.278   .     A
C1009  O1039   1.271   .     A
C1009  O1041   1.270   .     A
C1009  C1012   1.448   .     S
C1010  O1042   1.286   .     A
C1010  C1011   1.470   .     S
C1010  O1040   1.283   .     A
C1011  C1015   1.398   .     A
C1013  H1037   1.084   .     S
C1013  C1017   1.403   .     A
C1014  H1028   1.111   .     S
C1014  H1029   1.111   .     S
C1015  C1016   1.408   .     A
C1015  H1024   1.074   .     S
C1016  C1018   1.427   .     A
C1016  C1017   1.418   .     A
C1017  C463    1.390   1_556 S
C1018  C461    1.427   1_556 S
C1019  C1020   1.416   .     A
C1020  H1025   1.076   .     S
C1020  C1021   1.386   .     A
C1021  H1022   1.084   .     S
H1027  C642    1.109   1_565 S
H1032  C1065   1.086   .     S
H1033  C634    1.086   1_565 S
O1038  Zn1051  1.965   .     S
O1038  Zn1054  1.938   .     S
O1038  Zn1053  1.930   .     S
O1038  Zn1052  1.946   .     S
O1039  Zn1052  1.937   .     S
O1040  Zn1054  1.948   .     S
O1041  Zn1053  1.944   .     S
O1042  Zn1051  1.935   .     S
O1043  Zn1051  1.929   .     S
O1044  Zn1054  1.930   .     S
O1045  Zn1052  1.927   .     S
O1046  Zn1053  1.938   .     S
O1047  Zn1054  1.931   .     S
O1048  Zn1051  1.920   .     S
O1049  Zn1052  1.939   .     S
O1050  Zn1053  1.934   .     S
C1055  C1065   1.439   .     S
C1055  O1109   1.273   .     A
C1055  O1107   1.273   .     A
C1056  H1088   1.075   .     S
C1056  C1057   1.384   .     A
C1056  C1080   1.416   .     A
C1057  H1098   1.084   .     S
C1057  C501    1.389   1_556 S
C1058  O1108   1.283   .     A
C1058  O1110   1.279   .     A
C1058  C1064   1.456   .     S
C1059  C1060   1.421   .     A
C1059  C1061   1.403   .     A
C1060  C1081   1.427   .     A
C1060  C1063   1.410   .     A
C1061  C1062   1.390   .     A
C1061  H1092   1.084   .     S
C1062  H1097   1.083   .     S
C1062  C1074   1.394   .     A
C1063  C1074   1.392   .     A
C1063  H1096   1.077   .     S
C1064  C941    1.336   1_655 S
C1064  H969    1.087   1_655 S
C1066  C1075   1.391   .     A
C1066  C1073   1.400   .     A
C1066  H1085   1.083   .     S
C1067  C1070   1.462   .     S
C1067  C696    1.340   1_565 S
C1067  C704    1.518   1_565 S
C1068  C1069   1.439   .     S
C1069  O1105   1.279   .     A
C1069  O1111   1.279   .     A
C1070  O1112   1.269   .     A
C1070  O1106   1.278   .     A
C1071  O1101   1.271   .     A
C1071  O1103   1.270   .     A
C1071  C1074   1.448   .     S
C1072  O1104   1.286   .     A
C1072  C1073   1.470   .     S
C1072  O1102   1.283   .     A
C1073  C1077   1.398   .     A
C1075  H1099   1.084   .     S
C1075  C1079   1.403   .     A
C1076  H1090   1.111   .     S
C1076  H1091   1.111   .     S
C1077  C1078   1.408   .     A
C1077  H1086   1.074   .     S
C1078  C1080   1.427   .     A
C1078  C1079   1.418   .     A
C1079  C525    1.390   1_556 S
C1080  C523    1.427   1_556 S
C1081  C1082   1.416   .     A
C1082  H1087   1.076   .     S
C1082  C1083   1.386   .     A
C1083  H1084   1.084   .     S
H1089  C704    1.109   1_565 S
H1094  C941    1.086   1_655 S
H1095  C696    1.086   1_565 S
O1100  Zn1113  1.965   .     S
O1100  Zn1116  1.938   .     S
O1100  Zn1115  1.930   .     S
O1100  Zn1114  1.946   .     S
O1101  Zn1114  1.937   .     S
O1102  Zn1116  1.948   .     S
O1103  Zn1115  1.944   .     S
O1104  Zn1113  1.935   .     S
O1105  Zn1113  1.929   .     S
O1106  Zn1116  1.930   .     S
O1107  Zn1114  1.927   .     S
O1108  Zn1115  1.938   .     S
O1109  Zn1116  1.931   .     S
O1110  Zn1113  1.920   .     S
O1111  Zn1114  1.939   .     S
O1112  Zn1115  1.934   .     S
