data_str_m2_o1_o17_pcu_sym.10
_audit_creation_date              2020-01-03
_audit_creation_method            'Materials Studio'
_symmetry_space_group_name_H-M    'P1'
_symmetry_Int_Tables_number       1
_symmetry_cell_setting            triclinic
loop_
_symmetry_equiv_pos_as_xyz
  x,y,z
_cell_length_a                    32.4211
_cell_length_b                    28.8206
_cell_length_c                    30.1402
_cell_angle_alpha                 89.9973
_cell_angle_beta                  92.0289
_cell_angle_gamma                 90.0001
loop_
_atom_site_label
_atom_site_type_symbol
_atom_site_fract_x
_atom_site_fract_y
_atom_site_fract_z
_atom_site_U_iso_or_equiv
_atom_site_adp_type
_atom_site_occupancy
C1     C     0.08747   0.16673   0.25045   0.00000  Uiso   1.00
C2     C     0.04281   0.16706   0.25089   0.00000  Uiso   1.00
C3     C     0.14282   0.02499   0.21952   0.00000  Uiso   1.00
C4     C     0.18915   0.30848   0.28167   0.00000  Uiso   1.00
C5     C     0.19052   0.02498   0.28048   0.00000  Uiso   1.00
C6     C     0.14418   0.30848   0.21833   0.00000  Uiso   1.00
C7     C     0.16615   0.16665   0.16476   0.00000  Uiso   1.00
C8     C     0.16718   0.16665   0.33524   0.00000  Uiso   1.00
C9     C     0.20466   0.16498   0.40783   0.00000  Uiso   1.00
C10    C     0.12868   0.16500   0.09217   0.00000  Uiso   1.00
C11    C     0.16698   0.16684   0.38342   0.00000  Uiso   1.00
C12    C     0.24587   0.16673   0.24955   0.00000  Uiso   1.00
C13    C     0.16635   0.16685   0.11658   0.00000  Uiso   1.00
C14    C     0.12892   0.16819   0.40439   0.00000  Uiso   1.00
C15    C     0.20441   0.16819   0.09561   0.00000  Uiso   1.00
C16    C     0.12821   0.16952   0.45142   0.00000  Uiso   1.00
C17    C     0.20512   0.16950   0.04858   0.00000  Uiso   1.00
C18    C     0.16644   0.16826   0.47642   0.00000  Uiso   1.00
C19    C     0.16690   0.16826   0.02358   0.00000  Uiso   1.00
C20    C     0.20435   0.16722   0.45445   0.00000  Uiso   1.00
C21    C     0.12898   0.16724   0.04555   0.00000  Uiso   1.00
C22    C     0.09089   0.17308   0.47457   0.00000  Uiso   1.00
C23    C     0.09185   0.17086   0.02060   0.00000  Uiso   1.00
C24    C     0.24245   0.17303   0.02543   0.00000  Uiso   1.00
C25    C     0.24421   0.15935   0.38445   0.00000  Uiso   1.00
C26    C     0.08912   0.15937   0.11555   0.00000  Uiso   1.00
C27    C     0.09060   0.16505   0.37605   0.00000  Uiso   1.00
C28    C     0.24274   0.16506   0.12396   0.00000  Uiso   1.00
C29    C     0.04060   0.22893   0.44807   0.00000  Uiso   1.00
C30    C     0.29281   0.22883   0.05188   0.00000  Uiso   1.00
C31    C     0.07409   0.04260   0.18646   0.00000  Uiso   1.00
C32    C     0.19694   0.28859   0.36025   0.00000  Uiso   1.00
C33    C     0.25924   0.04260   0.31353   0.00000  Uiso   1.00
C34    C     0.24149   0.17082   0.47940   0.00000  Uiso   1.00
C35    C     0.13639   0.28861   0.13974   0.00000  Uiso   1.00
C36    C     0.02126   0.12508   0.25142   0.00000  Uiso   1.00
C37    C     0.31199   0.20928   0.24986   0.00000  Uiso   1.00
C38    C     0.31207   0.12508   0.24858   0.00000  Uiso   1.00
C39    C     0.02135   0.20928   0.25013   0.00000  Uiso   1.00
C40    C     0.29052   0.16706   0.24911   0.00000  Uiso   1.00
Cu41   Cu    0.16667   0.21355   0.25000   0.00000  Uiso   1.00
Cu42   Cu    0.16667   0.11978   0.25000   0.00000  Uiso   1.00
H43    H     0.06266   0.17425   0.03661   0.00000  Uiso   1.00
H44    H     0.29130   0.12624   0.14496   0.00000  Uiso   1.00
H45    H     0.02836   0.16100   0.46517   0.00000  Uiso   1.00
H46    H     0.03620   0.24454   0.48130   0.00000  Uiso   1.00
H47    H     0.01125   0.23187   0.42812   0.00000  Uiso   1.00
H48    H     0.06490   0.24844   0.43086   0.00000  Uiso   1.00
H49    H     0.30496   0.16086   0.03485   0.00000  Uiso   1.00
H50    H     0.29723   0.24440   0.01865   0.00000  Uiso   1.00
H51    H     0.32216   0.23173   0.07183   0.00000  Uiso   1.00
H52    H     0.26854   0.24839   0.06908   0.00000  Uiso   1.00
H53    H     0.13114   0.05524   0.15751   0.00000  Uiso   1.00
H54    H     0.27068   0.17419   0.46339   0.00000  Uiso   1.00
H55    H     0.06482   0.02092   0.15738   0.00000  Uiso   1.00
H56    H     0.05827   0.07643   0.18241   0.00000  Uiso   1.00
H57    H     0.06380   0.02571   0.21734   0.00000  Uiso   1.00
H58    H     0.24291   0.28344   0.31299   0.00000  Uiso   1.00
H59    H     0.16266   0.28958   0.36029   0.00000  Uiso   1.00
H60    H     0.20770   0.25872   0.38062   0.00000  Uiso   1.00
H61    H     0.20981   0.32013   0.37639   0.00000  Uiso   1.00
H62    H     0.20220   0.05524   0.34249   0.00000  Uiso   1.00
H63    H     0.26851   0.02091   0.34262   0.00000  Uiso   1.00
H64    H     0.27507   0.07642   0.31758   0.00000  Uiso   1.00
H65    H     0.03712   0.09221   0.25387   0.00000  Uiso   1.00
H66    H     0.26953   0.02570   0.28266   0.00000  Uiso   1.00
H67    H     0.09043   0.28344   0.18701   0.00000  Uiso   1.00
H68    H     0.12351   0.32014   0.12361   0.00000  Uiso   1.00
H69    H     0.12565   0.25872   0.11938   0.00000  Uiso   1.00
H70    H     0.17068   0.28962   0.13971   0.00000  Uiso   1.00
H71    H     0.29592   0.24224   0.24999   0.00000  Uiso   1.00
H72    H     0.29621   0.09221   0.24612   0.00000  Uiso   1.00
H73    H     0.03741   0.24224   0.25001   0.00000  Uiso   1.00
H74    H     0.29795   0.12463   0.38022   0.00000  Uiso   1.00
H75    H     0.03538   0.12466   0.11977   0.00000  Uiso   1.00
H76    H     0.04201   0.12623   0.35509   0.00000  Uiso   1.00
N77    N     0.16667   0.28402   0.25000   0.00000  Uiso   1.00
N78    N     0.16667   0.04931   0.25000   0.00000  Uiso   1.00
N79    N     0.05189   0.18055   0.45251   0.00000  Uiso   1.00
N80    N     0.28146   0.18047   0.04748   0.00000  Uiso   1.00
N81    N     0.11823   0.05026   0.18788   0.00000  Uiso   1.00
N82    N     0.21131   0.28348   0.31547   0.00000  Uiso   1.00
N83    N     0.21510   0.05025   0.31212   0.00000  Uiso   1.00
N84    N     0.12202   0.28349   0.18453   0.00000  Uiso   1.00
O85    O     0.10655   0.20625   0.24999   0.00000  Uiso   1.00
O86    O     0.27153   0.12384   0.39721   0.00000  Uiso   1.00
O87    O     0.08043   0.18578   0.14555   0.00000  Uiso   1.00
O88    O     0.06179   0.12387   0.10278   0.00000  Uiso   1.00
O89    O     0.07999   0.19782   0.35254   0.00000  Uiso   1.00
O90    O     0.06717   0.12434   0.37597   0.00000  Uiso   1.00
O91    O     0.25335   0.19785   0.14744   0.00000  Uiso   1.00
O92    O     0.26614   0.12433   0.12409   0.00000  Uiso   1.00
O93    O     0.22679   0.12709   0.25000   0.00000  Uiso   1.00
O94    O     0.22679   0.20625   0.25000   0.00000  Uiso   1.00
O95    O     0.10655   0.12709   0.24999   0.00000  Uiso   1.00
O96    O     0.16666   0.20627   0.18513   0.00000  Uiso   1.00
O97    O     0.16668   0.12707   0.31487   0.00000  Uiso   1.00
O98    O     0.16668   0.20627   0.31487   0.00000  Uiso   1.00
O99    O     0.16666   0.12707   0.18513   0.00000  Uiso   1.00
O100   O     0.25291   0.18576   0.35445   0.00000  Uiso   1.00
C101   C     0.42080   0.16673   0.25045   0.00000  Uiso   1.00
C102   C     0.37615   0.16706   0.25089   0.00000  Uiso   1.00
C103   C     0.47615   0.02499   0.21952   0.00000  Uiso   1.00
C104   C     0.52249   0.30848   0.28167   0.00000  Uiso   1.00
C105   C     0.52385   0.02498   0.28048   0.00000  Uiso   1.00
C106   C     0.47751   0.30848   0.21833   0.00000  Uiso   1.00
C107   C     0.49949   0.16665   0.16476   0.00000  Uiso   1.00
C108   C     0.50051   0.16665   0.33524   0.00000  Uiso   1.00
C109   C     0.53799   0.16498   0.40783   0.00000  Uiso   1.00
C110   C     0.46201   0.16500   0.09217   0.00000  Uiso   1.00
C111   C     0.50032   0.16684   0.38342   0.00000  Uiso   1.00
C112   C     0.57920   0.16673   0.24955   0.00000  Uiso   1.00
C113   C     0.49968   0.16685   0.11658   0.00000  Uiso   1.00
C114   C     0.46226   0.16819   0.40439   0.00000  Uiso   1.00
C115   C     0.53774   0.16819   0.09561   0.00000  Uiso   1.00
C116   C     0.46155   0.16952   0.45142   0.00000  Uiso   1.00
C117   C     0.53846   0.16950   0.04858   0.00000  Uiso   1.00
C118   C     0.49977   0.16826   0.47642   0.00000  Uiso   1.00
C119   C     0.50023   0.16826   0.02358   0.00000  Uiso   1.00
C120   C     0.53769   0.16722   0.45445   0.00000  Uiso   1.00
C121   C     0.46232   0.16724   0.04555   0.00000  Uiso   1.00
C122   C     0.42422   0.17308   0.47457   0.00000  Uiso   1.00
C123   C     0.42518   0.17086   0.02060   0.00000  Uiso   1.00
C124   C     0.57578   0.17303   0.02543   0.00000  Uiso   1.00
C125   C     0.57755   0.15935   0.38445   0.00000  Uiso   1.00
C126   C     0.42245   0.15937   0.11555   0.00000  Uiso   1.00
C127   C     0.42393   0.16505   0.37605   0.00000  Uiso   1.00
C128   C     0.57607   0.16506   0.12396   0.00000  Uiso   1.00
C129   C     0.37393   0.22893   0.44807   0.00000  Uiso   1.00
C130   C     0.62615   0.22883   0.05188   0.00000  Uiso   1.00
C131   C     0.40742   0.04260   0.18646   0.00000  Uiso   1.00
C132   C     0.53028   0.28859   0.36025   0.00000  Uiso   1.00
C133   C     0.59258   0.04260   0.31353   0.00000  Uiso   1.00
C134   C     0.57482   0.17082   0.47940   0.00000  Uiso   1.00
C135   C     0.46973   0.28861   0.13974   0.00000  Uiso   1.00
C136   C     0.35460   0.12508   0.25142   0.00000  Uiso   1.00
C137   C     0.64532   0.20928   0.24986   0.00000  Uiso   1.00
C138   C     0.64540   0.12508   0.24858   0.00000  Uiso   1.00
C139   C     0.35468   0.20928   0.25013   0.00000  Uiso   1.00
C140   C     0.62385   0.16706   0.24911   0.00000  Uiso   1.00
Cu141  Cu    0.50000   0.21355   0.25000   0.00000  Uiso   1.00
Cu142  Cu    0.50000   0.11978   0.25000   0.00000  Uiso   1.00
H143   H     0.39599   0.17425   0.03661   0.00000  Uiso   1.00
H144   H     0.62464   0.12624   0.14496   0.00000  Uiso   1.00
H145   H     0.36169   0.16100   0.46517   0.00000  Uiso   1.00
H146   H     0.36953   0.24454   0.48130   0.00000  Uiso   1.00
H147   H     0.34458   0.23187   0.42812   0.00000  Uiso   1.00
H148   H     0.39823   0.24844   0.43086   0.00000  Uiso   1.00
H149   H     0.63829   0.16086   0.03485   0.00000  Uiso   1.00
H150   H     0.63057   0.24440   0.01865   0.00000  Uiso   1.00
H151   H     0.65550   0.23173   0.07183   0.00000  Uiso   1.00
H152   H     0.60187   0.24839   0.06908   0.00000  Uiso   1.00
H153   H     0.46447   0.05524   0.15751   0.00000  Uiso   1.00
H154   H     0.60401   0.17419   0.46339   0.00000  Uiso   1.00
H155   H     0.39816   0.02092   0.15738   0.00000  Uiso   1.00
H156   H     0.39160   0.07643   0.18241   0.00000  Uiso   1.00
H157   H     0.39714   0.02571   0.21734   0.00000  Uiso   1.00
H158   H     0.57624   0.28344   0.31299   0.00000  Uiso   1.00
H159   H     0.49599   0.28958   0.36029   0.00000  Uiso   1.00
H160   H     0.54104   0.25872   0.38062   0.00000  Uiso   1.00
H161   H     0.54315   0.32013   0.37639   0.00000  Uiso   1.00
H162   H     0.53553   0.05524   0.34249   0.00000  Uiso   1.00
H163   H     0.60184   0.02091   0.34262   0.00000  Uiso   1.00
H164   H     0.60840   0.07642   0.31758   0.00000  Uiso   1.00
H165   H     0.37046   0.09221   0.25387   0.00000  Uiso   1.00
H166   H     0.60286   0.02570   0.28266   0.00000  Uiso   1.00
H167   H     0.42376   0.28344   0.18701   0.00000  Uiso   1.00
H168   H     0.45684   0.32014   0.12361   0.00000  Uiso   1.00
H169   H     0.45898   0.25872   0.11938   0.00000  Uiso   1.00
H170   H     0.50401   0.28962   0.13971   0.00000  Uiso   1.00
H171   H     0.62926   0.24224   0.24999   0.00000  Uiso   1.00
H172   H     0.62954   0.09221   0.24612   0.00000  Uiso   1.00
H173   H     0.37074   0.24224   0.25001   0.00000  Uiso   1.00
H174   H     0.63128   0.12463   0.38022   0.00000  Uiso   1.00
H175   H     0.36871   0.12466   0.11977   0.00000  Uiso   1.00
H176   H     0.37534   0.12623   0.35509   0.00000  Uiso   1.00
N177   N     0.50000   0.28402   0.25000   0.00000  Uiso   1.00
N178   N     0.50000   0.04931   0.25000   0.00000  Uiso   1.00
N179   N     0.38522   0.18055   0.45251   0.00000  Uiso   1.00
N180   N     0.61479   0.18047   0.04748   0.00000  Uiso   1.00
N181   N     0.45156   0.05026   0.18788   0.00000  Uiso   1.00
N182   N     0.54464   0.28348   0.31547   0.00000  Uiso   1.00
N183   N     0.54844   0.05025   0.31212   0.00000  Uiso   1.00
N184   N     0.45536   0.28349   0.18453   0.00000  Uiso   1.00
O185   O     0.43988   0.20625   0.24999   0.00000  Uiso   1.00
O186   O     0.60486   0.12384   0.39721   0.00000  Uiso   1.00
O187   O     0.41376   0.18578   0.14555   0.00000  Uiso   1.00
O188   O     0.39513   0.12387   0.10278   0.00000  Uiso   1.00
O189   O     0.41333   0.19782   0.35254   0.00000  Uiso   1.00
O190   O     0.40051   0.12434   0.37597   0.00000  Uiso   1.00
O191   O     0.58668   0.19785   0.14744   0.00000  Uiso   1.00
O192   O     0.59947   0.12433   0.12409   0.00000  Uiso   1.00
O193   O     0.56012   0.12709   0.25000   0.00000  Uiso   1.00
O194   O     0.56012   0.20625   0.25000   0.00000  Uiso   1.00
O195   O     0.43988   0.12709   0.24999   0.00000  Uiso   1.00
O196   O     0.49999   0.20627   0.18513   0.00000  Uiso   1.00
O197   O     0.50001   0.12707   0.31487   0.00000  Uiso   1.00
O198   O     0.50001   0.20627   0.31487   0.00000  Uiso   1.00
O199   O     0.49999   0.12707   0.18513   0.00000  Uiso   1.00
O200   O     0.58625   0.18576   0.35445   0.00000  Uiso   1.00
C201   C     0.75413   0.16673   0.25045   0.00000  Uiso   1.00
C202   C     0.70948   0.16706   0.25089   0.00000  Uiso   1.00
C203   C     0.80948   0.02499   0.21952   0.00000  Uiso   1.00
C204   C     0.85582   0.30848   0.28167   0.00000  Uiso   1.00
C205   C     0.85718   0.02498   0.28048   0.00000  Uiso   1.00
C206   C     0.81085   0.30848   0.21833   0.00000  Uiso   1.00
C207   C     0.83282   0.16665   0.16476   0.00000  Uiso   1.00
C208   C     0.83385   0.16665   0.33524   0.00000  Uiso   1.00
C209   C     0.87132   0.16498   0.40783   0.00000  Uiso   1.00
C210   C     0.79534   0.16500   0.09217   0.00000  Uiso   1.00
C211   C     0.83365   0.16684   0.38342   0.00000  Uiso   1.00
C212   C     0.91253   0.16673   0.24955   0.00000  Uiso   1.00
C213   C     0.83302   0.16685   0.11658   0.00000  Uiso   1.00
C214   C     0.79559   0.16819   0.40439   0.00000  Uiso   1.00
C215   C     0.87108   0.16819   0.09561   0.00000  Uiso   1.00
C216   C     0.79488   0.16952   0.45142   0.00000  Uiso   1.00
C217   C     0.87179   0.16950   0.04858   0.00000  Uiso   1.00
C218   C     0.83311   0.16826   0.47642   0.00000  Uiso   1.00
C219   C     0.83356   0.16826   0.02358   0.00000  Uiso   1.00
C220   C     0.87102   0.16722   0.45445   0.00000  Uiso   1.00
C221   C     0.79565   0.16724   0.04555   0.00000  Uiso   1.00
C222   C     0.75755   0.17308   0.47457   0.00000  Uiso   1.00
C223   C     0.75851   0.17086   0.02060   0.00000  Uiso   1.00
C224   C     0.90912   0.17303   0.02543   0.00000  Uiso   1.00
C225   C     0.91088   0.15935   0.38445   0.00000  Uiso   1.00
C226   C     0.75579   0.15937   0.11555   0.00000  Uiso   1.00
C227   C     0.75726   0.16505   0.37605   0.00000  Uiso   1.00
C228   C     0.90940   0.16506   0.12396   0.00000  Uiso   1.00
C229   C     0.70726   0.22893   0.44807   0.00000  Uiso   1.00
C230   C     0.95948   0.22883   0.05188   0.00000  Uiso   1.00
C231   C     0.74076   0.04260   0.18646   0.00000  Uiso   1.00
C232   C     0.86361   0.28859   0.36025   0.00000  Uiso   1.00
C233   C     0.92591   0.04260   0.31353   0.00000  Uiso   1.00
C234   C     0.90816   0.17082   0.47940   0.00000  Uiso   1.00
C235   C     0.80306   0.28861   0.13974   0.00000  Uiso   1.00
C236   C     0.68793   0.12508   0.25142   0.00000  Uiso   1.00
C237   C     0.97865   0.20928   0.24986   0.00000  Uiso   1.00
C238   C     0.97874   0.12508   0.24858   0.00000  Uiso   1.00
C239   C     0.68801   0.20928   0.25013   0.00000  Uiso   1.00
C240   C     0.95719   0.16706   0.24911   0.00000  Uiso   1.00
Cu241  Cu    0.83333   0.21355   0.25000   0.00000  Uiso   1.00
Cu242  Cu    0.83333   0.11978   0.25000   0.00000  Uiso   1.00
H243   H     0.72932   0.17425   0.03661   0.00000  Uiso   1.00
H244   H     0.95797   0.12624   0.14496   0.00000  Uiso   1.00
H245   H     0.69503   0.16100   0.46517   0.00000  Uiso   1.00
H246   H     0.70286   0.24454   0.48130   0.00000  Uiso   1.00
H247   H     0.67792   0.23187   0.42812   0.00000  Uiso   1.00
H248   H     0.73157   0.24844   0.43086   0.00000  Uiso   1.00
H249   H     0.97163   0.16086   0.03485   0.00000  Uiso   1.00
H250   H     0.96390   0.24440   0.01865   0.00000  Uiso   1.00
H251   H     0.98883   0.23173   0.07183   0.00000  Uiso   1.00
H252   H     0.93521   0.24839   0.06908   0.00000  Uiso   1.00
H253   H     0.79780   0.05524   0.15751   0.00000  Uiso   1.00
H254   H     0.93735   0.17419   0.46339   0.00000  Uiso   1.00
H255   H     0.73149   0.02092   0.15738   0.00000  Uiso   1.00
H256   H     0.72494   0.07643   0.18241   0.00000  Uiso   1.00
H257   H     0.73047   0.02571   0.21734   0.00000  Uiso   1.00
H258   H     0.90957   0.28344   0.31299   0.00000  Uiso   1.00
H259   H     0.82933   0.28958   0.36029   0.00000  Uiso   1.00
H260   H     0.87437   0.25872   0.38062   0.00000  Uiso   1.00
H261   H     0.87648   0.32013   0.37639   0.00000  Uiso   1.00
H262   H     0.86886   0.05524   0.34249   0.00000  Uiso   1.00
H263   H     0.93517   0.02091   0.34262   0.00000  Uiso   1.00
H264   H     0.94173   0.07642   0.31758   0.00000  Uiso   1.00
H265   H     0.70379   0.09221   0.25387   0.00000  Uiso   1.00
H266   H     0.93620   0.02570   0.28266   0.00000  Uiso   1.00
H267   H     0.75710   0.28344   0.18701   0.00000  Uiso   1.00
H268   H     0.79017   0.32014   0.12361   0.00000  Uiso   1.00
H269   H     0.79232   0.25872   0.11938   0.00000  Uiso   1.00
H270   H     0.83734   0.28962   0.13971   0.00000  Uiso   1.00
H271   H     0.96259   0.24224   0.24999   0.00000  Uiso   1.00
H272   H     0.96287   0.09221   0.24612   0.00000  Uiso   1.00
H273   H     0.70408   0.24224   0.25001   0.00000  Uiso   1.00
H274   H     0.96461   0.12463   0.38022   0.00000  Uiso   1.00
H275   H     0.70204   0.12466   0.11977   0.00000  Uiso   1.00
H276   H     0.70868   0.12623   0.35509   0.00000  Uiso   1.00
N277   N     0.83333   0.28402   0.25000   0.00000  Uiso   1.00
N278   N     0.83333   0.04931   0.25000   0.00000  Uiso   1.00
N279   N     0.71855   0.18055   0.45251   0.00000  Uiso   1.00
N280   N     0.94812   0.18047   0.04748   0.00000  Uiso   1.00
N281   N     0.78490   0.05026   0.18788   0.00000  Uiso   1.00
N282   N     0.87798   0.28348   0.31547   0.00000  Uiso   1.00
N283   N     0.88177   0.05025   0.31212   0.00000  Uiso   1.00
N284   N     0.78869   0.28349   0.18453   0.00000  Uiso   1.00
O285   O     0.77321   0.20625   0.24999   0.00000  Uiso   1.00
O286   O     0.93819   0.12384   0.39721   0.00000  Uiso   1.00
O287   O     0.74709   0.18578   0.14555   0.00000  Uiso   1.00
O288   O     0.72846   0.12387   0.10278   0.00000  Uiso   1.00
O289   O     0.74666   0.19782   0.35254   0.00000  Uiso   1.00
O290   O     0.73384   0.12434   0.37597   0.00000  Uiso   1.00
O291   O     0.92002   0.19785   0.14744   0.00000  Uiso   1.00
O292   O     0.93281   0.12433   0.12409   0.00000  Uiso   1.00
O293   O     0.89345   0.12709   0.25000   0.00000  Uiso   1.00
O294   O     0.89345   0.20625   0.25000   0.00000  Uiso   1.00
O295   O     0.77321   0.12709   0.24999   0.00000  Uiso   1.00
O296   O     0.83332   0.20627   0.18513   0.00000  Uiso   1.00
O297   O     0.83334   0.12707   0.31487   0.00000  Uiso   1.00
O298   O     0.83334   0.20627   0.31487   0.00000  Uiso   1.00
O299   O     0.83332   0.12707   0.18513   0.00000  Uiso   1.00
O300   O     0.91958   0.18576   0.35445   0.00000  Uiso   1.00
C301   C     0.08747   0.50007   0.25045   0.00000  Uiso   1.00
C302   C     0.04281   0.50039   0.25089   0.00000  Uiso   1.00
C303   C     0.14282   0.35832   0.21952   0.00000  Uiso   1.00
C304   C     0.18915   0.64181   0.28167   0.00000  Uiso   1.00
C305   C     0.19052   0.35832   0.28048   0.00000  Uiso   1.00
C306   C     0.14418   0.64181   0.21833   0.00000  Uiso   1.00
C307   C     0.16615   0.49998   0.16476   0.00000  Uiso   1.00
C308   C     0.16718   0.49998   0.33524   0.00000  Uiso   1.00
C309   C     0.20466   0.49832   0.40783   0.00000  Uiso   1.00
C310   C     0.12868   0.49833   0.09217   0.00000  Uiso   1.00
C311   C     0.16698   0.50018   0.38342   0.00000  Uiso   1.00
C312   C     0.24587   0.50007   0.24955   0.00000  Uiso   1.00
C313   C     0.16635   0.50018   0.11658   0.00000  Uiso   1.00
C314   C     0.12892   0.50153   0.40439   0.00000  Uiso   1.00
C315   C     0.20441   0.50152   0.09561   0.00000  Uiso   1.00
C316   C     0.12821   0.50285   0.45142   0.00000  Uiso   1.00
C317   C     0.20512   0.50284   0.04858   0.00000  Uiso   1.00
C318   C     0.16644   0.50159   0.47642   0.00000  Uiso   1.00
C319   C     0.16690   0.50159   0.02358   0.00000  Uiso   1.00
C320   C     0.20435   0.50055   0.45445   0.00000  Uiso   1.00
C321   C     0.12898   0.50057   0.04555   0.00000  Uiso   1.00
C322   C     0.09089   0.50641   0.47457   0.00000  Uiso   1.00
C323   C     0.09185   0.50419   0.02060   0.00000  Uiso   1.00
C324   C     0.24245   0.50637   0.02543   0.00000  Uiso   1.00
C325   C     0.24421   0.49269   0.38445   0.00000  Uiso   1.00
C326   C     0.08912   0.49270   0.11555   0.00000  Uiso   1.00
C327   C     0.09060   0.49839   0.37605   0.00000  Uiso   1.00
C328   C     0.24274   0.49839   0.12396   0.00000  Uiso   1.00
C329   C     0.04060   0.56227   0.44807   0.00000  Uiso   1.00
C330   C     0.29281   0.56216   0.05188   0.00000  Uiso   1.00
C331   C     0.07409   0.37594   0.18646   0.00000  Uiso   1.00
C332   C     0.19694   0.62193   0.36025   0.00000  Uiso   1.00
C333   C     0.25924   0.37593   0.31353   0.00000  Uiso   1.00
C334   C     0.24149   0.50415   0.47940   0.00000  Uiso   1.00
C335   C     0.13639   0.62194   0.13974   0.00000  Uiso   1.00
C336   C     0.02126   0.45842   0.25142   0.00000  Uiso   1.00
C337   C     0.31199   0.54262   0.24986   0.00000  Uiso   1.00
C338   C     0.31207   0.45842   0.24858   0.00000  Uiso   1.00
C339   C     0.02135   0.54262   0.25013   0.00000  Uiso   1.00
C340   C     0.29052   0.50039   0.24911   0.00000  Uiso   1.00
Cu341  Cu    0.16667   0.54689   0.25000   0.00000  Uiso   1.00
Cu342  Cu    0.16667   0.45311   0.25000   0.00000  Uiso   1.00
H343   H     0.06266   0.50758   0.03661   0.00000  Uiso   1.00
H344   H     0.29130   0.45957   0.14496   0.00000  Uiso   1.00
H345   H     0.02836   0.49434   0.46517   0.00000  Uiso   1.00
H346   H     0.03620   0.57787   0.48130   0.00000  Uiso   1.00
H347   H     0.01125   0.56521   0.42812   0.00000  Uiso   1.00
H348   H     0.06490   0.58177   0.43086   0.00000  Uiso   1.00
H349   H     0.30496   0.49420   0.03485   0.00000  Uiso   1.00
H350   H     0.29723   0.57773   0.01865   0.00000  Uiso   1.00
H351   H     0.32216   0.56507   0.07183   0.00000  Uiso   1.00
H352   H     0.26854   0.58173   0.06908   0.00000  Uiso   1.00
H353   H     0.13114   0.38857   0.15751   0.00000  Uiso   1.00
H354   H     0.27068   0.50752   0.46339   0.00000  Uiso   1.00
H355   H     0.06482   0.35425   0.15738   0.00000  Uiso   1.00
H356   H     0.05827   0.40976   0.18241   0.00000  Uiso   1.00
H357   H     0.06380   0.35904   0.21734   0.00000  Uiso   1.00
H358   H     0.24291   0.61677   0.31299   0.00000  Uiso   1.00
H359   H     0.16266   0.62292   0.36029   0.00000  Uiso   1.00
H360   H     0.20770   0.59205   0.38062   0.00000  Uiso   1.00
H361   H     0.20981   0.65347   0.37639   0.00000  Uiso   1.00
H362   H     0.20220   0.38857   0.34249   0.00000  Uiso   1.00
H363   H     0.26851   0.35424   0.34262   0.00000  Uiso   1.00
H364   H     0.27507   0.40975   0.31758   0.00000  Uiso   1.00
H365   H     0.03712   0.42554   0.25387   0.00000  Uiso   1.00
H366   H     0.26953   0.35904   0.28266   0.00000  Uiso   1.00
H367   H     0.09043   0.61677   0.18701   0.00000  Uiso   1.00
H368   H     0.12351   0.65347   0.12361   0.00000  Uiso   1.00
H369   H     0.12565   0.59206   0.11938   0.00000  Uiso   1.00
H370   H     0.17068   0.62295   0.13971   0.00000  Uiso   1.00
H371   H     0.29592   0.57557   0.24999   0.00000  Uiso   1.00
H372   H     0.29621   0.42554   0.24612   0.00000  Uiso   1.00
H373   H     0.03741   0.57557   0.25001   0.00000  Uiso   1.00
H374   H     0.29795   0.45796   0.38022   0.00000  Uiso   1.00
H375   H     0.03538   0.45799   0.11977   0.00000  Uiso   1.00
H376   H     0.04201   0.45957   0.35509   0.00000  Uiso   1.00
N377   N     0.16667   0.61736   0.25000   0.00000  Uiso   1.00
N378   N     0.16667   0.38264   0.25000   0.00000  Uiso   1.00
N379   N     0.05189   0.51389   0.45251   0.00000  Uiso   1.00
N380   N     0.28146   0.51380   0.04748   0.00000  Uiso   1.00
N381   N     0.11823   0.38359   0.18788   0.00000  Uiso   1.00
N382   N     0.21131   0.61682   0.31547   0.00000  Uiso   1.00
N383   N     0.21510   0.38359   0.31212   0.00000  Uiso   1.00
N384   N     0.12202   0.61682   0.18453   0.00000  Uiso   1.00
O385   O     0.10655   0.53958   0.24999   0.00000  Uiso   1.00
O386   O     0.27153   0.45717   0.39721   0.00000  Uiso   1.00
O387   O     0.08043   0.51911   0.14555   0.00000  Uiso   1.00
O388   O     0.06179   0.45721   0.10278   0.00000  Uiso   1.00
O389   O     0.07999   0.53115   0.35254   0.00000  Uiso   1.00
O390   O     0.06717   0.45767   0.37597   0.00000  Uiso   1.00
O391   O     0.25335   0.53118   0.14744   0.00000  Uiso   1.00
O392   O     0.26614   0.45767   0.12409   0.00000  Uiso   1.00
O393   O     0.22679   0.46042   0.25000   0.00000  Uiso   1.00
O394   O     0.22679   0.53958   0.25000   0.00000  Uiso   1.00
O395   O     0.10655   0.46042   0.24999   0.00000  Uiso   1.00
O396   O     0.16666   0.53960   0.18513   0.00000  Uiso   1.00
O397   O     0.16668   0.46040   0.31487   0.00000  Uiso   1.00
O398   O     0.16668   0.53960   0.31487   0.00000  Uiso   1.00
O399   O     0.16666   0.46040   0.18513   0.00000  Uiso   1.00
O400   O     0.25291   0.51910   0.35445   0.00000  Uiso   1.00
C401   C     0.42080   0.50007   0.25045   0.00000  Uiso   1.00
C402   C     0.37615   0.50039   0.25089   0.00000  Uiso   1.00
C403   C     0.47615   0.35832   0.21952   0.00000  Uiso   1.00
C404   C     0.52249   0.64181   0.28167   0.00000  Uiso   1.00
C405   C     0.52385   0.35832   0.28048   0.00000  Uiso   1.00
C406   C     0.47751   0.64181   0.21833   0.00000  Uiso   1.00
C407   C     0.49949   0.49998   0.16476   0.00000  Uiso   1.00
C408   C     0.50051   0.49998   0.33524   0.00000  Uiso   1.00
C409   C     0.53799   0.49832   0.40783   0.00000  Uiso   1.00
C410   C     0.46201   0.49833   0.09217   0.00000  Uiso   1.00
C411   C     0.50032   0.50018   0.38342   0.00000  Uiso   1.00
C412   C     0.57920   0.50007   0.24955   0.00000  Uiso   1.00
C413   C     0.49968   0.50018   0.11658   0.00000  Uiso   1.00
C414   C     0.46226   0.50153   0.40439   0.00000  Uiso   1.00
C415   C     0.53774   0.50152   0.09561   0.00000  Uiso   1.00
C416   C     0.46155   0.50285   0.45142   0.00000  Uiso   1.00
C417   C     0.53846   0.50284   0.04858   0.00000  Uiso   1.00
C418   C     0.49977   0.50159   0.47642   0.00000  Uiso   1.00
C419   C     0.50023   0.50159   0.02358   0.00000  Uiso   1.00
C420   C     0.53769   0.50055   0.45445   0.00000  Uiso   1.00
C421   C     0.46232   0.50057   0.04555   0.00000  Uiso   1.00
C422   C     0.42422   0.50641   0.47457   0.00000  Uiso   1.00
C423   C     0.42518   0.50419   0.02060   0.00000  Uiso   1.00
C424   C     0.57578   0.50637   0.02543   0.00000  Uiso   1.00
C425   C     0.57755   0.49269   0.38445   0.00000  Uiso   1.00
C426   C     0.42245   0.49270   0.11555   0.00000  Uiso   1.00
C427   C     0.42393   0.49839   0.37605   0.00000  Uiso   1.00
C428   C     0.57607   0.49839   0.12396   0.00000  Uiso   1.00
C429   C     0.37393   0.56227   0.44807   0.00000  Uiso   1.00
C430   C     0.62615   0.56216   0.05188   0.00000  Uiso   1.00
C431   C     0.40742   0.37594   0.18646   0.00000  Uiso   1.00
C432   C     0.53028   0.62193   0.36025   0.00000  Uiso   1.00
C433   C     0.59258   0.37593   0.31353   0.00000  Uiso   1.00
C434   C     0.57482   0.50415   0.47940   0.00000  Uiso   1.00
C435   C     0.46973   0.62194   0.13974   0.00000  Uiso   1.00
C436   C     0.35460   0.45842   0.25142   0.00000  Uiso   1.00
C437   C     0.64532   0.54262   0.24986   0.00000  Uiso   1.00
C438   C     0.64540   0.45842   0.24858   0.00000  Uiso   1.00
C439   C     0.35468   0.54262   0.25013   0.00000  Uiso   1.00
C440   C     0.62385   0.50039   0.24911   0.00000  Uiso   1.00
Cu441  Cu    0.50000   0.54689   0.25000   0.00000  Uiso   1.00
Cu442  Cu    0.50000   0.45311   0.25000   0.00000  Uiso   1.00
H443   H     0.39599   0.50758   0.03661   0.00000  Uiso   1.00
H444   H     0.62464   0.45957   0.14496   0.00000  Uiso   1.00
H445   H     0.36169   0.49434   0.46517   0.00000  Uiso   1.00
H446   H     0.36953   0.57787   0.48130   0.00000  Uiso   1.00
H447   H     0.34458   0.56521   0.42812   0.00000  Uiso   1.00
H448   H     0.39823   0.58177   0.43086   0.00000  Uiso   1.00
H449   H     0.63829   0.49420   0.03485   0.00000  Uiso   1.00
H450   H     0.63057   0.57773   0.01865   0.00000  Uiso   1.00
H451   H     0.65550   0.56507   0.07183   0.00000  Uiso   1.00
H452   H     0.60187   0.58173   0.06908   0.00000  Uiso   1.00
H453   H     0.46447   0.38857   0.15751   0.00000  Uiso   1.00
H454   H     0.60401   0.50752   0.46339   0.00000  Uiso   1.00
H455   H     0.39816   0.35425   0.15738   0.00000  Uiso   1.00
H456   H     0.39160   0.40976   0.18241   0.00000  Uiso   1.00
H457   H     0.39714   0.35904   0.21734   0.00000  Uiso   1.00
H458   H     0.57624   0.61677   0.31299   0.00000  Uiso   1.00
H459   H     0.49599   0.62292   0.36029   0.00000  Uiso   1.00
H460   H     0.54104   0.59205   0.38062   0.00000  Uiso   1.00
H461   H     0.54315   0.65347   0.37639   0.00000  Uiso   1.00
H462   H     0.53553   0.38857   0.34249   0.00000  Uiso   1.00
H463   H     0.60184   0.35424   0.34262   0.00000  Uiso   1.00
H464   H     0.60840   0.40975   0.31758   0.00000  Uiso   1.00
H465   H     0.37046   0.42554   0.25387   0.00000  Uiso   1.00
H466   H     0.60286   0.35904   0.28266   0.00000  Uiso   1.00
H467   H     0.42376   0.61677   0.18701   0.00000  Uiso   1.00
H468   H     0.45684   0.65347   0.12361   0.00000  Uiso   1.00
H469   H     0.45898   0.59206   0.11938   0.00000  Uiso   1.00
H470   H     0.50401   0.62295   0.13971   0.00000  Uiso   1.00
H471   H     0.62926   0.57557   0.24999   0.00000  Uiso   1.00
H472   H     0.62954   0.42554   0.24612   0.00000  Uiso   1.00
H473   H     0.37074   0.57557   0.25001   0.00000  Uiso   1.00
H474   H     0.63128   0.45796   0.38022   0.00000  Uiso   1.00
H475   H     0.36871   0.45799   0.11977   0.00000  Uiso   1.00
H476   H     0.37534   0.45957   0.35509   0.00000  Uiso   1.00
N477   N     0.50000   0.61736   0.25000   0.00000  Uiso   1.00
N478   N     0.50000   0.38264   0.25000   0.00000  Uiso   1.00
N479   N     0.38522   0.51389   0.45251   0.00000  Uiso   1.00
N480   N     0.61479   0.51380   0.04748   0.00000  Uiso   1.00
N481   N     0.45156   0.38359   0.18788   0.00000  Uiso   1.00
N482   N     0.54464   0.61682   0.31547   0.00000  Uiso   1.00
N483   N     0.54844   0.38359   0.31212   0.00000  Uiso   1.00
N484   N     0.45536   0.61682   0.18453   0.00000  Uiso   1.00
O485   O     0.43988   0.53958   0.24999   0.00000  Uiso   1.00
O486   O     0.60486   0.45717   0.39721   0.00000  Uiso   1.00
O487   O     0.41376   0.51911   0.14555   0.00000  Uiso   1.00
O488   O     0.39513   0.45721   0.10278   0.00000  Uiso   1.00
O489   O     0.41333   0.53115   0.35254   0.00000  Uiso   1.00
O490   O     0.40051   0.45767   0.37597   0.00000  Uiso   1.00
O491   O     0.58668   0.53118   0.14744   0.00000  Uiso   1.00
O492   O     0.59947   0.45767   0.12409   0.00000  Uiso   1.00
O493   O     0.56012   0.46042   0.25000   0.00000  Uiso   1.00
O494   O     0.56012   0.53958   0.25000   0.00000  Uiso   1.00
O495   O     0.43988   0.46042   0.24999   0.00000  Uiso   1.00
O496   O     0.49999   0.53960   0.18513   0.00000  Uiso   1.00
O497   O     0.50001   0.46040   0.31487   0.00000  Uiso   1.00
O498   O     0.50001   0.53960   0.31487   0.00000  Uiso   1.00
O499   O     0.49999   0.46040   0.18513   0.00000  Uiso   1.00
O500   O     0.58625   0.51910   0.35445   0.00000  Uiso   1.00
C501   C     0.75413   0.50007   0.25045   0.00000  Uiso   1.00
C502   C     0.70948   0.50039   0.25089   0.00000  Uiso   1.00
C503   C     0.80948   0.35832   0.21952   0.00000  Uiso   1.00
C504   C     0.85582   0.64181   0.28167   0.00000  Uiso   1.00
C505   C     0.85718   0.35832   0.28048   0.00000  Uiso   1.00
C506   C     0.81085   0.64181   0.21833   0.00000  Uiso   1.00
C507   C     0.83282   0.49998   0.16476   0.00000  Uiso   1.00
C508   C     0.83385   0.49998   0.33524   0.00000  Uiso   1.00
C509   C     0.87132   0.49832   0.40783   0.00000  Uiso   1.00
C510   C     0.79534   0.49833   0.09217   0.00000  Uiso   1.00
C511   C     0.83365   0.50018   0.38342   0.00000  Uiso   1.00
C512   C     0.91253   0.50007   0.24955   0.00000  Uiso   1.00
C513   C     0.83302   0.50018   0.11658   0.00000  Uiso   1.00
C514   C     0.79559   0.50153   0.40439   0.00000  Uiso   1.00
C515   C     0.87108   0.50152   0.09561   0.00000  Uiso   1.00
C516   C     0.79488   0.50285   0.45142   0.00000  Uiso   1.00
C517   C     0.87179   0.50284   0.04858   0.00000  Uiso   1.00
C518   C     0.83311   0.50159   0.47642   0.00000  Uiso   1.00
C519   C     0.83356   0.50159   0.02358   0.00000  Uiso   1.00
C520   C     0.87102   0.50055   0.45445   0.00000  Uiso   1.00
C521   C     0.79565   0.50057   0.04555   0.00000  Uiso   1.00
C522   C     0.75755   0.50641   0.47457   0.00000  Uiso   1.00
C523   C     0.75851   0.50419   0.02060   0.00000  Uiso   1.00
C524   C     0.90912   0.50637   0.02543   0.00000  Uiso   1.00
C525   C     0.91088   0.49269   0.38445   0.00000  Uiso   1.00
C526   C     0.75579   0.49270   0.11555   0.00000  Uiso   1.00
C527   C     0.75726   0.49839   0.37605   0.00000  Uiso   1.00
C528   C     0.90940   0.49839   0.12396   0.00000  Uiso   1.00
C529   C     0.70726   0.56227   0.44807   0.00000  Uiso   1.00
C530   C     0.95948   0.56216   0.05188   0.00000  Uiso   1.00
C531   C     0.74076   0.37594   0.18646   0.00000  Uiso   1.00
C532   C     0.86361   0.62193   0.36025   0.00000  Uiso   1.00
C533   C     0.92591   0.37593   0.31353   0.00000  Uiso   1.00
C534   C     0.90816   0.50415   0.47940   0.00000  Uiso   1.00
C535   C     0.80306   0.62194   0.13974   0.00000  Uiso   1.00
C536   C     0.68793   0.45842   0.25142   0.00000  Uiso   1.00
C537   C     0.97865   0.54262   0.24986   0.00000  Uiso   1.00
C538   C     0.97874   0.45842   0.24858   0.00000  Uiso   1.00
C539   C     0.68801   0.54262   0.25013   0.00000  Uiso   1.00
C540   C     0.95719   0.50039   0.24911   0.00000  Uiso   1.00
Cu541  Cu    0.83333   0.54689   0.25000   0.00000  Uiso   1.00
Cu542  Cu    0.83333   0.45311   0.25000   0.00000  Uiso   1.00
H543   H     0.72932   0.50758   0.03661   0.00000  Uiso   1.00
H544   H     0.95797   0.45957   0.14496   0.00000  Uiso   1.00
H545   H     0.69503   0.49434   0.46517   0.00000  Uiso   1.00
H546   H     0.70286   0.57787   0.48130   0.00000  Uiso   1.00
H547   H     0.67792   0.56521   0.42812   0.00000  Uiso   1.00
H548   H     0.73157   0.58177   0.43086   0.00000  Uiso   1.00
H549   H     0.97163   0.49420   0.03485   0.00000  Uiso   1.00
H550   H     0.96390   0.57773   0.01865   0.00000  Uiso   1.00
H551   H     0.98883   0.56507   0.07183   0.00000  Uiso   1.00
H552   H     0.93521   0.58173   0.06908   0.00000  Uiso   1.00
H553   H     0.79780   0.38857   0.15751   0.00000  Uiso   1.00
H554   H     0.93735   0.50752   0.46339   0.00000  Uiso   1.00
H555   H     0.73149   0.35425   0.15738   0.00000  Uiso   1.00
H556   H     0.72494   0.40976   0.18241   0.00000  Uiso   1.00
H557   H     0.73047   0.35904   0.21734   0.00000  Uiso   1.00
H558   H     0.90957   0.61677   0.31299   0.00000  Uiso   1.00
H559   H     0.82933   0.62292   0.36029   0.00000  Uiso   1.00
H560   H     0.87437   0.59205   0.38062   0.00000  Uiso   1.00
H561   H     0.87648   0.65347   0.37639   0.00000  Uiso   1.00
H562   H     0.86886   0.38857   0.34249   0.00000  Uiso   1.00
H563   H     0.93517   0.35424   0.34262   0.00000  Uiso   1.00
H564   H     0.94173   0.40975   0.31758   0.00000  Uiso   1.00
H565   H     0.70379   0.42554   0.25387   0.00000  Uiso   1.00
H566   H     0.93620   0.35904   0.28266   0.00000  Uiso   1.00
H567   H     0.75710   0.61677   0.18701   0.00000  Uiso   1.00
H568   H     0.79017   0.65347   0.12361   0.00000  Uiso   1.00
H569   H     0.79232   0.59206   0.11938   0.00000  Uiso   1.00
H570   H     0.83734   0.62295   0.13971   0.00000  Uiso   1.00
H571   H     0.96259   0.57557   0.24999   0.00000  Uiso   1.00
H572   H     0.96287   0.42554   0.24612   0.00000  Uiso   1.00
H573   H     0.70408   0.57557   0.25001   0.00000  Uiso   1.00
H574   H     0.96461   0.45796   0.38022   0.00000  Uiso   1.00
H575   H     0.70204   0.45799   0.11977   0.00000  Uiso   1.00
H576   H     0.70868   0.45957   0.35509   0.00000  Uiso   1.00
N577   N     0.83333   0.61736   0.25000   0.00000  Uiso   1.00
N578   N     0.83333   0.38264   0.25000   0.00000  Uiso   1.00
N579   N     0.71855   0.51389   0.45251   0.00000  Uiso   1.00
N580   N     0.94812   0.51380   0.04748   0.00000  Uiso   1.00
N581   N     0.78490   0.38359   0.18788   0.00000  Uiso   1.00
N582   N     0.87798   0.61682   0.31547   0.00000  Uiso   1.00
N583   N     0.88177   0.38359   0.31212   0.00000  Uiso   1.00
N584   N     0.78869   0.61682   0.18453   0.00000  Uiso   1.00
O585   O     0.77321   0.53958   0.24999   0.00000  Uiso   1.00
O586   O     0.93819   0.45717   0.39721   0.00000  Uiso   1.00
O587   O     0.74709   0.51911   0.14555   0.00000  Uiso   1.00
O588   O     0.72846   0.45721   0.10278   0.00000  Uiso   1.00
O589   O     0.74666   0.53115   0.35254   0.00000  Uiso   1.00
O590   O     0.73384   0.45767   0.37597   0.00000  Uiso   1.00
O591   O     0.92002   0.53118   0.14744   0.00000  Uiso   1.00
O592   O     0.93281   0.45767   0.12409   0.00000  Uiso   1.00
O593   O     0.89345   0.46042   0.25000   0.00000  Uiso   1.00
O594   O     0.89345   0.53958   0.25000   0.00000  Uiso   1.00
O595   O     0.77321   0.46042   0.24999   0.00000  Uiso   1.00
O596   O     0.83332   0.53960   0.18513   0.00000  Uiso   1.00
O597   O     0.83334   0.46040   0.31487   0.00000  Uiso   1.00
O598   O     0.83334   0.53960   0.31487   0.00000  Uiso   1.00
O599   O     0.83332   0.46040   0.18513   0.00000  Uiso   1.00
O600   O     0.91958   0.51910   0.35445   0.00000  Uiso   1.00
C601   C     0.08747   0.83340   0.25045   0.00000  Uiso   1.00
C602   C     0.04281   0.83372   0.25089   0.00000  Uiso   1.00
C603   C     0.14282   0.69165   0.21952   0.00000  Uiso   1.00
C604   C     0.18915   0.97514   0.28167   0.00000  Uiso   1.00
C605   C     0.19052   0.69165   0.28048   0.00000  Uiso   1.00
C606   C     0.14418   0.97515   0.21833   0.00000  Uiso   1.00
C607   C     0.16615   0.83332   0.16476   0.00000  Uiso   1.00
C608   C     0.16718   0.83332   0.33524   0.00000  Uiso   1.00
C609   C     0.20466   0.83165   0.40783   0.00000  Uiso   1.00
C610   C     0.12868   0.83166   0.09217   0.00000  Uiso   1.00
C611   C     0.16698   0.83351   0.38342   0.00000  Uiso   1.00
C612   C     0.24587   0.83340   0.24955   0.00000  Uiso   1.00
C613   C     0.16635   0.83352   0.11658   0.00000  Uiso   1.00
C614   C     0.12892   0.83486   0.40439   0.00000  Uiso   1.00
C615   C     0.20441   0.83486   0.09561   0.00000  Uiso   1.00
C616   C     0.12821   0.83618   0.45142   0.00000  Uiso   1.00
C617   C     0.20512   0.83617   0.04858   0.00000  Uiso   1.00
C618   C     0.16644   0.83492   0.47642   0.00000  Uiso   1.00
C619   C     0.16690   0.83492   0.02358   0.00000  Uiso   1.00
C620   C     0.20435   0.83389   0.45445   0.00000  Uiso   1.00
C621   C     0.12898   0.83390   0.04555   0.00000  Uiso   1.00
C622   C     0.09089   0.83974   0.47457   0.00000  Uiso   1.00
C623   C     0.09185   0.83752   0.02060   0.00000  Uiso   1.00
C624   C     0.24245   0.83970   0.02543   0.00000  Uiso   1.00
C625   C     0.24421   0.82602   0.38445   0.00000  Uiso   1.00
C626   C     0.08912   0.82604   0.11555   0.00000  Uiso   1.00
C627   C     0.09060   0.83172   0.37605   0.00000  Uiso   1.00
C628   C     0.24274   0.83173   0.12396   0.00000  Uiso   1.00
C629   C     0.04060   0.89560   0.44807   0.00000  Uiso   1.00
C630   C     0.29281   0.89550   0.05188   0.00000  Uiso   1.00
C631   C     0.07409   0.70927   0.18646   0.00000  Uiso   1.00
C632   C     0.19694   0.95526   0.36025   0.00000  Uiso   1.00
C633   C     0.25924   0.70926   0.31353   0.00000  Uiso   1.00
C634   C     0.24149   0.83748   0.47940   0.00000  Uiso   1.00
C635   C     0.13639   0.95527   0.13974   0.00000  Uiso   1.00
C636   C     0.02126   0.79175   0.25142   0.00000  Uiso   1.00
C637   C     0.31199   0.87595   0.24986   0.00000  Uiso   1.00
C638   C     0.31207   0.79175   0.24858   0.00000  Uiso   1.00
C639   C     0.02135   0.87595   0.25013   0.00000  Uiso   1.00
C640   C     0.29052   0.83372   0.24911   0.00000  Uiso   1.00
Cu641  Cu    0.16667   0.88022   0.25000   0.00000  Uiso   1.00
Cu642  Cu    0.16667   0.78645   0.25000   0.00000  Uiso   1.00
H643   H     0.06266   0.84092   0.03661   0.00000  Uiso   1.00
H644   H     0.29130   0.79290   0.14496   0.00000  Uiso   1.00
H645   H     0.02836   0.82767   0.46517   0.00000  Uiso   1.00
H646   H     0.03620   0.91120   0.48130   0.00000  Uiso   1.00
H647   H     0.01125   0.89854   0.42812   0.00000  Uiso   1.00
H648   H     0.06490   0.91511   0.43086   0.00000  Uiso   1.00
H649   H     0.30496   0.82753   0.03485   0.00000  Uiso   1.00
H650   H     0.29723   0.91106   0.01865   0.00000  Uiso   1.00
H651   H     0.32216   0.89840   0.07183   0.00000  Uiso   1.00
H652   H     0.26854   0.91506   0.06908   0.00000  Uiso   1.00
H653   H     0.13114   0.72191   0.15751   0.00000  Uiso   1.00
H654   H     0.27068   0.84086   0.46339   0.00000  Uiso   1.00
H655   H     0.06482   0.68758   0.15738   0.00000  Uiso   1.00
H656   H     0.05827   0.74309   0.18241   0.00000  Uiso   1.00
H657   H     0.06380   0.69238   0.21734   0.00000  Uiso   1.00
H658   H     0.24291   0.95011   0.31299   0.00000  Uiso   1.00
H659   H     0.16266   0.95625   0.36029   0.00000  Uiso   1.00
H660   H     0.20770   0.92538   0.38062   0.00000  Uiso   1.00
H661   H     0.20981   0.98680   0.37639   0.00000  Uiso   1.00
H662   H     0.20220   0.72190   0.34249   0.00000  Uiso   1.00
H663   H     0.26851   0.68758   0.34262   0.00000  Uiso   1.00
H664   H     0.27507   0.74309   0.31758   0.00000  Uiso   1.00
H665   H     0.03712   0.75887   0.25387   0.00000  Uiso   1.00
H666   H     0.26953   0.69237   0.28266   0.00000  Uiso   1.00
H667   H     0.09043   0.95011   0.18701   0.00000  Uiso   1.00
H668   H     0.12351   0.98681   0.12361   0.00000  Uiso   1.00
H669   H     0.12565   0.92539   0.11938   0.00000  Uiso   1.00
H670   H     0.17068   0.95629   0.13971   0.00000  Uiso   1.00
H671   H     0.29592   0.90890   0.24999   0.00000  Uiso   1.00
H672   H     0.29621   0.75887   0.24612   0.00000  Uiso   1.00
H673   H     0.03741   0.90890   0.25001   0.00000  Uiso   1.00
H674   H     0.29795   0.79129   0.38022   0.00000  Uiso   1.00
H675   H     0.03538   0.79133   0.11977   0.00000  Uiso   1.00
H676   H     0.04201   0.79290   0.35509   0.00000  Uiso   1.00
N677   N     0.16667   0.95069   0.25000   0.00000  Uiso   1.00
N678   N     0.16667   0.71598   0.25000   0.00000  Uiso   1.00
N679   N     0.05189   0.84722   0.45251   0.00000  Uiso   1.00
N680   N     0.28146   0.84713   0.04748   0.00000  Uiso   1.00
N681   N     0.11823   0.71692   0.18788   0.00000  Uiso   1.00
N682   N     0.21131   0.95015   0.31547   0.00000  Uiso   1.00
N683   N     0.21510   0.71692   0.31212   0.00000  Uiso   1.00
N684   N     0.12202   0.95016   0.18453   0.00000  Uiso   1.00
O685   O     0.10655   0.87291   0.24999   0.00000  Uiso   1.00
O686   O     0.27153   0.79051   0.39721   0.00000  Uiso   1.00
O687   O     0.08043   0.85244   0.14555   0.00000  Uiso   1.00
O688   O     0.06179   0.79054   0.10278   0.00000  Uiso   1.00
O689   O     0.07999   0.86448   0.35254   0.00000  Uiso   1.00
O690   O     0.06717   0.79101   0.37597   0.00000  Uiso   1.00
O691   O     0.25335   0.86451   0.14744   0.00000  Uiso   1.00
O692   O     0.26614   0.79100   0.12409   0.00000  Uiso   1.00
O693   O     0.22679   0.79375   0.25000   0.00000  Uiso   1.00
O694   O     0.22679   0.87291   0.25000   0.00000  Uiso   1.00
O695   O     0.10655   0.79375   0.24999   0.00000  Uiso   1.00
O696   O     0.16666   0.87293   0.18513   0.00000  Uiso   1.00
O697   O     0.16668   0.79373   0.31487   0.00000  Uiso   1.00
O698   O     0.16668   0.87293   0.31487   0.00000  Uiso   1.00
O699   O     0.16666   0.79373   0.18513   0.00000  Uiso   1.00
O700   O     0.25291   0.85243   0.35445   0.00000  Uiso   1.00
C701   C     0.42080   0.83340   0.25045   0.00000  Uiso   1.00
C702   C     0.37615   0.83372   0.25089   0.00000  Uiso   1.00
C703   C     0.47615   0.69165   0.21952   0.00000  Uiso   1.00
C704   C     0.52249   0.97514   0.28167   0.00000  Uiso   1.00
C705   C     0.52385   0.69165   0.28048   0.00000  Uiso   1.00
C706   C     0.47751   0.97515   0.21833   0.00000  Uiso   1.00
C707   C     0.49949   0.83332   0.16476   0.00000  Uiso   1.00
C708   C     0.50051   0.83332   0.33524   0.00000  Uiso   1.00
C709   C     0.53799   0.83165   0.40783   0.00000  Uiso   1.00
C710   C     0.46201   0.83166   0.09217   0.00000  Uiso   1.00
C711   C     0.50032   0.83351   0.38342   0.00000  Uiso   1.00
C712   C     0.57920   0.83340   0.24955   0.00000  Uiso   1.00
C713   C     0.49968   0.83352   0.11658   0.00000  Uiso   1.00
C714   C     0.46226   0.83486   0.40439   0.00000  Uiso   1.00
C715   C     0.53774   0.83486   0.09561   0.00000  Uiso   1.00
C716   C     0.46155   0.83618   0.45142   0.00000  Uiso   1.00
C717   C     0.53846   0.83617   0.04858   0.00000  Uiso   1.00
C718   C     0.49977   0.83492   0.47642   0.00000  Uiso   1.00
C719   C     0.50023   0.83492   0.02358   0.00000  Uiso   1.00
C720   C     0.53769   0.83389   0.45445   0.00000  Uiso   1.00
C721   C     0.46232   0.83390   0.04555   0.00000  Uiso   1.00
C722   C     0.42422   0.83974   0.47457   0.00000  Uiso   1.00
C723   C     0.42518   0.83752   0.02060   0.00000  Uiso   1.00
C724   C     0.57578   0.83970   0.02543   0.00000  Uiso   1.00
C725   C     0.57755   0.82602   0.38445   0.00000  Uiso   1.00
C726   C     0.42245   0.82604   0.11555   0.00000  Uiso   1.00
C727   C     0.42393   0.83172   0.37605   0.00000  Uiso   1.00
C728   C     0.57607   0.83173   0.12396   0.00000  Uiso   1.00
C729   C     0.37393   0.89560   0.44807   0.00000  Uiso   1.00
C730   C     0.62615   0.89550   0.05188   0.00000  Uiso   1.00
C731   C     0.40742   0.70927   0.18646   0.00000  Uiso   1.00
C732   C     0.53028   0.95526   0.36025   0.00000  Uiso   1.00
C733   C     0.59258   0.70926   0.31353   0.00000  Uiso   1.00
C734   C     0.57482   0.83748   0.47940   0.00000  Uiso   1.00
C735   C     0.46973   0.95527   0.13974   0.00000  Uiso   1.00
C736   C     0.35460   0.79175   0.25142   0.00000  Uiso   1.00
C737   C     0.64532   0.87595   0.24986   0.00000  Uiso   1.00
C738   C     0.64540   0.79175   0.24858   0.00000  Uiso   1.00
C739   C     0.35468   0.87595   0.25013   0.00000  Uiso   1.00
C740   C     0.62385   0.83372   0.24911   0.00000  Uiso   1.00
Cu741  Cu    0.50000   0.88022   0.25000   0.00000  Uiso   1.00
Cu742  Cu    0.50000   0.78645   0.25000   0.00000  Uiso   1.00
H743   H     0.39599   0.84092   0.03661   0.00000  Uiso   1.00
H744   H     0.62464   0.79290   0.14496   0.00000  Uiso   1.00
H745   H     0.36169   0.82767   0.46517   0.00000  Uiso   1.00
H746   H     0.36953   0.91120   0.48130   0.00000  Uiso   1.00
H747   H     0.34458   0.89854   0.42812   0.00000  Uiso   1.00
H748   H     0.39823   0.91511   0.43086   0.00000  Uiso   1.00
H749   H     0.63829   0.82753   0.03485   0.00000  Uiso   1.00
H750   H     0.63057   0.91106   0.01865   0.00000  Uiso   1.00
H751   H     0.65550   0.89840   0.07183   0.00000  Uiso   1.00
H752   H     0.60187   0.91506   0.06908   0.00000  Uiso   1.00
H753   H     0.46447   0.72191   0.15751   0.00000  Uiso   1.00
H754   H     0.60401   0.84086   0.46339   0.00000  Uiso   1.00
H755   H     0.39816   0.68758   0.15738   0.00000  Uiso   1.00
H756   H     0.39160   0.74309   0.18241   0.00000  Uiso   1.00
H757   H     0.39714   0.69238   0.21734   0.00000  Uiso   1.00
H758   H     0.57624   0.95011   0.31299   0.00000  Uiso   1.00
H759   H     0.49599   0.95625   0.36029   0.00000  Uiso   1.00
H760   H     0.54104   0.92538   0.38062   0.00000  Uiso   1.00
H761   H     0.54315   0.98680   0.37639   0.00000  Uiso   1.00
H762   H     0.53553   0.72190   0.34249   0.00000  Uiso   1.00
H763   H     0.60184   0.68758   0.34262   0.00000  Uiso   1.00
H764   H     0.60840   0.74309   0.31758   0.00000  Uiso   1.00
H765   H     0.37046   0.75887   0.25387   0.00000  Uiso   1.00
H766   H     0.60286   0.69237   0.28266   0.00000  Uiso   1.00
H767   H     0.42376   0.95011   0.18701   0.00000  Uiso   1.00
H768   H     0.45684   0.98681   0.12361   0.00000  Uiso   1.00
H769   H     0.45898   0.92539   0.11938   0.00000  Uiso   1.00
H770   H     0.50401   0.95629   0.13971   0.00000  Uiso   1.00
H771   H     0.62926   0.90890   0.24999   0.00000  Uiso   1.00
H772   H     0.62954   0.75887   0.24612   0.00000  Uiso   1.00
H773   H     0.37074   0.90890   0.25001   0.00000  Uiso   1.00
H774   H     0.63128   0.79129   0.38022   0.00000  Uiso   1.00
H775   H     0.36871   0.79133   0.11977   0.00000  Uiso   1.00
H776   H     0.37534   0.79290   0.35509   0.00000  Uiso   1.00
N777   N     0.50000   0.95069   0.25000   0.00000  Uiso   1.00
N778   N     0.50000   0.71598   0.25000   0.00000  Uiso   1.00
N779   N     0.38522   0.84722   0.45251   0.00000  Uiso   1.00
N780   N     0.61479   0.84713   0.04748   0.00000  Uiso   1.00
N781   N     0.45156   0.71692   0.18788   0.00000  Uiso   1.00
N782   N     0.54464   0.95015   0.31547   0.00000  Uiso   1.00
N783   N     0.54844   0.71692   0.31212   0.00000  Uiso   1.00
N784   N     0.45536   0.95016   0.18453   0.00000  Uiso   1.00
O785   O     0.43988   0.87291   0.24999   0.00000  Uiso   1.00
O786   O     0.60486   0.79051   0.39721   0.00000  Uiso   1.00
O787   O     0.41376   0.85244   0.14555   0.00000  Uiso   1.00
O788   O     0.39513   0.79054   0.10278   0.00000  Uiso   1.00
O789   O     0.41333   0.86448   0.35254   0.00000  Uiso   1.00
O790   O     0.40051   0.79101   0.37597   0.00000  Uiso   1.00
O791   O     0.58668   0.86451   0.14744   0.00000  Uiso   1.00
O792   O     0.59947   0.79100   0.12409   0.00000  Uiso   1.00
O793   O     0.56012   0.79375   0.25000   0.00000  Uiso   1.00
O794   O     0.56012   0.87291   0.25000   0.00000  Uiso   1.00
O795   O     0.43988   0.79375   0.24999   0.00000  Uiso   1.00
O796   O     0.49999   0.87293   0.18513   0.00000  Uiso   1.00
O797   O     0.50001   0.79373   0.31487   0.00000  Uiso   1.00
O798   O     0.50001   0.87293   0.31487   0.00000  Uiso   1.00
O799   O     0.49999   0.79373   0.18513   0.00000  Uiso   1.00
O800   O     0.58625   0.85243   0.35445   0.00000  Uiso   1.00
C801   C     0.75413   0.83340   0.25045   0.00000  Uiso   1.00
C802   C     0.70948   0.83372   0.25089   0.00000  Uiso   1.00
C803   C     0.80948   0.69165   0.21952   0.00000  Uiso   1.00
C804   C     0.85582   0.97514   0.28167   0.00000  Uiso   1.00
C805   C     0.85718   0.69165   0.28048   0.00000  Uiso   1.00
C806   C     0.81085   0.97515   0.21833   0.00000  Uiso   1.00
C807   C     0.83282   0.83332   0.16476   0.00000  Uiso   1.00
C808   C     0.83385   0.83332   0.33524   0.00000  Uiso   1.00
C809   C     0.87132   0.83165   0.40783   0.00000  Uiso   1.00
C810   C     0.79534   0.83166   0.09217   0.00000  Uiso   1.00
C811   C     0.83365   0.83351   0.38342   0.00000  Uiso   1.00
C812   C     0.91253   0.83340   0.24955   0.00000  Uiso   1.00
C813   C     0.83302   0.83352   0.11658   0.00000  Uiso   1.00
C814   C     0.79559   0.83486   0.40439   0.00000  Uiso   1.00
C815   C     0.87108   0.83486   0.09561   0.00000  Uiso   1.00
C816   C     0.79488   0.83618   0.45142   0.00000  Uiso   1.00
C817   C     0.87179   0.83617   0.04858   0.00000  Uiso   1.00
C818   C     0.83311   0.83492   0.47642   0.00000  Uiso   1.00
C819   C     0.83356   0.83492   0.02358   0.00000  Uiso   1.00
C820   C     0.87102   0.83389   0.45445   0.00000  Uiso   1.00
C821   C     0.79565   0.83390   0.04555   0.00000  Uiso   1.00
C822   C     0.75755   0.83974   0.47457   0.00000  Uiso   1.00
C823   C     0.75851   0.83752   0.02060   0.00000  Uiso   1.00
C824   C     0.90912   0.83970   0.02543   0.00000  Uiso   1.00
C825   C     0.91088   0.82602   0.38445   0.00000  Uiso   1.00
C826   C     0.75579   0.82604   0.11555   0.00000  Uiso   1.00
C827   C     0.75726   0.83172   0.37605   0.00000  Uiso   1.00
C828   C     0.90940   0.83173   0.12396   0.00000  Uiso   1.00
C829   C     0.70726   0.89560   0.44807   0.00000  Uiso   1.00
C830   C     0.95948   0.89550   0.05188   0.00000  Uiso   1.00
C831   C     0.74076   0.70927   0.18646   0.00000  Uiso   1.00
C832   C     0.86361   0.95526   0.36025   0.00000  Uiso   1.00
C833   C     0.92591   0.70926   0.31353   0.00000  Uiso   1.00
C834   C     0.90816   0.83748   0.47940   0.00000  Uiso   1.00
C835   C     0.80306   0.95527   0.13974   0.00000  Uiso   1.00
C836   C     0.68793   0.79175   0.25142   0.00000  Uiso   1.00
C837   C     0.97865   0.87595   0.24986   0.00000  Uiso   1.00
C838   C     0.97874   0.79175   0.24858   0.00000  Uiso   1.00
C839   C     0.68801   0.87595   0.25013   0.00000  Uiso   1.00
C840   C     0.95719   0.83372   0.24911   0.00000  Uiso   1.00
Cu841  Cu    0.83333   0.88022   0.25000   0.00000  Uiso   1.00
Cu842  Cu    0.83333   0.78645   0.25000   0.00000  Uiso   1.00
H843   H     0.72932   0.84092   0.03661   0.00000  Uiso   1.00
H844   H     0.95797   0.79290   0.14496   0.00000  Uiso   1.00
H845   H     0.69503   0.82767   0.46517   0.00000  Uiso   1.00
H846   H     0.70286   0.91120   0.48130   0.00000  Uiso   1.00
H847   H     0.67792   0.89854   0.42812   0.00000  Uiso   1.00
H848   H     0.73157   0.91511   0.43086   0.00000  Uiso   1.00
H849   H     0.97163   0.82753   0.03485   0.00000  Uiso   1.00
H850   H     0.96390   0.91106   0.01865   0.00000  Uiso   1.00
H851   H     0.98883   0.89840   0.07183   0.00000  Uiso   1.00
H852   H     0.93521   0.91506   0.06908   0.00000  Uiso   1.00
H853   H     0.79780   0.72191   0.15751   0.00000  Uiso   1.00
H854   H     0.93735   0.84086   0.46339   0.00000  Uiso   1.00
H855   H     0.73149   0.68758   0.15738   0.00000  Uiso   1.00
H856   H     0.72494   0.74309   0.18241   0.00000  Uiso   1.00
H857   H     0.73047   0.69238   0.21734   0.00000  Uiso   1.00
H858   H     0.90957   0.95011   0.31299   0.00000  Uiso   1.00
H859   H     0.82933   0.95625   0.36029   0.00000  Uiso   1.00
H860   H     0.87437   0.92538   0.38062   0.00000  Uiso   1.00
H861   H     0.87648   0.98680   0.37639   0.00000  Uiso   1.00
H862   H     0.86886   0.72190   0.34249   0.00000  Uiso   1.00
H863   H     0.93517   0.68758   0.34262   0.00000  Uiso   1.00
H864   H     0.94173   0.74309   0.31758   0.00000  Uiso   1.00
H865   H     0.70379   0.75887   0.25387   0.00000  Uiso   1.00
H866   H     0.93620   0.69237   0.28266   0.00000  Uiso   1.00
H867   H     0.75710   0.95011   0.18701   0.00000  Uiso   1.00
H868   H     0.79017   0.98681   0.12361   0.00000  Uiso   1.00
H869   H     0.79232   0.92539   0.11938   0.00000  Uiso   1.00
H870   H     0.83734   0.95629   0.13971   0.00000  Uiso   1.00
H871   H     0.96259   0.90890   0.24999   0.00000  Uiso   1.00
H872   H     0.96287   0.75887   0.24612   0.00000  Uiso   1.00
H873   H     0.70408   0.90890   0.25001   0.00000  Uiso   1.00
H874   H     0.96461   0.79129   0.38022   0.00000  Uiso   1.00
H875   H     0.70204   0.79133   0.11977   0.00000  Uiso   1.00
H876   H     0.70868   0.79290   0.35509   0.00000  Uiso   1.00
N877   N     0.83333   0.95069   0.25000   0.00000  Uiso   1.00
N878   N     0.83333   0.71598   0.25000   0.00000  Uiso   1.00
N879   N     0.71855   0.84722   0.45251   0.00000  Uiso   1.00
N880   N     0.94812   0.84713   0.04748   0.00000  Uiso   1.00
N881   N     0.78490   0.71692   0.18788   0.00000  Uiso   1.00
N882   N     0.87798   0.95015   0.31547   0.00000  Uiso   1.00
N883   N     0.88177   0.71692   0.31212   0.00000  Uiso   1.00
N884   N     0.78869   0.95016   0.18453   0.00000  Uiso   1.00
O885   O     0.77321   0.87291   0.24999   0.00000  Uiso   1.00
O886   O     0.93819   0.79051   0.39721   0.00000  Uiso   1.00
O887   O     0.74709   0.85244   0.14555   0.00000  Uiso   1.00
O888   O     0.72846   0.79054   0.10278   0.00000  Uiso   1.00
O889   O     0.74666   0.86448   0.35254   0.00000  Uiso   1.00
O890   O     0.73384   0.79101   0.37597   0.00000  Uiso   1.00
O891   O     0.92002   0.86451   0.14744   0.00000  Uiso   1.00
O892   O     0.93281   0.79100   0.12409   0.00000  Uiso   1.00
O893   O     0.89345   0.79375   0.25000   0.00000  Uiso   1.00
O894   O     0.89345   0.87291   0.25000   0.00000  Uiso   1.00
O895   O     0.77321   0.79375   0.24999   0.00000  Uiso   1.00
O896   O     0.83332   0.87293   0.18513   0.00000  Uiso   1.00
O897   O     0.83334   0.79373   0.31487   0.00000  Uiso   1.00
O898   O     0.83334   0.87293   0.31487   0.00000  Uiso   1.00
O899   O     0.83332   0.79373   0.18513   0.00000  Uiso   1.00
O900   O     0.91958   0.85243   0.35445   0.00000  Uiso   1.00
C901   C     0.08747   0.16673   0.75045   0.00000  Uiso   1.00
C902   C     0.04281   0.16706   0.75089   0.00000  Uiso   1.00
C903   C     0.14282   0.02499   0.71952   0.00000  Uiso   1.00
C904   C     0.18915   0.30848   0.78167   0.00000  Uiso   1.00
C905   C     0.19052   0.02498   0.78048   0.00000  Uiso   1.00
C906   C     0.14418   0.30848   0.71833   0.00000  Uiso   1.00
C907   C     0.16615   0.16665   0.66476   0.00000  Uiso   1.00
C908   C     0.16718   0.16665   0.83524   0.00000  Uiso   1.00
C909   C     0.20466   0.16498   0.90783   0.00000  Uiso   1.00
C910   C     0.12868   0.16500   0.59217   0.00000  Uiso   1.00
C911   C     0.16698   0.16684   0.88342   0.00000  Uiso   1.00
C912   C     0.24587   0.16673   0.74955   0.00000  Uiso   1.00
C913   C     0.16635   0.16685   0.61658   0.00000  Uiso   1.00
C914   C     0.12892   0.16819   0.90439   0.00000  Uiso   1.00
C915   C     0.20441   0.16819   0.59561   0.00000  Uiso   1.00
C916   C     0.12821   0.16952   0.95142   0.00000  Uiso   1.00
C917   C     0.20512   0.16950   0.54858   0.00000  Uiso   1.00
C918   C     0.16644   0.16826   0.97642   0.00000  Uiso   1.00
C919   C     0.16690   0.16826   0.52358   0.00000  Uiso   1.00
C920   C     0.20435   0.16722   0.95445   0.00000  Uiso   1.00
C921   C     0.12898   0.16724   0.54555   0.00000  Uiso   1.00
C922   C     0.09089   0.17308   0.97457   0.00000  Uiso   1.00
C923   C     0.09185   0.17086   0.52060   0.00000  Uiso   1.00
C924   C     0.24245   0.17303   0.52543   0.00000  Uiso   1.00
C925   C     0.24421   0.15935   0.88445   0.00000  Uiso   1.00
C926   C     0.08912   0.15937   0.61555   0.00000  Uiso   1.00
C927   C     0.09060   0.16505   0.87605   0.00000  Uiso   1.00
C928   C     0.24274   0.16506   0.62396   0.00000  Uiso   1.00
C929   C     0.04060   0.22893   0.94807   0.00000  Uiso   1.00
C930   C     0.29281   0.22883   0.55188   0.00000  Uiso   1.00
C931   C     0.07409   0.04260   0.68646   0.00000  Uiso   1.00
C932   C     0.19694   0.28859   0.86025   0.00000  Uiso   1.00
C933   C     0.25924   0.04260   0.81353   0.00000  Uiso   1.00
C934   C     0.24149   0.17082   0.97940   0.00000  Uiso   1.00
C935   C     0.13639   0.28861   0.63974   0.00000  Uiso   1.00
C936   C     0.02126   0.12508   0.75142   0.00000  Uiso   1.00
C937   C     0.31199   0.20928   0.74986   0.00000  Uiso   1.00
C938   C     0.31207   0.12508   0.74858   0.00000  Uiso   1.00
C939   C     0.02135   0.20928   0.75013   0.00000  Uiso   1.00
C940   C     0.29052   0.16706   0.74911   0.00000  Uiso   1.00
Cu941  Cu    0.16667   0.21355   0.75000   0.00000  Uiso   1.00
Cu942  Cu    0.16667   0.11978   0.75000   0.00000  Uiso   1.00
H943   H     0.06266   0.17425   0.53661   0.00000  Uiso   1.00
H944   H     0.29130   0.12624   0.64496   0.00000  Uiso   1.00
H945   H     0.02836   0.16100   0.96517   0.00000  Uiso   1.00
H946   H     0.03620   0.24454   0.98130   0.00000  Uiso   1.00
H947   H     0.01125   0.23187   0.92812   0.00000  Uiso   1.00
H948   H     0.06490   0.24844   0.93086   0.00000  Uiso   1.00
H949   H     0.30496   0.16086   0.53485   0.00000  Uiso   1.00
H950   H     0.29723   0.24440   0.51865   0.00000  Uiso   1.00
H951   H     0.32216   0.23173   0.57183   0.00000  Uiso   1.00
H952   H     0.26854   0.24839   0.56908   0.00000  Uiso   1.00
H953   H     0.13114   0.05524   0.65751   0.00000  Uiso   1.00
H954   H     0.27068   0.17419   0.96339   0.00000  Uiso   1.00
H955   H     0.06482   0.02092   0.65738   0.00000  Uiso   1.00
H956   H     0.05827   0.07643   0.68241   0.00000  Uiso   1.00
H957   H     0.06380   0.02571   0.71734   0.00000  Uiso   1.00
H958   H     0.24291   0.28344   0.81299   0.00000  Uiso   1.00
H959   H     0.16266   0.28958   0.86029   0.00000  Uiso   1.00
H960   H     0.20770   0.25872   0.88062   0.00000  Uiso   1.00
H961   H     0.20981   0.32013   0.87639   0.00000  Uiso   1.00
H962   H     0.20220   0.05524   0.84249   0.00000  Uiso   1.00
H963   H     0.26851   0.02091   0.84262   0.00000  Uiso   1.00
H964   H     0.27507   0.07642   0.81758   0.00000  Uiso   1.00
H965   H     0.03712   0.09221   0.75387   0.00000  Uiso   1.00
H966   H     0.26953   0.02570   0.78266   0.00000  Uiso   1.00
H967   H     0.09043   0.28344   0.68701   0.00000  Uiso   1.00
H968   H     0.12351   0.32014   0.62361   0.00000  Uiso   1.00
H969   H     0.12565   0.25872   0.61938   0.00000  Uiso   1.00
H970   H     0.17068   0.28962   0.63971   0.00000  Uiso   1.00
H971   H     0.29592   0.24224   0.74999   0.00000  Uiso   1.00
H972   H     0.29621   0.09221   0.74612   0.00000  Uiso   1.00
H973   H     0.03741   0.24224   0.75001   0.00000  Uiso   1.00
H974   H     0.29795   0.12463   0.88022   0.00000  Uiso   1.00
H975   H     0.03538   0.12466   0.61977   0.00000  Uiso   1.00
H976   H     0.04201   0.12623   0.85509   0.00000  Uiso   1.00
N977   N     0.16667   0.28402   0.75000   0.00000  Uiso   1.00
N978   N     0.16667   0.04931   0.75000   0.00000  Uiso   1.00
N979   N     0.05189   0.18055   0.95251   0.00000  Uiso   1.00
N980   N     0.28146   0.18047   0.54748   0.00000  Uiso   1.00
N981   N     0.11823   0.05026   0.68788   0.00000  Uiso   1.00
N982   N     0.21131   0.28348   0.81547   0.00000  Uiso   1.00
N983   N     0.21510   0.05025   0.81212   0.00000  Uiso   1.00
N984   N     0.12202   0.28349   0.68453   0.00000  Uiso   1.00
O985   O     0.10655   0.20625   0.74999   0.00000  Uiso   1.00
O986   O     0.27153   0.12384   0.89721   0.00000  Uiso   1.00
O987   O     0.08043   0.18578   0.64555   0.00000  Uiso   1.00
O988   O     0.06179   0.12387   0.60278   0.00000  Uiso   1.00
O989   O     0.07999   0.19782   0.85254   0.00000  Uiso   1.00
O990   O     0.06717   0.12434   0.87597   0.00000  Uiso   1.00
O991   O     0.25335   0.19785   0.64744   0.00000  Uiso   1.00
O992   O     0.26614   0.12433   0.62409   0.00000  Uiso   1.00
O993   O     0.22679   0.12709   0.75000   0.00000  Uiso   1.00
O994   O     0.22679   0.20625   0.75000   0.00000  Uiso   1.00
O995   O     0.10655   0.12709   0.74999   0.00000  Uiso   1.00
O996   O     0.16666   0.20627   0.68513   0.00000  Uiso   1.00
O997   O     0.16668   0.12707   0.81487   0.00000  Uiso   1.00
O998   O     0.16668   0.20627   0.81487   0.00000  Uiso   1.00
O999   O     0.16666   0.12707   0.68513   0.00000  Uiso   1.00
O1000  O     0.25291   0.18576   0.85445   0.00000  Uiso   1.00
C1001  C     0.42080   0.16673   0.75045   0.00000  Uiso   1.00
C1002  C     0.37615   0.16706   0.75089   0.00000  Uiso   1.00
C1003  C     0.47615   0.02499   0.71952   0.00000  Uiso   1.00
C1004  C     0.52249   0.30848   0.78167   0.00000  Uiso   1.00
C1005  C     0.52385   0.02498   0.78048   0.00000  Uiso   1.00
C1006  C     0.47751   0.30848   0.71833   0.00000  Uiso   1.00
C1007  C     0.49949   0.16665   0.66476   0.00000  Uiso   1.00
C1008  C     0.50051   0.16665   0.83524   0.00000  Uiso   1.00
C1009  C     0.53799   0.16498   0.90783   0.00000  Uiso   1.00
C1010  C     0.46201   0.16500   0.59217   0.00000  Uiso   1.00
C1011  C     0.50032   0.16684   0.88342   0.00000  Uiso   1.00
C1012  C     0.57920   0.16673   0.74955   0.00000  Uiso   1.00
C1013  C     0.49968   0.16685   0.61658   0.00000  Uiso   1.00
C1014  C     0.46226   0.16819   0.90439   0.00000  Uiso   1.00
C1015  C     0.53774   0.16819   0.59561   0.00000  Uiso   1.00
C1016  C     0.46155   0.16952   0.95142   0.00000  Uiso   1.00
C1017  C     0.53846   0.16950   0.54858   0.00000  Uiso   1.00
C1018  C     0.49977   0.16826   0.97642   0.00000  Uiso   1.00
C1019  C     0.50023   0.16826   0.52358   0.00000  Uiso   1.00
C1020  C     0.53769   0.16722   0.95445   0.00000  Uiso   1.00
C1021  C     0.46232   0.16724   0.54555   0.00000  Uiso   1.00
C1022  C     0.42422   0.17308   0.97457   0.00000  Uiso   1.00
C1023  C     0.42518   0.17086   0.52060   0.00000  Uiso   1.00
C1024  C     0.57578   0.17303   0.52543   0.00000  Uiso   1.00
C1025  C     0.57755   0.15935   0.88445   0.00000  Uiso   1.00
C1026  C     0.42245   0.15937   0.61555   0.00000  Uiso   1.00
C1027  C     0.42393   0.16505   0.87605   0.00000  Uiso   1.00
C1028  C     0.57607   0.16506   0.62396   0.00000  Uiso   1.00
C1029  C     0.37393   0.22893   0.94807   0.00000  Uiso   1.00
C1030  C     0.62615   0.22883   0.55188   0.00000  Uiso   1.00
C1031  C     0.40742   0.04260   0.68646   0.00000  Uiso   1.00
C1032  C     0.53028   0.28859   0.86025   0.00000  Uiso   1.00
C1033  C     0.59258   0.04260   0.81353   0.00000  Uiso   1.00
C1034  C     0.57482   0.17082   0.97940   0.00000  Uiso   1.00
C1035  C     0.46973   0.28861   0.63974   0.00000  Uiso   1.00
C1036  C     0.35460   0.12508   0.75142   0.00000  Uiso   1.00
C1037  C     0.64532   0.20928   0.74986   0.00000  Uiso   1.00
C1038  C     0.64540   0.12508   0.74858   0.00000  Uiso   1.00
C1039  C     0.35468   0.20928   0.75013   0.00000  Uiso   1.00
C1040  C     0.62385   0.16706   0.74911   0.00000  Uiso   1.00
Cu1041 Cu    0.50000   0.21355   0.75000   0.00000  Uiso   1.00
Cu1042 Cu    0.50000   0.11978   0.75000   0.00000  Uiso   1.00
H1043  H     0.39599   0.17425   0.53661   0.00000  Uiso   1.00
H1044  H     0.62464   0.12624   0.64496   0.00000  Uiso   1.00
H1045  H     0.36169   0.16100   0.96517   0.00000  Uiso   1.00
H1046  H     0.36953   0.24454   0.98130   0.00000  Uiso   1.00
H1047  H     0.34458   0.23187   0.92812   0.00000  Uiso   1.00
H1048  H     0.39823   0.24844   0.93086   0.00000  Uiso   1.00
H1049  H     0.63829   0.16086   0.53485   0.00000  Uiso   1.00
H1050  H     0.63057   0.24440   0.51865   0.00000  Uiso   1.00
H1051  H     0.65550   0.23173   0.57183   0.00000  Uiso   1.00
H1052  H     0.60187   0.24839   0.56908   0.00000  Uiso   1.00
H1053  H     0.46447   0.05524   0.65751   0.00000  Uiso   1.00
H1054  H     0.60401   0.17419   0.96339   0.00000  Uiso   1.00
H1055  H     0.39816   0.02092   0.65738   0.00000  Uiso   1.00
H1056  H     0.39160   0.07643   0.68241   0.00000  Uiso   1.00
H1057  H     0.39714   0.02571   0.71734   0.00000  Uiso   1.00
H1058  H     0.57624   0.28344   0.81299   0.00000  Uiso   1.00
H1059  H     0.49599   0.28958   0.86029   0.00000  Uiso   1.00
H1060  H     0.54104   0.25872   0.88062   0.00000  Uiso   1.00
H1061  H     0.54315   0.32013   0.87639   0.00000  Uiso   1.00
H1062  H     0.53553   0.05524   0.84249   0.00000  Uiso   1.00
H1063  H     0.60184   0.02091   0.84262   0.00000  Uiso   1.00
H1064  H     0.60840   0.07642   0.81758   0.00000  Uiso   1.00
H1065  H     0.37046   0.09221   0.75387   0.00000  Uiso   1.00
H1066  H     0.60286   0.02570   0.78266   0.00000  Uiso   1.00
H1067  H     0.42376   0.28344   0.68701   0.00000  Uiso   1.00
H1068  H     0.45684   0.32014   0.62361   0.00000  Uiso   1.00
H1069  H     0.45898   0.25872   0.61938   0.00000  Uiso   1.00
H1070  H     0.50401   0.28962   0.63971   0.00000  Uiso   1.00
H1071  H     0.62926   0.24224   0.74999   0.00000  Uiso   1.00
H1072  H     0.62954   0.09221   0.74612   0.00000  Uiso   1.00
H1073  H     0.37074   0.24224   0.75001   0.00000  Uiso   1.00
H1074  H     0.63128   0.12463   0.88022   0.00000  Uiso   1.00
H1075  H     0.36871   0.12466   0.61977   0.00000  Uiso   1.00
H1076  H     0.37534   0.12623   0.85509   0.00000  Uiso   1.00
N1077  N     0.50000   0.28402   0.75000   0.00000  Uiso   1.00
N1078  N     0.50000   0.04931   0.75000   0.00000  Uiso   1.00
N1079  N     0.38522   0.18055   0.95251   0.00000  Uiso   1.00
N1080  N     0.61479   0.18047   0.54748   0.00000  Uiso   1.00
N1081  N     0.45156   0.05026   0.68788   0.00000  Uiso   1.00
N1082  N     0.54464   0.28348   0.81547   0.00000  Uiso   1.00
N1083  N     0.54844   0.05025   0.81212   0.00000  Uiso   1.00
N1084  N     0.45536   0.28349   0.68453   0.00000  Uiso   1.00
O1085  O     0.43988   0.20625   0.74999   0.00000  Uiso   1.00
O1086  O     0.60486   0.12384   0.89721   0.00000  Uiso   1.00
O1087  O     0.41376   0.18578   0.64555   0.00000  Uiso   1.00
O1088  O     0.39513   0.12387   0.60278   0.00000  Uiso   1.00
O1089  O     0.41333   0.19782   0.85254   0.00000  Uiso   1.00
O1090  O     0.40051   0.12434   0.87597   0.00000  Uiso   1.00
O1091  O     0.58668   0.19785   0.64744   0.00000  Uiso   1.00
O1092  O     0.59947   0.12433   0.62409   0.00000  Uiso   1.00
O1093  O     0.56012   0.12709   0.75000   0.00000  Uiso   1.00
O1094  O     0.56012   0.20625   0.75000   0.00000  Uiso   1.00
O1095  O     0.43988   0.12709   0.74999   0.00000  Uiso   1.00
O1096  O     0.49999   0.20627   0.68513   0.00000  Uiso   1.00
O1097  O     0.50001   0.12707   0.81487   0.00000  Uiso   1.00
O1098  O     0.50001   0.20627   0.81487   0.00000  Uiso   1.00
O1099  O     0.49999   0.12707   0.68513   0.00000  Uiso   1.00
O1100  O     0.58625   0.18576   0.85445   0.00000  Uiso   1.00
C1101  C     0.75413   0.16673   0.75045   0.00000  Uiso   1.00
C1102  C     0.70948   0.16706   0.75089   0.00000  Uiso   1.00
C1103  C     0.80948   0.02499   0.71952   0.00000  Uiso   1.00
C1104  C     0.85582   0.30848   0.78167   0.00000  Uiso   1.00
C1105  C     0.85718   0.02498   0.78048   0.00000  Uiso   1.00
C1106  C     0.81085   0.30848   0.71833   0.00000  Uiso   1.00
C1107  C     0.83282   0.16665   0.66476   0.00000  Uiso   1.00
C1108  C     0.83385   0.16665   0.83524   0.00000  Uiso   1.00
C1109  C     0.87132   0.16498   0.90783   0.00000  Uiso   1.00
C1110  C     0.79534   0.16500   0.59217   0.00000  Uiso   1.00
C1111  C     0.83365   0.16684   0.88342   0.00000  Uiso   1.00
C1112  C     0.91253   0.16673   0.74955   0.00000  Uiso   1.00
C1113  C     0.83302   0.16685   0.61658   0.00000  Uiso   1.00
C1114  C     0.79559   0.16819   0.90439   0.00000  Uiso   1.00
C1115  C     0.87108   0.16819   0.59561   0.00000  Uiso   1.00
C1116  C     0.79488   0.16952   0.95142   0.00000  Uiso   1.00
C1117  C     0.87179   0.16950   0.54858   0.00000  Uiso   1.00
C1118  C     0.83311   0.16826   0.97642   0.00000  Uiso   1.00
C1119  C     0.83356   0.16826   0.52358   0.00000  Uiso   1.00
C1120  C     0.87102   0.16722   0.95445   0.00000  Uiso   1.00
C1121  C     0.79565   0.16724   0.54555   0.00000  Uiso   1.00
C1122  C     0.75755   0.17308   0.97457   0.00000  Uiso   1.00
C1123  C     0.75851   0.17086   0.52060   0.00000  Uiso   1.00
C1124  C     0.90912   0.17303   0.52543   0.00000  Uiso   1.00
C1125  C     0.91088   0.15935   0.88445   0.00000  Uiso   1.00
C1126  C     0.75579   0.15937   0.61555   0.00000  Uiso   1.00
C1127  C     0.75726   0.16505   0.87605   0.00000  Uiso   1.00
C1128  C     0.90940   0.16506   0.62396   0.00000  Uiso   1.00
C1129  C     0.70726   0.22893   0.94807   0.00000  Uiso   1.00
C1130  C     0.95948   0.22883   0.55188   0.00000  Uiso   1.00
C1131  C     0.74076   0.04260   0.68646   0.00000  Uiso   1.00
C1132  C     0.86361   0.28859   0.86025   0.00000  Uiso   1.00
C1133  C     0.92591   0.04260   0.81353   0.00000  Uiso   1.00
C1134  C     0.90816   0.17082   0.97940   0.00000  Uiso   1.00
C1135  C     0.80306   0.28861   0.63974   0.00000  Uiso   1.00
C1136  C     0.68793   0.12508   0.75142   0.00000  Uiso   1.00
C1137  C     0.97865   0.20928   0.74986   0.00000  Uiso   1.00
C1138  C     0.97874   0.12508   0.74858   0.00000  Uiso   1.00
C1139  C     0.68801   0.20928   0.75013   0.00000  Uiso   1.00
C1140  C     0.95719   0.16706   0.74911   0.00000  Uiso   1.00
Cu1141 Cu    0.83333   0.21355   0.75000   0.00000  Uiso   1.00
Cu1142 Cu    0.83333   0.11978   0.75000   0.00000  Uiso   1.00
H1143  H     0.72932   0.17425   0.53661   0.00000  Uiso   1.00
H1144  H     0.95797   0.12624   0.64496   0.00000  Uiso   1.00
H1145  H     0.69503   0.16100   0.96517   0.00000  Uiso   1.00
H1146  H     0.70286   0.24454   0.98130   0.00000  Uiso   1.00
H1147  H     0.67792   0.23187   0.92812   0.00000  Uiso   1.00
H1148  H     0.73157   0.24844   0.93086   0.00000  Uiso   1.00
H1149  H     0.97163   0.16086   0.53485   0.00000  Uiso   1.00
H1150  H     0.96390   0.24440   0.51865   0.00000  Uiso   1.00
H1151  H     0.98883   0.23173   0.57183   0.00000  Uiso   1.00
H1152  H     0.93521   0.24839   0.56908   0.00000  Uiso   1.00
H1153  H     0.79780   0.05524   0.65751   0.00000  Uiso   1.00
H1154  H     0.93735   0.17419   0.96339   0.00000  Uiso   1.00
H1155  H     0.73149   0.02092   0.65738   0.00000  Uiso   1.00
H1156  H     0.72494   0.07643   0.68241   0.00000  Uiso   1.00
H1157  H     0.73047   0.02571   0.71734   0.00000  Uiso   1.00
H1158  H     0.90957   0.28344   0.81299   0.00000  Uiso   1.00
H1159  H     0.82933   0.28958   0.86029   0.00000  Uiso   1.00
H1160  H     0.87437   0.25872   0.88062   0.00000  Uiso   1.00
H1161  H     0.87648   0.32013   0.87639   0.00000  Uiso   1.00
H1162  H     0.86886   0.05524   0.84249   0.00000  Uiso   1.00
H1163  H     0.93517   0.02091   0.84262   0.00000  Uiso   1.00
H1164  H     0.94173   0.07642   0.81758   0.00000  Uiso   1.00
H1165  H     0.70379   0.09221   0.75387   0.00000  Uiso   1.00
H1166  H     0.93620   0.02570   0.78266   0.00000  Uiso   1.00
H1167  H     0.75710   0.28344   0.68701   0.00000  Uiso   1.00
H1168  H     0.79017   0.32014   0.62361   0.00000  Uiso   1.00
H1169  H     0.79232   0.25872   0.61938   0.00000  Uiso   1.00
H1170  H     0.83734   0.28962   0.63971   0.00000  Uiso   1.00
H1171  H     0.96259   0.24224   0.74999   0.00000  Uiso   1.00
H1172  H     0.96287   0.09221   0.74612   0.00000  Uiso   1.00
H1173  H     0.70408   0.24224   0.75001   0.00000  Uiso   1.00
H1174  H     0.96461   0.12463   0.88022   0.00000  Uiso   1.00
H1175  H     0.70204   0.12466   0.61977   0.00000  Uiso   1.00
H1176  H     0.70868   0.12623   0.85509   0.00000  Uiso   1.00
N1177  N     0.83333   0.28402   0.75000   0.00000  Uiso   1.00
N1178  N     0.83333   0.04931   0.75000   0.00000  Uiso   1.00
N1179  N     0.71855   0.18055   0.95251   0.00000  Uiso   1.00
N1180  N     0.94812   0.18047   0.54748   0.00000  Uiso   1.00
N1181  N     0.78490   0.05026   0.68788   0.00000  Uiso   1.00
N1182  N     0.87798   0.28348   0.81547   0.00000  Uiso   1.00
N1183  N     0.88177   0.05025   0.81212   0.00000  Uiso   1.00
N1184  N     0.78869   0.28349   0.68453   0.00000  Uiso   1.00
O1185  O     0.77321   0.20625   0.74999   0.00000  Uiso   1.00
O1186  O     0.93819   0.12384   0.89721   0.00000  Uiso   1.00
O1187  O     0.74709   0.18578   0.64555   0.00000  Uiso   1.00
O1188  O     0.72846   0.12387   0.60278   0.00000  Uiso   1.00
O1189  O     0.74666   0.19782   0.85254   0.00000  Uiso   1.00
O1190  O     0.73384   0.12434   0.87597   0.00000  Uiso   1.00
O1191  O     0.92002   0.19785   0.64744   0.00000  Uiso   1.00
O1192  O     0.93281   0.12433   0.62409   0.00000  Uiso   1.00
O1193  O     0.89345   0.12709   0.75000   0.00000  Uiso   1.00
O1194  O     0.89345   0.20625   0.75000   0.00000  Uiso   1.00
O1195  O     0.77321   0.12709   0.74999   0.00000  Uiso   1.00
O1196  O     0.83332   0.20627   0.68513   0.00000  Uiso   1.00
O1197  O     0.83334   0.12707   0.81487   0.00000  Uiso   1.00
O1198  O     0.83334   0.20627   0.81487   0.00000  Uiso   1.00
O1199  O     0.83332   0.12707   0.68513   0.00000  Uiso   1.00
O1200  O     0.91958   0.18576   0.85445   0.00000  Uiso   1.00
C1201  C     0.08747   0.50007   0.75045   0.00000  Uiso   1.00
C1202  C     0.04281   0.50039   0.75089   0.00000  Uiso   1.00
C1203  C     0.14282   0.35832   0.71952   0.00000  Uiso   1.00
C1204  C     0.18915   0.64181   0.78167   0.00000  Uiso   1.00
C1205  C     0.19052   0.35832   0.78048   0.00000  Uiso   1.00
C1206  C     0.14418   0.64181   0.71833   0.00000  Uiso   1.00
C1207  C     0.16615   0.49998   0.66476   0.00000  Uiso   1.00
C1208  C     0.16718   0.49998   0.83524   0.00000  Uiso   1.00
C1209  C     0.20466   0.49832   0.90783   0.00000  Uiso   1.00
C1210  C     0.12868   0.49833   0.59217   0.00000  Uiso   1.00
C1211  C     0.16698   0.50018   0.88342   0.00000  Uiso   1.00
C1212  C     0.24587   0.50007   0.74955   0.00000  Uiso   1.00
C1213  C     0.16635   0.50018   0.61658   0.00000  Uiso   1.00
C1214  C     0.12892   0.50153   0.90439   0.00000  Uiso   1.00
C1215  C     0.20441   0.50152   0.59561   0.00000  Uiso   1.00
C1216  C     0.12821   0.50285   0.95142   0.00000  Uiso   1.00
C1217  C     0.20512   0.50284   0.54858   0.00000  Uiso   1.00
C1218  C     0.16644   0.50159   0.97642   0.00000  Uiso   1.00
C1219  C     0.16690   0.50159   0.52358   0.00000  Uiso   1.00
C1220  C     0.20435   0.50055   0.95445   0.00000  Uiso   1.00
C1221  C     0.12898   0.50057   0.54555   0.00000  Uiso   1.00
C1222  C     0.09089   0.50641   0.97457   0.00000  Uiso   1.00
C1223  C     0.09185   0.50419   0.52060   0.00000  Uiso   1.00
C1224  C     0.24245   0.50637   0.52543   0.00000  Uiso   1.00
C1225  C     0.24421   0.49269   0.88445   0.00000  Uiso   1.00
C1226  C     0.08912   0.49270   0.61555   0.00000  Uiso   1.00
C1227  C     0.09060   0.49839   0.87605   0.00000  Uiso   1.00
C1228  C     0.24274   0.49839   0.62396   0.00000  Uiso   1.00
C1229  C     0.04060   0.56227   0.94807   0.00000  Uiso   1.00
C1230  C     0.29281   0.56216   0.55188   0.00000  Uiso   1.00
C1231  C     0.07409   0.37594   0.68646   0.00000  Uiso   1.00
C1232  C     0.19694   0.62193   0.86025   0.00000  Uiso   1.00
C1233  C     0.25924   0.37593   0.81353   0.00000  Uiso   1.00
C1234  C     0.24149   0.50415   0.97940   0.00000  Uiso   1.00
C1235  C     0.13639   0.62194   0.63974   0.00000  Uiso   1.00
C1236  C     0.02126   0.45842   0.75142   0.00000  Uiso   1.00
C1237  C     0.31199   0.54262   0.74986   0.00000  Uiso   1.00
C1238  C     0.31207   0.45842   0.74858   0.00000  Uiso   1.00
C1239  C     0.02135   0.54262   0.75013   0.00000  Uiso   1.00
C1240  C     0.29052   0.50039   0.74911   0.00000  Uiso   1.00
Cu1241 Cu    0.16667   0.54689   0.75000   0.00000  Uiso   1.00
Cu1242 Cu    0.16667   0.45311   0.75000   0.00000  Uiso   1.00
H1243  H     0.06266   0.50758   0.53661   0.00000  Uiso   1.00
H1244  H     0.29130   0.45957   0.64496   0.00000  Uiso   1.00
H1245  H     0.02836   0.49434   0.96517   0.00000  Uiso   1.00
H1246  H     0.03620   0.57787   0.98130   0.00000  Uiso   1.00
H1247  H     0.01125   0.56521   0.92812   0.00000  Uiso   1.00
H1248  H     0.06490   0.58177   0.93086   0.00000  Uiso   1.00
H1249  H     0.30496   0.49420   0.53485   0.00000  Uiso   1.00
H1250  H     0.29723   0.57773   0.51865   0.00000  Uiso   1.00
H1251  H     0.32216   0.56507   0.57183   0.00000  Uiso   1.00
H1252  H     0.26854   0.58173   0.56908   0.00000  Uiso   1.00
H1253  H     0.13114   0.38857   0.65751   0.00000  Uiso   1.00
H1254  H     0.27068   0.50752   0.96339   0.00000  Uiso   1.00
H1255  H     0.06482   0.35425   0.65738   0.00000  Uiso   1.00
H1256  H     0.05827   0.40976   0.68241   0.00000  Uiso   1.00
H1257  H     0.06380   0.35904   0.71734   0.00000  Uiso   1.00
H1258  H     0.24291   0.61677   0.81299   0.00000  Uiso   1.00
H1259  H     0.16266   0.62292   0.86029   0.00000  Uiso   1.00
H1260  H     0.20770   0.59205   0.88062   0.00000  Uiso   1.00
H1261  H     0.20981   0.65347   0.87639   0.00000  Uiso   1.00
H1262  H     0.20220   0.38857   0.84249   0.00000  Uiso   1.00
H1263  H     0.26851   0.35424   0.84262   0.00000  Uiso   1.00
H1264  H     0.27507   0.40975   0.81758   0.00000  Uiso   1.00
H1265  H     0.03712   0.42554   0.75387   0.00000  Uiso   1.00
H1266  H     0.26953   0.35904   0.78266   0.00000  Uiso   1.00
H1267  H     0.09043   0.61677   0.68701   0.00000  Uiso   1.00
H1268  H     0.12351   0.65347   0.62361   0.00000  Uiso   1.00
H1269  H     0.12565   0.59206   0.61938   0.00000  Uiso   1.00
H1270  H     0.17068   0.62295   0.63971   0.00000  Uiso   1.00
H1271  H     0.29592   0.57557   0.74999   0.00000  Uiso   1.00
H1272  H     0.29621   0.42554   0.74612   0.00000  Uiso   1.00
H1273  H     0.03741   0.57557   0.75001   0.00000  Uiso   1.00
H1274  H     0.29795   0.45796   0.88022   0.00000  Uiso   1.00
H1275  H     0.03538   0.45799   0.61977   0.00000  Uiso   1.00
H1276  H     0.04201   0.45957   0.85509   0.00000  Uiso   1.00
N1277  N     0.16667   0.61736   0.75000   0.00000  Uiso   1.00
N1278  N     0.16667   0.38264   0.75000   0.00000  Uiso   1.00
N1279  N     0.05189   0.51389   0.95251   0.00000  Uiso   1.00
N1280  N     0.28146   0.51380   0.54748   0.00000  Uiso   1.00
N1281  N     0.11823   0.38359   0.68788   0.00000  Uiso   1.00
N1282  N     0.21131   0.61682   0.81547   0.00000  Uiso   1.00
N1283  N     0.21510   0.38359   0.81212   0.00000  Uiso   1.00
N1284  N     0.12202   0.61682   0.68453   0.00000  Uiso   1.00
O1285  O     0.10655   0.53958   0.74999   0.00000  Uiso   1.00
O1286  O     0.27153   0.45717   0.89721   0.00000  Uiso   1.00
O1287  O     0.08043   0.51911   0.64555   0.00000  Uiso   1.00
O1288  O     0.06179   0.45721   0.60278   0.00000  Uiso   1.00
O1289  O     0.07999   0.53115   0.85254   0.00000  Uiso   1.00
O1290  O     0.06717   0.45767   0.87597   0.00000  Uiso   1.00
O1291  O     0.25335   0.53118   0.64744   0.00000  Uiso   1.00
O1292  O     0.26614   0.45767   0.62409   0.00000  Uiso   1.00
O1293  O     0.22679   0.46042   0.75000   0.00000  Uiso   1.00
O1294  O     0.22679   0.53958   0.75000   0.00000  Uiso   1.00
O1295  O     0.10655   0.46042   0.74999   0.00000  Uiso   1.00
O1296  O     0.16666   0.53960   0.68513   0.00000  Uiso   1.00
O1297  O     0.16668   0.46040   0.81487   0.00000  Uiso   1.00
O1298  O     0.16668   0.53960   0.81487   0.00000  Uiso   1.00
O1299  O     0.16666   0.46040   0.68513   0.00000  Uiso   1.00
O1300  O     0.25291   0.51910   0.85445   0.00000  Uiso   1.00
C1301  C     0.42080   0.50007   0.75045   0.00000  Uiso   1.00
C1302  C     0.37615   0.50039   0.75089   0.00000  Uiso   1.00
C1303  C     0.47615   0.35832   0.71952   0.00000  Uiso   1.00
C1304  C     0.52249   0.64181   0.78167   0.00000  Uiso   1.00
C1305  C     0.52385   0.35832   0.78048   0.00000  Uiso   1.00
C1306  C     0.47751   0.64181   0.71833   0.00000  Uiso   1.00
C1307  C     0.49949   0.49998   0.66476   0.00000  Uiso   1.00
C1308  C     0.50051   0.49998   0.83524   0.00000  Uiso   1.00
C1309  C     0.53799   0.49832   0.90783   0.00000  Uiso   1.00
C1310  C     0.46201   0.49833   0.59217   0.00000  Uiso   1.00
C1311  C     0.50032   0.50018   0.88342   0.00000  Uiso   1.00
C1312  C     0.57920   0.50007   0.74955   0.00000  Uiso   1.00
C1313  C     0.49968   0.50018   0.61658   0.00000  Uiso   1.00
C1314  C     0.46226   0.50153   0.90439   0.00000  Uiso   1.00
C1315  C     0.53774   0.50152   0.59561   0.00000  Uiso   1.00
C1316  C     0.46155   0.50285   0.95142   0.00000  Uiso   1.00
C1317  C     0.53846   0.50284   0.54858   0.00000  Uiso   1.00
C1318  C     0.49977   0.50159   0.97642   0.00000  Uiso   1.00
C1319  C     0.50023   0.50159   0.52358   0.00000  Uiso   1.00
C1320  C     0.53769   0.50055   0.95445   0.00000  Uiso   1.00
C1321  C     0.46232   0.50057   0.54555   0.00000  Uiso   1.00
C1322  C     0.42422   0.50641   0.97457   0.00000  Uiso   1.00
C1323  C     0.42518   0.50419   0.52060   0.00000  Uiso   1.00
C1324  C     0.57578   0.50637   0.52543   0.00000  Uiso   1.00
C1325  C     0.57755   0.49269   0.88445   0.00000  Uiso   1.00
C1326  C     0.42245   0.49270   0.61555   0.00000  Uiso   1.00
C1327  C     0.42393   0.49839   0.87605   0.00000  Uiso   1.00
C1328  C     0.57607   0.49839   0.62396   0.00000  Uiso   1.00
C1329  C     0.37393   0.56227   0.94807   0.00000  Uiso   1.00
C1330  C     0.62615   0.56216   0.55188   0.00000  Uiso   1.00
C1331  C     0.40742   0.37594   0.68646   0.00000  Uiso   1.00
C1332  C     0.53028   0.62193   0.86025   0.00000  Uiso   1.00
C1333  C     0.59258   0.37593   0.81353   0.00000  Uiso   1.00
C1334  C     0.57482   0.50415   0.97940   0.00000  Uiso   1.00
C1335  C     0.46973   0.62194   0.63974   0.00000  Uiso   1.00
C1336  C     0.35460   0.45842   0.75142   0.00000  Uiso   1.00
C1337  C     0.64532   0.54262   0.74986   0.00000  Uiso   1.00
C1338  C     0.64540   0.45842   0.74858   0.00000  Uiso   1.00
C1339  C     0.35468   0.54262   0.75013   0.00000  Uiso   1.00
C1340  C     0.62385   0.50039   0.74911   0.00000  Uiso   1.00
Cu1341 Cu    0.50000   0.54689   0.75000   0.00000  Uiso   1.00
Cu1342 Cu    0.50000   0.45311   0.75000   0.00000  Uiso   1.00
H1343  H     0.39599   0.50758   0.53661   0.00000  Uiso   1.00
H1344  H     0.62464   0.45957   0.64496   0.00000  Uiso   1.00
H1345  H     0.36169   0.49434   0.96517   0.00000  Uiso   1.00
H1346  H     0.36953   0.57787   0.98130   0.00000  Uiso   1.00
H1347  H     0.34458   0.56521   0.92812   0.00000  Uiso   1.00
H1348  H     0.39823   0.58177   0.93086   0.00000  Uiso   1.00
H1349  H     0.63829   0.49420   0.53485   0.00000  Uiso   1.00
H1350  H     0.63057   0.57773   0.51865   0.00000  Uiso   1.00
H1351  H     0.65550   0.56507   0.57183   0.00000  Uiso   1.00
H1352  H     0.60187   0.58173   0.56908   0.00000  Uiso   1.00
H1353  H     0.46447   0.38857   0.65751   0.00000  Uiso   1.00
H1354  H     0.60401   0.50752   0.96339   0.00000  Uiso   1.00
H1355  H     0.39816   0.35425   0.65738   0.00000  Uiso   1.00
H1356  H     0.39160   0.40976   0.68241   0.00000  Uiso   1.00
H1357  H     0.39714   0.35904   0.71734   0.00000  Uiso   1.00
H1358  H     0.57624   0.61677   0.81299   0.00000  Uiso   1.00
H1359  H     0.49599   0.62292   0.86029   0.00000  Uiso   1.00
H1360  H     0.54104   0.59205   0.88062   0.00000  Uiso   1.00
H1361  H     0.54315   0.65347   0.87639   0.00000  Uiso   1.00
H1362  H     0.53553   0.38857   0.84249   0.00000  Uiso   1.00
H1363  H     0.60184   0.35424   0.84262   0.00000  Uiso   1.00
H1364  H     0.60840   0.40975   0.81758   0.00000  Uiso   1.00
H1365  H     0.37046   0.42554   0.75387   0.00000  Uiso   1.00
H1366  H     0.60286   0.35904   0.78266   0.00000  Uiso   1.00
H1367  H     0.42376   0.61677   0.68701   0.00000  Uiso   1.00
H1368  H     0.45684   0.65347   0.62361   0.00000  Uiso   1.00
H1369  H     0.45898   0.59206   0.61938   0.00000  Uiso   1.00
H1370  H     0.50401   0.62295   0.63971   0.00000  Uiso   1.00
H1371  H     0.62926   0.57557   0.74999   0.00000  Uiso   1.00
H1372  H     0.62954   0.42554   0.74612   0.00000  Uiso   1.00
H1373  H     0.37074   0.57557   0.75001   0.00000  Uiso   1.00
H1374  H     0.63128   0.45796   0.88022   0.00000  Uiso   1.00
H1375  H     0.36871   0.45799   0.61977   0.00000  Uiso   1.00
H1376  H     0.37534   0.45957   0.85509   0.00000  Uiso   1.00
N1377  N     0.50000   0.61736   0.75000   0.00000  Uiso   1.00
N1378  N     0.50000   0.38264   0.75000   0.00000  Uiso   1.00
N1379  N     0.38522   0.51389   0.95251   0.00000  Uiso   1.00
N1380  N     0.61479   0.51380   0.54748   0.00000  Uiso   1.00
N1381  N     0.45156   0.38359   0.68788   0.00000  Uiso   1.00
N1382  N     0.54464   0.61682   0.81547   0.00000  Uiso   1.00
N1383  N     0.54844   0.38359   0.81212   0.00000  Uiso   1.00
N1384  N     0.45536   0.61682   0.68453   0.00000  Uiso   1.00
O1385  O     0.43988   0.53958   0.74999   0.00000  Uiso   1.00
O1386  O     0.60486   0.45717   0.89721   0.00000  Uiso   1.00
O1387  O     0.41376   0.51911   0.64555   0.00000  Uiso   1.00
O1388  O     0.39513   0.45721   0.60278   0.00000  Uiso   1.00
O1389  O     0.41333   0.53115   0.85254   0.00000  Uiso   1.00
O1390  O     0.40051   0.45767   0.87597   0.00000  Uiso   1.00
O1391  O     0.58668   0.53118   0.64744   0.00000  Uiso   1.00
O1392  O     0.59947   0.45767   0.62409   0.00000  Uiso   1.00
O1393  O     0.56012   0.46042   0.75000   0.00000  Uiso   1.00
O1394  O     0.56012   0.53958   0.75000   0.00000  Uiso   1.00
O1395  O     0.43988   0.46042   0.74999   0.00000  Uiso   1.00
O1396  O     0.49999   0.53960   0.68513   0.00000  Uiso   1.00
O1397  O     0.50001   0.46040   0.81487   0.00000  Uiso   1.00
O1398  O     0.50001   0.53960   0.81487   0.00000  Uiso   1.00
O1399  O     0.49999   0.46040   0.68513   0.00000  Uiso   1.00
O1400  O     0.58625   0.51910   0.85445   0.00000  Uiso   1.00
C1401  C     0.75413   0.50007   0.75045   0.00000  Uiso   1.00
C1402  C     0.70948   0.50039   0.75089   0.00000  Uiso   1.00
C1403  C     0.80948   0.35832   0.71952   0.00000  Uiso   1.00
C1404  C     0.85582   0.64181   0.78167   0.00000  Uiso   1.00
C1405  C     0.85718   0.35832   0.78048   0.00000  Uiso   1.00
C1406  C     0.81085   0.64181   0.71833   0.00000  Uiso   1.00
C1407  C     0.83282   0.49998   0.66476   0.00000  Uiso   1.00
C1408  C     0.83385   0.49998   0.83524   0.00000  Uiso   1.00
C1409  C     0.87132   0.49832   0.90783   0.00000  Uiso   1.00
C1410  C     0.79534   0.49833   0.59217   0.00000  Uiso   1.00
C1411  C     0.83365   0.50018   0.88342   0.00000  Uiso   1.00
C1412  C     0.91253   0.50007   0.74955   0.00000  Uiso   1.00
C1413  C     0.83302   0.50018   0.61658   0.00000  Uiso   1.00
C1414  C     0.79559   0.50153   0.90439   0.00000  Uiso   1.00
C1415  C     0.87108   0.50152   0.59561   0.00000  Uiso   1.00
C1416  C     0.79488   0.50285   0.95142   0.00000  Uiso   1.00
C1417  C     0.87179   0.50284   0.54858   0.00000  Uiso   1.00
C1418  C     0.83311   0.50159   0.97642   0.00000  Uiso   1.00
C1419  C     0.83356   0.50159   0.52358   0.00000  Uiso   1.00
C1420  C     0.87102   0.50055   0.95445   0.00000  Uiso   1.00
C1421  C     0.79565   0.50057   0.54555   0.00000  Uiso   1.00
C1422  C     0.75755   0.50641   0.97457   0.00000  Uiso   1.00
C1423  C     0.75851   0.50419   0.52060   0.00000  Uiso   1.00
C1424  C     0.90912   0.50637   0.52543   0.00000  Uiso   1.00
C1425  C     0.91088   0.49269   0.88445   0.00000  Uiso   1.00
C1426  C     0.75579   0.49270   0.61555   0.00000  Uiso   1.00
C1427  C     0.75726   0.49839   0.87605   0.00000  Uiso   1.00
C1428  C     0.90940   0.49839   0.62396   0.00000  Uiso   1.00
C1429  C     0.70726   0.56227   0.94807   0.00000  Uiso   1.00
C1430  C     0.95948   0.56216   0.55188   0.00000  Uiso   1.00
C1431  C     0.74076   0.37594   0.68646   0.00000  Uiso   1.00
C1432  C     0.86361   0.62193   0.86025   0.00000  Uiso   1.00
C1433  C     0.92591   0.37593   0.81353   0.00000  Uiso   1.00
C1434  C     0.90816   0.50415   0.97940   0.00000  Uiso   1.00
C1435  C     0.80306   0.62194   0.63974   0.00000  Uiso   1.00
C1436  C     0.68793   0.45842   0.75142   0.00000  Uiso   1.00
C1437  C     0.97865   0.54262   0.74986   0.00000  Uiso   1.00
C1438  C     0.97874   0.45842   0.74858   0.00000  Uiso   1.00
C1439  C     0.68801   0.54262   0.75013   0.00000  Uiso   1.00
C1440  C     0.95719   0.50039   0.74911   0.00000  Uiso   1.00
Cu1441 Cu    0.83333   0.54689   0.75000   0.00000  Uiso   1.00
Cu1442 Cu    0.83333   0.45311   0.75000   0.00000  Uiso   1.00
H1443  H     0.72932   0.50758   0.53661   0.00000  Uiso   1.00
H1444  H     0.95797   0.45957   0.64496   0.00000  Uiso   1.00
H1445  H     0.69503   0.49434   0.96517   0.00000  Uiso   1.00
H1446  H     0.70286   0.57787   0.98130   0.00000  Uiso   1.00
H1447  H     0.67792   0.56521   0.92812   0.00000  Uiso   1.00
H1448  H     0.73157   0.58177   0.93086   0.00000  Uiso   1.00
H1449  H     0.97163   0.49420   0.53485   0.00000  Uiso   1.00
H1450  H     0.96390   0.57773   0.51865   0.00000  Uiso   1.00
H1451  H     0.98883   0.56507   0.57183   0.00000  Uiso   1.00
H1452  H     0.93521   0.58173   0.56908   0.00000  Uiso   1.00
H1453  H     0.79780   0.38857   0.65751   0.00000  Uiso   1.00
H1454  H     0.93735   0.50752   0.96339   0.00000  Uiso   1.00
H1455  H     0.73149   0.35425   0.65738   0.00000  Uiso   1.00
H1456  H     0.72494   0.40976   0.68241   0.00000  Uiso   1.00
H1457  H     0.73047   0.35904   0.71734   0.00000  Uiso   1.00
H1458  H     0.90957   0.61677   0.81299   0.00000  Uiso   1.00
H1459  H     0.82933   0.62292   0.86029   0.00000  Uiso   1.00
H1460  H     0.87437   0.59205   0.88062   0.00000  Uiso   1.00
H1461  H     0.87648   0.65347   0.87639   0.00000  Uiso   1.00
H1462  H     0.86886   0.38857   0.84249   0.00000  Uiso   1.00
H1463  H     0.93517   0.35424   0.84262   0.00000  Uiso   1.00
H1464  H     0.94173   0.40975   0.81758   0.00000  Uiso   1.00
H1465  H     0.70379   0.42554   0.75387   0.00000  Uiso   1.00
H1466  H     0.93620   0.35904   0.78266   0.00000  Uiso   1.00
H1467  H     0.75710   0.61677   0.68701   0.00000  Uiso   1.00
H1468  H     0.79017   0.65347   0.62361   0.00000  Uiso   1.00
H1469  H     0.79232   0.59206   0.61938   0.00000  Uiso   1.00
H1470  H     0.83734   0.62295   0.63971   0.00000  Uiso   1.00
H1471  H     0.96259   0.57557   0.74999   0.00000  Uiso   1.00
H1472  H     0.96287   0.42554   0.74612   0.00000  Uiso   1.00
H1473  H     0.70408   0.57557   0.75001   0.00000  Uiso   1.00
H1474  H     0.96461   0.45796   0.88022   0.00000  Uiso   1.00
H1475  H     0.70204   0.45799   0.61977   0.00000  Uiso   1.00
H1476  H     0.70868   0.45957   0.85509   0.00000  Uiso   1.00
N1477  N     0.83333   0.61736   0.75000   0.00000  Uiso   1.00
N1478  N     0.83333   0.38264   0.75000   0.00000  Uiso   1.00
N1479  N     0.71855   0.51389   0.95251   0.00000  Uiso   1.00
N1480  N     0.94812   0.51380   0.54748   0.00000  Uiso   1.00
N1481  N     0.78490   0.38359   0.68788   0.00000  Uiso   1.00
N1482  N     0.87798   0.61682   0.81547   0.00000  Uiso   1.00
N1483  N     0.88177   0.38359   0.81212   0.00000  Uiso   1.00
N1484  N     0.78869   0.61682   0.68453   0.00000  Uiso   1.00
O1485  O     0.77321   0.53958   0.74999   0.00000  Uiso   1.00
O1486  O     0.93819   0.45717   0.89721   0.00000  Uiso   1.00
O1487  O     0.74709   0.51911   0.64555   0.00000  Uiso   1.00
O1488  O     0.72846   0.45721   0.60278   0.00000  Uiso   1.00
O1489  O     0.74666   0.53115   0.85254   0.00000  Uiso   1.00
O1490  O     0.73384   0.45767   0.87597   0.00000  Uiso   1.00
O1491  O     0.92002   0.53118   0.64744   0.00000  Uiso   1.00
O1492  O     0.93281   0.45767   0.62409   0.00000  Uiso   1.00
O1493  O     0.89345   0.46042   0.75000   0.00000  Uiso   1.00
O1494  O     0.89345   0.53958   0.75000   0.00000  Uiso   1.00
O1495  O     0.77321   0.46042   0.74999   0.00000  Uiso   1.00
O1496  O     0.83332   0.53960   0.68513   0.00000  Uiso   1.00
O1497  O     0.83334   0.46040   0.81487   0.00000  Uiso   1.00
O1498  O     0.83334   0.53960   0.81487   0.00000  Uiso   1.00
O1499  O     0.83332   0.46040   0.68513   0.00000  Uiso   1.00
O1500  O     0.91958   0.51910   0.85445   0.00000  Uiso   1.00
C1501  C     0.08747   0.83340   0.75045   0.00000  Uiso   1.00
C1502  C     0.04281   0.83372   0.75089   0.00000  Uiso   1.00
C1503  C     0.14282   0.69165   0.71952   0.00000  Uiso   1.00
C1504  C     0.18915   0.97514   0.78167   0.00000  Uiso   1.00
C1505  C     0.19052   0.69165   0.78048   0.00000  Uiso   1.00
C1506  C     0.14418   0.97515   0.71833   0.00000  Uiso   1.00
C1507  C     0.16615   0.83332   0.66476   0.00000  Uiso   1.00
C1508  C     0.16718   0.83332   0.83524   0.00000  Uiso   1.00
C1509  C     0.20466   0.83165   0.90783   0.00000  Uiso   1.00
C1510  C     0.12868   0.83166   0.59217   0.00000  Uiso   1.00
C1511  C     0.16698   0.83351   0.88342   0.00000  Uiso   1.00
C1512  C     0.24587   0.83340   0.74955   0.00000  Uiso   1.00
C1513  C     0.16635   0.83352   0.61658   0.00000  Uiso   1.00
C1514  C     0.12892   0.83486   0.90439   0.00000  Uiso   1.00
C1515  C     0.20441   0.83486   0.59561   0.00000  Uiso   1.00
C1516  C     0.12821   0.83618   0.95142   0.00000  Uiso   1.00
C1517  C     0.20512   0.83617   0.54858   0.00000  Uiso   1.00
C1518  C     0.16644   0.83492   0.97642   0.00000  Uiso   1.00
C1519  C     0.16690   0.83492   0.52358   0.00000  Uiso   1.00
C1520  C     0.20435   0.83389   0.95445   0.00000  Uiso   1.00
C1521  C     0.12898   0.83390   0.54555   0.00000  Uiso   1.00
C1522  C     0.09089   0.83974   0.97457   0.00000  Uiso   1.00
C1523  C     0.09185   0.83752   0.52060   0.00000  Uiso   1.00
C1524  C     0.24245   0.83970   0.52543   0.00000  Uiso   1.00
C1525  C     0.24421   0.82602   0.88445   0.00000  Uiso   1.00
C1526  C     0.08912   0.82604   0.61555   0.00000  Uiso   1.00
C1527  C     0.09060   0.83172   0.87605   0.00000  Uiso   1.00
C1528  C     0.24274   0.83173   0.62396   0.00000  Uiso   1.00
C1529  C     0.04060   0.89560   0.94807   0.00000  Uiso   1.00
C1530  C     0.29281   0.89550   0.55188   0.00000  Uiso   1.00
C1531  C     0.07409   0.70927   0.68646   0.00000  Uiso   1.00
C1532  C     0.19694   0.95526   0.86025   0.00000  Uiso   1.00
C1533  C     0.25924   0.70926   0.81353   0.00000  Uiso   1.00
C1534  C     0.24149   0.83748   0.97940   0.00000  Uiso   1.00
C1535  C     0.13639   0.95527   0.63974   0.00000  Uiso   1.00
C1536  C     0.02126   0.79175   0.75142   0.00000  Uiso   1.00
C1537  C     0.31199   0.87595   0.74986   0.00000  Uiso   1.00
C1538  C     0.31207   0.79175   0.74858   0.00000  Uiso   1.00
C1539  C     0.02135   0.87595   0.75013   0.00000  Uiso   1.00
C1540  C     0.29052   0.83372   0.74911   0.00000  Uiso   1.00
Cu1541 Cu    0.16667   0.88022   0.75000   0.00000  Uiso   1.00
Cu1542 Cu    0.16667   0.78645   0.75000   0.00000  Uiso   1.00
H1543  H     0.06266   0.84092   0.53661   0.00000  Uiso   1.00
H1544  H     0.29130   0.79290   0.64496   0.00000  Uiso   1.00
H1545  H     0.02836   0.82767   0.96517   0.00000  Uiso   1.00
H1546  H     0.03620   0.91120   0.98130   0.00000  Uiso   1.00
H1547  H     0.01125   0.89854   0.92812   0.00000  Uiso   1.00
H1548  H     0.06490   0.91511   0.93086   0.00000  Uiso   1.00
H1549  H     0.30496   0.82753   0.53485   0.00000  Uiso   1.00
H1550  H     0.29723   0.91106   0.51865   0.00000  Uiso   1.00
H1551  H     0.32216   0.89840   0.57183   0.00000  Uiso   1.00
H1552  H     0.26854   0.91506   0.56908   0.00000  Uiso   1.00
H1553  H     0.13114   0.72191   0.65751   0.00000  Uiso   1.00
H1554  H     0.27068   0.84086   0.96339   0.00000  Uiso   1.00
H1555  H     0.06482   0.68758   0.65738   0.00000  Uiso   1.00
H1556  H     0.05827   0.74309   0.68241   0.00000  Uiso   1.00
H1557  H     0.06380   0.69238   0.71734   0.00000  Uiso   1.00
H1558  H     0.24291   0.95011   0.81299   0.00000  Uiso   1.00
H1559  H     0.16266   0.95625   0.86029   0.00000  Uiso   1.00
H1560  H     0.20770   0.92538   0.88062   0.00000  Uiso   1.00
H1561  H     0.20981   0.98680   0.87639   0.00000  Uiso   1.00
H1562  H     0.20220   0.72190   0.84249   0.00000  Uiso   1.00
H1563  H     0.26851   0.68758   0.84262   0.00000  Uiso   1.00
H1564  H     0.27507   0.74309   0.81758   0.00000  Uiso   1.00
H1565  H     0.03712   0.75887   0.75387   0.00000  Uiso   1.00
H1566  H     0.26953   0.69237   0.78266   0.00000  Uiso   1.00
H1567  H     0.09043   0.95011   0.68701   0.00000  Uiso   1.00
H1568  H     0.12351   0.98681   0.62361   0.00000  Uiso   1.00
H1569  H     0.12565   0.92539   0.61938   0.00000  Uiso   1.00
H1570  H     0.17068   0.95629   0.63971   0.00000  Uiso   1.00
H1571  H     0.29592   0.90890   0.74999   0.00000  Uiso   1.00
H1572  H     0.29621   0.75887   0.74612   0.00000  Uiso   1.00
H1573  H     0.03741   0.90890   0.75001   0.00000  Uiso   1.00
H1574  H     0.29795   0.79129   0.88022   0.00000  Uiso   1.00
H1575  H     0.03538   0.79133   0.61977   0.00000  Uiso   1.00
H1576  H     0.04201   0.79290   0.85509   0.00000  Uiso   1.00
N1577  N     0.16667   0.95069   0.75000   0.00000  Uiso   1.00
N1578  N     0.16667   0.71598   0.75000   0.00000  Uiso   1.00
N1579  N     0.05189   0.84722   0.95251   0.00000  Uiso   1.00
N1580  N     0.28146   0.84713   0.54748   0.00000  Uiso   1.00
N1581  N     0.11823   0.71692   0.68788   0.00000  Uiso   1.00
N1582  N     0.21131   0.95015   0.81547   0.00000  Uiso   1.00
N1583  N     0.21510   0.71692   0.81212   0.00000  Uiso   1.00
N1584  N     0.12202   0.95016   0.68453   0.00000  Uiso   1.00
O1585  O     0.10655   0.87291   0.74999   0.00000  Uiso   1.00
O1586  O     0.27153   0.79051   0.89721   0.00000  Uiso   1.00
O1587  O     0.08043   0.85244   0.64555   0.00000  Uiso   1.00
O1588  O     0.06179   0.79054   0.60278   0.00000  Uiso   1.00
O1589  O     0.07999   0.86448   0.85254   0.00000  Uiso   1.00
O1590  O     0.06717   0.79101   0.87597   0.00000  Uiso   1.00
O1591  O     0.25335   0.86451   0.64744   0.00000  Uiso   1.00
O1592  O     0.26614   0.79100   0.62409   0.00000  Uiso   1.00
O1593  O     0.22679   0.79375   0.75000   0.00000  Uiso   1.00
O1594  O     0.22679   0.87291   0.75000   0.00000  Uiso   1.00
O1595  O     0.10655   0.79375   0.74999   0.00000  Uiso   1.00
O1596  O     0.16666   0.87293   0.68513   0.00000  Uiso   1.00
O1597  O     0.16668   0.79373   0.81487   0.00000  Uiso   1.00
O1598  O     0.16668   0.87293   0.81487   0.00000  Uiso   1.00
O1599  O     0.16666   0.79373   0.68513   0.00000  Uiso   1.00
O1600  O     0.25291   0.85243   0.85445   0.00000  Uiso   1.00
C1601  C     0.42080   0.83340   0.75045   0.00000  Uiso   1.00
C1602  C     0.37615   0.83372   0.75089   0.00000  Uiso   1.00
C1603  C     0.47615   0.69165   0.71952   0.00000  Uiso   1.00
C1604  C     0.52249   0.97514   0.78167   0.00000  Uiso   1.00
C1605  C     0.52385   0.69165   0.78048   0.00000  Uiso   1.00
C1606  C     0.47751   0.97515   0.71833   0.00000  Uiso   1.00
C1607  C     0.49949   0.83332   0.66476   0.00000  Uiso   1.00
C1608  C     0.50051   0.83332   0.83524   0.00000  Uiso   1.00
C1609  C     0.53799   0.83165   0.90783   0.00000  Uiso   1.00
C1610  C     0.46201   0.83166   0.59217   0.00000  Uiso   1.00
C1611  C     0.50032   0.83351   0.88342   0.00000  Uiso   1.00
C1612  C     0.57920   0.83340   0.74955   0.00000  Uiso   1.00
C1613  C     0.49968   0.83352   0.61658   0.00000  Uiso   1.00
C1614  C     0.46226   0.83486   0.90439   0.00000  Uiso   1.00
C1615  C     0.53774   0.83486   0.59561   0.00000  Uiso   1.00
C1616  C     0.46155   0.83618   0.95142   0.00000  Uiso   1.00
C1617  C     0.53846   0.83617   0.54858   0.00000  Uiso   1.00
C1618  C     0.49977   0.83492   0.97642   0.00000  Uiso   1.00
C1619  C     0.50023   0.83492   0.52358   0.00000  Uiso   1.00
C1620  C     0.53769   0.83389   0.95445   0.00000  Uiso   1.00
C1621  C     0.46232   0.83390   0.54555   0.00000  Uiso   1.00
C1622  C     0.42422   0.83974   0.97457   0.00000  Uiso   1.00
C1623  C     0.42518   0.83752   0.52060   0.00000  Uiso   1.00
C1624  C     0.57578   0.83970   0.52543   0.00000  Uiso   1.00
C1625  C     0.57755   0.82602   0.88445   0.00000  Uiso   1.00
C1626  C     0.42245   0.82604   0.61555   0.00000  Uiso   1.00
C1627  C     0.42393   0.83172   0.87605   0.00000  Uiso   1.00
C1628  C     0.57607   0.83173   0.62396   0.00000  Uiso   1.00
C1629  C     0.37393   0.89560   0.94807   0.00000  Uiso   1.00
C1630  C     0.62615   0.89550   0.55188   0.00000  Uiso   1.00
C1631  C     0.40742   0.70927   0.68646   0.00000  Uiso   1.00
C1632  C     0.53028   0.95526   0.86025   0.00000  Uiso   1.00
C1633  C     0.59258   0.70926   0.81353   0.00000  Uiso   1.00
C1634  C     0.57482   0.83748   0.97940   0.00000  Uiso   1.00
C1635  C     0.46973   0.95527   0.63974   0.00000  Uiso   1.00
C1636  C     0.35460   0.79175   0.75142   0.00000  Uiso   1.00
C1637  C     0.64532   0.87595   0.74986   0.00000  Uiso   1.00
C1638  C     0.64540   0.79175   0.74858   0.00000  Uiso   1.00
C1639  C     0.35468   0.87595   0.75013   0.00000  Uiso   1.00
C1640  C     0.62385   0.83372   0.74911   0.00000  Uiso   1.00
Cu1641 Cu    0.50000   0.88022   0.75000   0.00000  Uiso   1.00
Cu1642 Cu    0.50000   0.78645   0.75000   0.00000  Uiso   1.00
H1643  H     0.39599   0.84092   0.53661   0.00000  Uiso   1.00
H1644  H     0.62464   0.79290   0.64496   0.00000  Uiso   1.00
H1645  H     0.36169   0.82767   0.96517   0.00000  Uiso   1.00
H1646  H     0.36953   0.91120   0.98130   0.00000  Uiso   1.00
H1647  H     0.34458   0.89854   0.92812   0.00000  Uiso   1.00
H1648  H     0.39823   0.91511   0.93086   0.00000  Uiso   1.00
H1649  H     0.63829   0.82753   0.53485   0.00000  Uiso   1.00
H1650  H     0.63057   0.91106   0.51865   0.00000  Uiso   1.00
H1651  H     0.65550   0.89840   0.57183   0.00000  Uiso   1.00
H1652  H     0.60187   0.91506   0.56908   0.00000  Uiso   1.00
H1653  H     0.46447   0.72191   0.65751   0.00000  Uiso   1.00
H1654  H     0.60401   0.84086   0.96339   0.00000  Uiso   1.00
H1655  H     0.39816   0.68758   0.65738   0.00000  Uiso   1.00
H1656  H     0.39160   0.74309   0.68241   0.00000  Uiso   1.00
H1657  H     0.39714   0.69238   0.71734   0.00000  Uiso   1.00
H1658  H     0.57624   0.95011   0.81299   0.00000  Uiso   1.00
H1659  H     0.49599   0.95625   0.86029   0.00000  Uiso   1.00
H1660  H     0.54104   0.92538   0.88062   0.00000  Uiso   1.00
H1661  H     0.54315   0.98680   0.87639   0.00000  Uiso   1.00
H1662  H     0.53553   0.72190   0.84249   0.00000  Uiso   1.00
H1663  H     0.60184   0.68758   0.84262   0.00000  Uiso   1.00
H1664  H     0.60840   0.74309   0.81758   0.00000  Uiso   1.00
H1665  H     0.37046   0.75887   0.75387   0.00000  Uiso   1.00
H1666  H     0.60286   0.69237   0.78266   0.00000  Uiso   1.00
H1667  H     0.42376   0.95011   0.68701   0.00000  Uiso   1.00
H1668  H     0.45684   0.98681   0.62361   0.00000  Uiso   1.00
H1669  H     0.45898   0.92539   0.61938   0.00000  Uiso   1.00
H1670  H     0.50401   0.95629   0.63971   0.00000  Uiso   1.00
H1671  H     0.62926   0.90890   0.74999   0.00000  Uiso   1.00
H1672  H     0.62954   0.75887   0.74612   0.00000  Uiso   1.00
H1673  H     0.37074   0.90890   0.75001   0.00000  Uiso   1.00
H1674  H     0.63128   0.79129   0.88022   0.00000  Uiso   1.00
H1675  H     0.36871   0.79133   0.61977   0.00000  Uiso   1.00
H1676  H     0.37534   0.79290   0.85509   0.00000  Uiso   1.00
N1677  N     0.50000   0.95069   0.75000   0.00000  Uiso   1.00
N1678  N     0.50000   0.71598   0.75000   0.00000  Uiso   1.00
N1679  N     0.38522   0.84722   0.95251   0.00000  Uiso   1.00
N1680  N     0.61479   0.84713   0.54748   0.00000  Uiso   1.00
N1681  N     0.45156   0.71692   0.68788   0.00000  Uiso   1.00
N1682  N     0.54464   0.95015   0.81547   0.00000  Uiso   1.00
N1683  N     0.54844   0.71692   0.81212   0.00000  Uiso   1.00
N1684  N     0.45536   0.95016   0.68453   0.00000  Uiso   1.00
O1685  O     0.43988   0.87291   0.74999   0.00000  Uiso   1.00
O1686  O     0.60486   0.79051   0.89721   0.00000  Uiso   1.00
O1687  O     0.41376   0.85244   0.64555   0.00000  Uiso   1.00
O1688  O     0.39513   0.79054   0.60278   0.00000  Uiso   1.00
O1689  O     0.41333   0.86448   0.85254   0.00000  Uiso   1.00
O1690  O     0.40051   0.79101   0.87597   0.00000  Uiso   1.00
O1691  O     0.58668   0.86451   0.64744   0.00000  Uiso   1.00
O1692  O     0.59947   0.79100   0.62409   0.00000  Uiso   1.00
O1693  O     0.56012   0.79375   0.75000   0.00000  Uiso   1.00
O1694  O     0.56012   0.87291   0.75000   0.00000  Uiso   1.00
O1695  O     0.43988   0.79375   0.74999   0.00000  Uiso   1.00
O1696  O     0.49999   0.87293   0.68513   0.00000  Uiso   1.00
O1697  O     0.50001   0.79373   0.81487   0.00000  Uiso   1.00
O1698  O     0.50001   0.87293   0.81487   0.00000  Uiso   1.00
O1699  O     0.49999   0.79373   0.68513   0.00000  Uiso   1.00
O1700  O     0.58625   0.85243   0.85445   0.00000  Uiso   1.00
C1701  C     0.75413   0.83340   0.75045   0.00000  Uiso   1.00
C1702  C     0.70948   0.83372   0.75089   0.00000  Uiso   1.00
C1703  C     0.80948   0.69165   0.71952   0.00000  Uiso   1.00
C1704  C     0.85582   0.97514   0.78167   0.00000  Uiso   1.00
C1705  C     0.85718   0.69165   0.78048   0.00000  Uiso   1.00
C1706  C     0.81085   0.97515   0.71833   0.00000  Uiso   1.00
C1707  C     0.83282   0.83332   0.66476   0.00000  Uiso   1.00
C1708  C     0.83385   0.83332   0.83524   0.00000  Uiso   1.00
C1709  C     0.87132   0.83165   0.90783   0.00000  Uiso   1.00
C1710  C     0.79534   0.83166   0.59217   0.00000  Uiso   1.00
C1711  C     0.83365   0.83351   0.88342   0.00000  Uiso   1.00
C1712  C     0.91253   0.83340   0.74955   0.00000  Uiso   1.00
C1713  C     0.83302   0.83352   0.61658   0.00000  Uiso   1.00
C1714  C     0.79559   0.83486   0.90439   0.00000  Uiso   1.00
C1715  C     0.87108   0.83486   0.59561   0.00000  Uiso   1.00
C1716  C     0.79488   0.83618   0.95142   0.00000  Uiso   1.00
C1717  C     0.87179   0.83617   0.54858   0.00000  Uiso   1.00
C1718  C     0.83311   0.83492   0.97642   0.00000  Uiso   1.00
C1719  C     0.83356   0.83492   0.52358   0.00000  Uiso   1.00
C1720  C     0.87102   0.83389   0.95445   0.00000  Uiso   1.00
C1721  C     0.79565   0.83390   0.54555   0.00000  Uiso   1.00
C1722  C     0.75755   0.83974   0.97457   0.00000  Uiso   1.00
C1723  C     0.75851   0.83752   0.52060   0.00000  Uiso   1.00
C1724  C     0.90912   0.83970   0.52543   0.00000  Uiso   1.00
C1725  C     0.91088   0.82602   0.88445   0.00000  Uiso   1.00
C1726  C     0.75579   0.82604   0.61555   0.00000  Uiso   1.00
C1727  C     0.75726   0.83172   0.87605   0.00000  Uiso   1.00
C1728  C     0.90940   0.83173   0.62396   0.00000  Uiso   1.00
C1729  C     0.70726   0.89560   0.94807   0.00000  Uiso   1.00
C1730  C     0.95948   0.89550   0.55188   0.00000  Uiso   1.00
C1731  C     0.74076   0.70927   0.68646   0.00000  Uiso   1.00
C1732  C     0.86361   0.95526   0.86025   0.00000  Uiso   1.00
C1733  C     0.92591   0.70926   0.81353   0.00000  Uiso   1.00
C1734  C     0.90816   0.83748   0.97940   0.00000  Uiso   1.00
C1735  C     0.80306   0.95527   0.63974   0.00000  Uiso   1.00
C1736  C     0.68793   0.79175   0.75142   0.00000  Uiso   1.00
C1737  C     0.97865   0.87595   0.74986   0.00000  Uiso   1.00
C1738  C     0.97874   0.79175   0.74858   0.00000  Uiso   1.00
C1739  C     0.68801   0.87595   0.75013   0.00000  Uiso   1.00
C1740  C     0.95719   0.83372   0.74911   0.00000  Uiso   1.00
Cu1741 Cu    0.83333   0.88022   0.75000   0.00000  Uiso   1.00
Cu1742 Cu    0.83333   0.78645   0.75000   0.00000  Uiso   1.00
H1743  H     0.72932   0.84092   0.53661   0.00000  Uiso   1.00
H1744  H     0.95797   0.79290   0.64496   0.00000  Uiso   1.00
H1745  H     0.69503   0.82767   0.96517   0.00000  Uiso   1.00
H1746  H     0.70286   0.91120   0.98130   0.00000  Uiso   1.00
H1747  H     0.67792   0.89854   0.92812   0.00000  Uiso   1.00
H1748  H     0.73157   0.91511   0.93086   0.00000  Uiso   1.00
H1749  H     0.97163   0.82753   0.53485   0.00000  Uiso   1.00
H1750  H     0.96390   0.91106   0.51865   0.00000  Uiso   1.00
H1751  H     0.98883   0.89840   0.57183   0.00000  Uiso   1.00
H1752  H     0.93521   0.91506   0.56908   0.00000  Uiso   1.00
H1753  H     0.79780   0.72191   0.65751   0.00000  Uiso   1.00
H1754  H     0.93735   0.84086   0.96339   0.00000  Uiso   1.00
H1755  H     0.73149   0.68758   0.65738   0.00000  Uiso   1.00
H1756  H     0.72494   0.74309   0.68241   0.00000  Uiso   1.00
H1757  H     0.73047   0.69238   0.71734   0.00000  Uiso   1.00
H1758  H     0.90957   0.95011   0.81299   0.00000  Uiso   1.00
H1759  H     0.82933   0.95625   0.86029   0.00000  Uiso   1.00
H1760  H     0.87437   0.92538   0.88062   0.00000  Uiso   1.00
H1761  H     0.87648   0.98680   0.87639   0.00000  Uiso   1.00
H1762  H     0.86886   0.72190   0.84249   0.00000  Uiso   1.00
H1763  H     0.93517   0.68758   0.84262   0.00000  Uiso   1.00
H1764  H     0.94173   0.74309   0.81758   0.00000  Uiso   1.00
H1765  H     0.70379   0.75887   0.75387   0.00000  Uiso   1.00
H1766  H     0.93620   0.69237   0.78266   0.00000  Uiso   1.00
H1767  H     0.75710   0.95011   0.68701   0.00000  Uiso   1.00
H1768  H     0.79017   0.98681   0.62361   0.00000  Uiso   1.00
H1769  H     0.79232   0.92539   0.61938   0.00000  Uiso   1.00
H1770  H     0.83734   0.95629   0.63971   0.00000  Uiso   1.00
H1771  H     0.96259   0.90890   0.74999   0.00000  Uiso   1.00
H1772  H     0.96287   0.75887   0.74612   0.00000  Uiso   1.00
H1773  H     0.70408   0.90890   0.75001   0.00000  Uiso   1.00
H1774  H     0.96461   0.79129   0.88022   0.00000  Uiso   1.00
H1775  H     0.70204   0.79133   0.61977   0.00000  Uiso   1.00
H1776  H     0.70868   0.79290   0.85509   0.00000  Uiso   1.00
N1777  N     0.83333   0.95069   0.75000   0.00000  Uiso   1.00
N1778  N     0.83333   0.71598   0.75000   0.00000  Uiso   1.00
N1779  N     0.71855   0.84722   0.95251   0.00000  Uiso   1.00
N1780  N     0.94812   0.84713   0.54748   0.00000  Uiso   1.00
N1781  N     0.78490   0.71692   0.68788   0.00000  Uiso   1.00
N1782  N     0.87798   0.95015   0.81547   0.00000  Uiso   1.00
N1783  N     0.88177   0.71692   0.81212   0.00000  Uiso   1.00
N1784  N     0.78869   0.95016   0.68453   0.00000  Uiso   1.00
O1785  O     0.77321   0.87291   0.74999   0.00000  Uiso   1.00
O1786  O     0.93819   0.79051   0.89721   0.00000  Uiso   1.00
O1787  O     0.74709   0.85244   0.64555   0.00000  Uiso   1.00
O1788  O     0.72846   0.79054   0.60278   0.00000  Uiso   1.00
O1789  O     0.74666   0.86448   0.85254   0.00000  Uiso   1.00
O1790  O     0.73384   0.79101   0.87597   0.00000  Uiso   1.00
O1791  O     0.92002   0.86451   0.64744   0.00000  Uiso   1.00
O1792  O     0.93281   0.79100   0.62409   0.00000  Uiso   1.00
O1793  O     0.89345   0.79375   0.75000   0.00000  Uiso   1.00
O1794  O     0.89345   0.87291   0.75000   0.00000  Uiso   1.00
O1795  O     0.77321   0.79375   0.74999   0.00000  Uiso   1.00
O1796  O     0.83332   0.87293   0.68513   0.00000  Uiso   1.00
O1797  O     0.83334   0.79373   0.81487   0.00000  Uiso   1.00
O1798  O     0.83334   0.87293   0.81487   0.00000  Uiso   1.00
O1799  O     0.83332   0.79373   0.68513   0.00000  Uiso   1.00
O1800  O     0.91958   0.85243   0.85445   0.00000  Uiso   1.00
loop_
_geom_bond_atom_site_label_1
_geom_bond_atom_site_label_2
_geom_bond_distance
_geom_bond_site_symmetry_2
_ccdc_geom_bond_type
C1     C2      1.448   .     S
C1     O95     1.300   .     A
C1     O85     1.296   .     A
C2     C39     1.402   .     A
C2     C36     1.397   .     A
C3     N81     1.422   .     S
C3     N78     1.372   .     A
C3     C606    1.438   1_545 S
C4     N77     1.375   .     A
C4     N82     1.422   .     S
C4     C305    1.438   .     S
C5     N83     1.422   .     S
C5     N78     1.372   .     A
C5     C604    1.438   1_545 S
C6     N84     1.422   .     S
C6     N77     1.375   .     A
C6     C303    1.438   .     S
C7     O96     1.296   .     A
C7     O99     1.295   .     A
C7     C13     1.452   .     S
C8     O98     1.296   .     A
C8     O97     1.295   .     A
C8     C11     1.452   .     S
C9     C25     1.494   .     S
C9     C20     1.407   .     A
C9     C11     1.404   .     A
C10    C26     1.494   .     S
C10    C21     1.407   .     A
C10    C13     1.404   .     A
C11    C14     1.407   .     A
C12    O94     1.296   .     A
C12    C40     1.448   .     S
C12    O93     1.300   .     A
C13    C15     1.407   .     A
C14    C27     1.486   .     S
C14    C16     1.419   .     A
C15    C17     1.419   .     A
C15    C28     1.486   .     S
C16    C18     1.428   .     A
C16    C22     1.422   .     A
C17    C24     1.422   .     A
C17    C19     1.428   .     A
C18    C20     1.417   .     A
C18    C919    1.421   .     S
C19    C21     1.417   .     A
C19    C918    1.421   1_554 S
C20    C34     1.401   .     A
C21    C23     1.401   .     A
C22    N79     1.424   .     S
C22    C923    1.388   .     S
C23    H43     1.082   .     S
C23    C922    1.388   1_554 S
C24    N80     1.424   .     S
C24    C934    1.388   1_554 S
C25    O100    1.222   .     D
C25    O86     1.398   .     S
C26    O87     1.222   .     D
C26    O88     1.398   .     S
C27    O90     1.398   .     S
C27    O89     1.223   .     D
C28    O92     1.398   .     S
C28    O91     1.223   .     D
C29    H47     1.111   .     S
C29    H48     1.111   .     S
C29    N79     1.447   .     S
C29    H46     1.111   .     S
C30    H51     1.111   .     S
C30    H50     1.111   .     S
C30    H52     1.111   .     S
C30    N80     1.447   .     S
C31    H56     1.106   .     S
C31    N81     1.447   .     S
C31    H57     1.112   .     S
C31    H55     1.109   .     S
C32    H60     1.107   .     S
C32    N82     1.451   .     S
C32    H61     1.106   .     S
C32    H59     1.112   .     S
C33    H66     1.112   .     S
C33    N83     1.447   .     S
C33    H63     1.109   .     S
C33    H64     1.106   .     S
C34    H54     1.082   .     S
C34    C924    1.388   .     S
C35    H70     1.112   .     S
C35    N84     1.451   .     S
C35    H68     1.106   .     S
C35    H69     1.107   .     S
C36    H65     1.079   .     S
C36    C238    1.378   1_455 S
C37    C40     1.402   .     A
C37    H71     1.083   .     S
C37    C139    1.384   .     S
C38    H72     1.079   .     S
C38    C40     1.397   .     A
C38    C136    1.378   .     S
C39    H73     1.083   .     S
C39    C237    1.384   1_455 S
Cu41   Cu42    2.703   .     S
Cu41   N77     2.031   .     S
Cu41   O96     1.966   .     S
Cu41   O94     1.960   .     S
Cu41   O85     1.960   .     S
Cu41   O98     1.966   .     S
Cu42   O93     1.960   .     S
Cu42   O95     1.960   .     S
Cu42   O97     1.966   .     S
Cu42   N78     2.031   .     S
Cu42   O99     1.966   .     S
H44    O92     1.014   .     S
H45    N79     1.032   .     S
H49    N80     1.032   .     S
H53    N81     1.030   .     S
H58    N82     1.030   .     S
H62    N83     1.030   .     S
H67    N84     1.030   .     S
H74    O86     1.014   .     S
H75    O88     1.014   .     S
H76    O90     1.014   .     S
C101   C102    1.448   .     S
C101   O195    1.300   .     A
C101   O185    1.296   .     A
C102   C139    1.402   .     A
C102   C136    1.397   .     A
C103   N181    1.422   .     S
C103   N178    1.372   .     A
C103   C706    1.438   1_545 S
C104   N177    1.375   .     A
C104   N182    1.422   .     S
C104   C405    1.438   .     S
C105   N183    1.422   .     S
C105   N178    1.372   .     A
C105   C704    1.438   1_545 S
C106   N184    1.422   .     S
C106   N177    1.375   .     A
C106   C403    1.438   .     S
C107   O196    1.296   .     A
C107   O199    1.295   .     A
C107   C113    1.452   .     S
C108   O198    1.296   .     A
C108   O197    1.295   .     A
C108   C111    1.452   .     S
C109   C125    1.494   .     S
C109   C120    1.407   .     A
C109   C111    1.404   .     A
C110   C126    1.494   .     S
C110   C121    1.407   .     A
C110   C113    1.404   .     A
C111   C114    1.407   .     A
C112   O194    1.296   .     A
C112   C140    1.448   .     S
C112   O193    1.300   .     A
C113   C115    1.407   .     A
C114   C127    1.486   .     S
C114   C116    1.419   .     A
C115   C117    1.419   .     A
C115   C128    1.486   .     S
C116   C118    1.428   .     A
C116   C122    1.422   .     A
C117   C124    1.422   .     A
C117   C119    1.428   .     A
C118   C120    1.417   .     A
C118   C1019   1.421   .     S
C119   C121    1.417   .     A
C119   C1018   1.421   1_554 S
C120   C134    1.401   .     A
C121   C123    1.401   .     A
C122   N179    1.424   .     S
C122   C1023   1.388   .     S
C123   H143    1.082   .     S
C123   C1022   1.388   1_554 S
C124   N180    1.424   .     S
C124   C1034   1.388   1_554 S
C125   O200    1.222   .     D
C125   O186    1.398   .     S
C126   O187    1.222   .     D
C126   O188    1.398   .     S
C127   O190    1.398   .     S
C127   O189    1.223   .     D
C128   O192    1.398   .     S
C128   O191    1.223   .     D
C129   H147    1.111   .     S
C129   H148    1.111   .     S
C129   N179    1.447   .     S
C129   H146    1.111   .     S
C130   H151    1.111   .     S
C130   H150    1.111   .     S
C130   H152    1.111   .     S
C130   N180    1.447   .     S
C131   H156    1.106   .     S
C131   N181    1.447   .     S
C131   H157    1.112   .     S
C131   H155    1.109   .     S
C132   H160    1.107   .     S
C132   N182    1.451   .     S
C132   H161    1.106   .     S
C132   H159    1.112   .     S
C133   H166    1.112   .     S
C133   N183    1.447   .     S
C133   H163    1.109   .     S
C133   H164    1.106   .     S
C134   H154    1.082   .     S
C134   C1024   1.388   .     S
C135   H170    1.112   .     S
C135   N184    1.451   .     S
C135   H168    1.106   .     S
C135   H169    1.107   .     S
C136   H165    1.079   .     S
C137   C140    1.402   .     A
C137   H171    1.083   .     S
C137   C239    1.384   .     S
C138   H172    1.079   .     S
C138   C140    1.397   .     A
C138   C236    1.378   .     S
C139   H173    1.083   .     S
Cu141  Cu142   2.703   .     S
Cu141  N177    2.031   .     S
Cu141  O196    1.966   .     S
Cu141  O194    1.960   .     S
Cu141  O185    1.960   .     S
Cu141  O198    1.966   .     S
Cu142  O193    1.960   .     S
Cu142  O195    1.960   .     S
Cu142  O197    1.966   .     S
Cu142  N178    2.031   .     S
Cu142  O199    1.966   .     S
H144   O192    1.014   .     S
H145   N179    1.032   .     S
H149   N180    1.032   .     S
H153   N181    1.030   .     S
H158   N182    1.030   .     S
H162   N183    1.030   .     S
H167   N184    1.030   .     S
H174   O186    1.014   .     S
H175   O188    1.014   .     S
H176   O190    1.014   .     S
C201   C202    1.448   .     S
C201   O295    1.300   .     A
C201   O285    1.296   .     A
C202   C239    1.402   .     A
C202   C236    1.397   .     A
C203   N281    1.422   .     S
C203   N278    1.372   .     A
C203   C806    1.438   1_545 S
C204   N277    1.375   .     A
C204   N282    1.422   .     S
C204   C505    1.438   .     S
C205   N283    1.422   .     S
C205   N278    1.372   .     A
C205   C804    1.438   1_545 S
C206   N284    1.422   .     S
C206   N277    1.375   .     A
C206   C503    1.438   .     S
C207   O296    1.296   .     A
C207   O299    1.295   .     A
C207   C213    1.452   .     S
C208   O298    1.296   .     A
C208   O297    1.295   .     A
C208   C211    1.452   .     S
C209   C225    1.494   .     S
C209   C220    1.407   .     A
C209   C211    1.404   .     A
C210   C226    1.494   .     S
C210   C221    1.407   .     A
C210   C213    1.404   .     A
C211   C214    1.407   .     A
C212   O294    1.296   .     A
C212   C240    1.448   .     S
C212   O293    1.300   .     A
C213   C215    1.407   .     A
C214   C227    1.486   .     S
C214   C216    1.419   .     A
C215   C217    1.419   .     A
C215   C228    1.486   .     S
C216   C218    1.428   .     A
C216   C222    1.422   .     A
C217   C224    1.422   .     A
C217   C219    1.428   .     A
C218   C220    1.417   .     A
C218   C1119   1.421   .     S
C219   C221    1.417   .     A
C219   C1118   1.421   1_554 S
C220   C234    1.401   .     A
C221   C223    1.401   .     A
C222   N279    1.424   .     S
C222   C1123   1.388   .     S
C223   H243    1.082   .     S
C223   C1122   1.388   1_554 S
C224   N280    1.424   .     S
C224   C1134   1.388   1_554 S
C225   O300    1.222   .     D
C225   O286    1.398   .     S
C226   O287    1.222   .     D
C226   O288    1.398   .     S
C227   O290    1.398   .     S
C227   O289    1.223   .     D
C228   O292    1.398   .     S
C228   O291    1.223   .     D
C229   H247    1.111   .     S
C229   H248    1.111   .     S
C229   N279    1.447   .     S
C229   H246    1.111   .     S
C230   H251    1.111   .     S
C230   H250    1.111   .     S
C230   H252    1.111   .     S
C230   N280    1.447   .     S
C231   H256    1.106   .     S
C231   N281    1.447   .     S
C231   H257    1.112   .     S
C231   H255    1.109   .     S
C232   H260    1.107   .     S
C232   N282    1.451   .     S
C232   H261    1.106   .     S
C232   H259    1.112   .     S
C233   H266    1.112   .     S
C233   N283    1.447   .     S
C233   H263    1.109   .     S
C233   H264    1.106   .     S
C234   H254    1.082   .     S
C234   C1124   1.388   .     S
C235   H270    1.112   .     S
C235   N284    1.451   .     S
C235   H268    1.106   .     S
C235   H269    1.107   .     S
C236   H265    1.079   .     S
C237   C240    1.402   .     A
C237   H271    1.083   .     S
C237   C39     1.384   1_655 S
C238   H272    1.079   .     S
C238   C240    1.397   .     A
C238   C36     1.378   1_655 S
C239   H273    1.083   .     S
Cu241  Cu242   2.703   .     S
Cu241  N277    2.031   .     S
Cu241  O296    1.966   .     S
Cu241  O294    1.960   .     S
Cu241  O285    1.960   .     S
Cu241  O298    1.966   .     S
Cu242  O293    1.960   .     S
Cu242  O295    1.960   .     S
Cu242  O297    1.966   .     S
Cu242  N278    2.031   .     S
Cu242  O299    1.966   .     S
H244   O292    1.014   .     S
H245   N279    1.032   .     S
H249   N280    1.032   .     S
H253   N281    1.030   .     S
H258   N282    1.030   .     S
H262   N283    1.030   .     S
H267   N284    1.030   .     S
H274   O286    1.014   .     S
H275   O288    1.014   .     S
H276   O290    1.014   .     S
C301   C302    1.448   .     S
C301   O395    1.300   .     A
C301   O385    1.296   .     A
C302   C339    1.402   .     A
C302   C336    1.397   .     A
C303   N381    1.422   .     S
C303   N378    1.372   .     A
C304   N377    1.375   .     A
C304   N382    1.422   .     S
C304   C605    1.438   .     S
C305   N383    1.422   .     S
C305   N378    1.372   .     A
C306   N384    1.422   .     S
C306   N377    1.375   .     A
C306   C603    1.438   .     S
C307   O396    1.296   .     A
C307   O399    1.295   .     A
C307   C313    1.452   .     S
C308   O398    1.296   .     A
C308   O397    1.295   .     A
C308   C311    1.452   .     S
C309   C325    1.494   .     S
C309   C320    1.407   .     A
C309   C311    1.404   .     A
C310   C326    1.494   .     S
C310   C321    1.407   .     A
C310   C313    1.404   .     A
C311   C314    1.407   .     A
C312   O394    1.296   .     A
C312   C340    1.448   .     S
C312   O393    1.300   .     A
C313   C315    1.407   .     A
C314   C327    1.486   .     S
C314   C316    1.419   .     A
C315   C317    1.419   .     A
C315   C328    1.486   .     S
C316   C318    1.428   .     A
C316   C322    1.422   .     A
C317   C324    1.422   .     A
C317   C319    1.428   .     A
C318   C320    1.417   .     A
C318   C1219   1.421   .     S
C319   C321    1.417   .     A
C319   C1218   1.421   1_554 S
C320   C334    1.401   .     A
C321   C323    1.401   .     A
C322   N379    1.424   .     S
C322   C1223   1.388   .     S
C323   H343    1.082   .     S
C323   C1222   1.388   1_554 S
C324   N380    1.424   .     S
C324   C1234   1.388   1_554 S
C325   O400    1.222   .     D
C325   O386    1.398   .     S
C326   O387    1.222   .     D
C326   O388    1.398   .     S
C327   O390    1.398   .     S
C327   O389    1.223   .     D
C328   O392    1.398   .     S
C328   O391    1.223   .     D
C329   H347    1.111   .     S
C329   H348    1.111   .     S
C329   N379    1.447   .     S
C329   H346    1.111   .     S
C330   H351    1.111   .     S
C330   H350    1.111   .     S
C330   H352    1.111   .     S
C330   N380    1.447   .     S
C331   H356    1.106   .     S
C331   N381    1.447   .     S
C331   H357    1.112   .     S
C331   H355    1.109   .     S
C332   H360    1.107   .     S
C332   N382    1.451   .     S
C332   H361    1.106   .     S
C332   H359    1.112   .     S
C333   H366    1.112   .     S
C333   N383    1.447   .     S
C333   H363    1.109   .     S
C333   H364    1.106   .     S
C334   H354    1.082   .     S
C334   C1224   1.388   .     S
C335   H370    1.112   .     S
C335   N384    1.451   .     S
C335   H368    1.106   .     S
C335   H369    1.107   .     S
C336   H365    1.079   .     S
C336   C538    1.378   1_455 S
C337   C340    1.402   .     A
C337   H371    1.083   .     S
C337   C439    1.384   .     S
C338   H372    1.079   .     S
C338   C340    1.397   .     A
C338   C436    1.378   .     S
C339   H373    1.083   .     S
C339   C537    1.384   1_455 S
Cu341  Cu342   2.703   .     S
Cu341  N377    2.031   .     S
Cu341  O396    1.966   .     S
Cu341  O394    1.960   .     S
Cu341  O385    1.960   .     S
Cu341  O398    1.966   .     S
Cu342  O393    1.960   .     S
Cu342  O395    1.960   .     S
Cu342  O397    1.966   .     S
Cu342  N378    2.031   .     S
Cu342  O399    1.966   .     S
H344   O392    1.014   .     S
H345   N379    1.032   .     S
H349   N380    1.032   .     S
H353   N381    1.030   .     S
H358   N382    1.030   .     S
H362   N383    1.030   .     S
H367   N384    1.030   .     S
H374   O386    1.014   .     S
H375   O388    1.014   .     S
H376   O390    1.014   .     S
C401   C402    1.448   .     S
C401   O495    1.300   .     A
C401   O485    1.296   .     A
C402   C439    1.402   .     A
C402   C436    1.397   .     A
C403   N481    1.422   .     S
C403   N478    1.372   .     A
C404   N477    1.375   .     A
C404   N482    1.422   .     S
C404   C705    1.438   .     S
C405   N483    1.422   .     S
C405   N478    1.372   .     A
C406   N484    1.422   .     S
C406   N477    1.375   .     A
C406   C703    1.438   .     S
C407   O496    1.296   .     A
C407   O499    1.295   .     A
C407   C413    1.452   .     S
C408   O498    1.296   .     A
C408   O497    1.295   .     A
C408   C411    1.452   .     S
C409   C425    1.494   .     S
C409   C420    1.407   .     A
C409   C411    1.404   .     A
C410   C426    1.494   .     S
C410   C421    1.407   .     A
C410   C413    1.404   .     A
C411   C414    1.407   .     A
C412   O494    1.296   .     A
C412   C440    1.448   .     S
C412   O493    1.300   .     A
C413   C415    1.407   .     A
C414   C427    1.486   .     S
C414   C416    1.419   .     A
C415   C417    1.419   .     A
C415   C428    1.486   .     S
C416   C418    1.428   .     A
C416   C422    1.422   .     A
C417   C424    1.422   .     A
C417   C419    1.428   .     A
C418   C420    1.417   .     A
C418   C1319   1.421   .     S
C419   C421    1.417   .     A
C419   C1318   1.421   1_554 S
C420   C434    1.401   .     A
C421   C423    1.401   .     A
C422   N479    1.424   .     S
C422   C1323   1.388   .     S
C423   H443    1.082   .     S
C423   C1322   1.388   1_554 S
C424   N480    1.424   .     S
C424   C1334   1.388   1_554 S
C425   O500    1.222   .     D
C425   O486    1.398   .     S
C426   O487    1.222   .     D
C426   O488    1.398   .     S
C427   O490    1.398   .     S
C427   O489    1.223   .     D
C428   O492    1.398   .     S
C428   O491    1.223   .     D
C429   H447    1.111   .     S
C429   H448    1.111   .     S
C429   N479    1.447   .     S
C429   H446    1.111   .     S
C430   H451    1.111   .     S
C430   H450    1.111   .     S
C430   H452    1.111   .     S
C430   N480    1.447   .     S
C431   H456    1.106   .     S
C431   N481    1.447   .     S
C431   H457    1.112   .     S
C431   H455    1.109   .     S
C432   H460    1.107   .     S
C432   N482    1.451   .     S
C432   H461    1.106   .     S
C432   H459    1.112   .     S
C433   H466    1.112   .     S
C433   N483    1.447   .     S
C433   H463    1.109   .     S
C433   H464    1.106   .     S
C434   H454    1.082   .     S
C434   C1324   1.388   .     S
C435   H470    1.112   .     S
C435   N484    1.451   .     S
C435   H468    1.106   .     S
C435   H469    1.107   .     S
C436   H465    1.079   .     S
C437   C440    1.402   .     A
C437   H471    1.083   .     S
C437   C539    1.384   .     S
C438   H472    1.079   .     S
C438   C440    1.397   .     A
C438   C536    1.378   .     S
C439   H473    1.083   .     S
Cu441  Cu442   2.703   .     S
Cu441  N477    2.031   .     S
Cu441  O496    1.966   .     S
Cu441  O494    1.960   .     S
Cu441  O485    1.960   .     S
Cu441  O498    1.966   .     S
Cu442  O493    1.960   .     S
Cu442  O495    1.960   .     S
Cu442  O497    1.966   .     S
Cu442  N478    2.031   .     S
Cu442  O499    1.966   .     S
H444   O492    1.014   .     S
H445   N479    1.032   .     S
H449   N480    1.032   .     S
H453   N481    1.030   .     S
H458   N482    1.030   .     S
H462   N483    1.030   .     S
H467   N484    1.030   .     S
H474   O486    1.014   .     S
H475   O488    1.014   .     S
H476   O490    1.014   .     S
C501   C502    1.448   .     S
C501   O595    1.300   .     A
C501   O585    1.296   .     A
C502   C539    1.402   .     A
C502   C536    1.397   .     A
C503   N581    1.422   .     S
C503   N578    1.372   .     A
C504   N577    1.375   .     A
C504   N582    1.422   .     S
C504   C805    1.438   .     S
C505   N583    1.422   .     S
C505   N578    1.372   .     A
C506   N584    1.422   .     S
C506   N577    1.375   .     A
C506   C803    1.438   .     S
C507   O596    1.296   .     A
C507   O599    1.295   .     A
C507   C513    1.452   .     S
C508   O598    1.296   .     A
C508   O597    1.295   .     A
C508   C511    1.452   .     S
C509   C525    1.494   .     S
C509   C520    1.407   .     A
C509   C511    1.404   .     A
C510   C526    1.494   .     S
C510   C521    1.407   .     A
C510   C513    1.404   .     A
C511   C514    1.407   .     A
C512   O594    1.296   .     A
C512   C540    1.448   .     S
C512   O593    1.300   .     A
C513   C515    1.407   .     A
C514   C527    1.486   .     S
C514   C516    1.419   .     A
C515   C517    1.419   .     A
C515   C528    1.486   .     S
C516   C518    1.428   .     A
C516   C522    1.422   .     A
C517   C524    1.422   .     A
C517   C519    1.428   .     A
C518   C520    1.417   .     A
C518   C1419   1.421   .     S
C519   C521    1.417   .     A
C519   C1418   1.421   1_554 S
C520   C534    1.401   .     A
C521   C523    1.401   .     A
C522   N579    1.424   .     S
C522   C1423   1.388   .     S
C523   H543    1.082   .     S
C523   C1422   1.388   1_554 S
C524   N580    1.424   .     S
C524   C1434   1.388   1_554 S
C525   O600    1.222   .     D
C525   O586    1.398   .     S
C526   O587    1.222   .     D
C526   O588    1.398   .     S
C527   O590    1.398   .     S
C527   O589    1.223   .     D
C528   O592    1.398   .     S
C528   O591    1.223   .     D
C529   H547    1.111   .     S
C529   H548    1.111   .     S
C529   N579    1.447   .     S
C529   H546    1.111   .     S
C530   H551    1.111   .     S
C530   H550    1.111   .     S
C530   H552    1.111   .     S
C530   N580    1.447   .     S
C531   H556    1.106   .     S
C531   N581    1.447   .     S
C531   H557    1.112   .     S
C531   H555    1.109   .     S
C532   H560    1.107   .     S
C532   N582    1.451   .     S
C532   H561    1.106   .     S
C532   H559    1.112   .     S
C533   H566    1.112   .     S
C533   N583    1.447   .     S
C533   H563    1.109   .     S
C533   H564    1.106   .     S
C534   H554    1.082   .     S
C534   C1424   1.388   .     S
C535   H570    1.112   .     S
C535   N584    1.451   .     S
C535   H568    1.106   .     S
C535   H569    1.107   .     S
C536   H565    1.079   .     S
C537   C540    1.402   .     A
C537   H571    1.083   .     S
C537   C339    1.384   1_655 S
C538   H572    1.079   .     S
C538   C540    1.397   .     A
C538   C336    1.378   1_655 S
C539   H573    1.083   .     S
Cu541  Cu542   2.703   .     S
Cu541  N577    2.031   .     S
Cu541  O596    1.966   .     S
Cu541  O594    1.960   .     S
Cu541  O585    1.960   .     S
Cu541  O598    1.966   .     S
Cu542  O593    1.960   .     S
Cu542  O595    1.960   .     S
Cu542  O597    1.966   .     S
Cu542  N578    2.031   .     S
Cu542  O599    1.966   .     S
H544   O592    1.014   .     S
H545   N579    1.032   .     S
H549   N580    1.032   .     S
H553   N581    1.030   .     S
H558   N582    1.030   .     S
H562   N583    1.030   .     S
H567   N584    1.030   .     S
H574   O586    1.014   .     S
H575   O588    1.014   .     S
H576   O590    1.014   .     S
C601   C602    1.448   .     S
C601   O695    1.300   .     A
C601   O685    1.296   .     A
C602   C639    1.402   .     A
C602   C636    1.397   .     A
C603   N681    1.422   .     S
C603   N678    1.372   .     A
C604   N677    1.375   .     A
C604   N682    1.422   .     S
C604   C5      1.438   1_565 S
C605   N683    1.422   .     S
C605   N678    1.372   .     A
C606   N684    1.422   .     S
C606   N677    1.375   .     A
C606   C3      1.438   1_565 S
C607   O696    1.296   .     A
C607   O699    1.295   .     A
C607   C613    1.452   .     S
C608   O698    1.296   .     A
C608   O697    1.295   .     A
C608   C611    1.452   .     S
C609   C625    1.494   .     S
C609   C620    1.407   .     A
C609   C611    1.404   .     A
C610   C626    1.494   .     S
C610   C621    1.407   .     A
C610   C613    1.404   .     A
C611   C614    1.407   .     A
C612   O694    1.296   .     A
C612   C640    1.448   .     S
C612   O693    1.300   .     A
C613   C615    1.407   .     A
C614   C627    1.486   .     S
C614   C616    1.419   .     A
C615   C617    1.419   .     A
C615   C628    1.486   .     S
C616   C618    1.428   .     A
C616   C622    1.422   .     A
C617   C624    1.422   .     A
C617   C619    1.428   .     A
C618   C620    1.417   .     A
C618   C1519   1.421   .     S
C619   C621    1.417   .     A
C619   C1518   1.421   1_554 S
C620   C634    1.401   .     A
C621   C623    1.401   .     A
C622   N679    1.424   .     S
C622   C1523   1.388   .     S
C623   H643    1.082   .     S
C623   C1522   1.388   1_554 S
C624   N680    1.424   .     S
C624   C1534   1.388   1_554 S
C625   O700    1.222   .     D
C625   O686    1.398   .     S
C626   O687    1.222   .     D
C626   O688    1.398   .     S
C627   O690    1.398   .     S
C627   O689    1.223   .     D
C628   O692    1.398   .     S
C628   O691    1.223   .     D
C629   H647    1.111   .     S
C629   H648    1.111   .     S
C629   N679    1.447   .     S
C629   H646    1.111   .     S
C630   H651    1.111   .     S
C630   H650    1.111   .     S
C630   H652    1.111   .     S
C630   N680    1.447   .     S
C631   H656    1.106   .     S
C631   N681    1.447   .     S
C631   H657    1.112   .     S
C631   H655    1.109   .     S
C632   H660    1.107   .     S
C632   N682    1.451   .     S
C632   H661    1.106   .     S
C632   H659    1.112   .     S
C633   H666    1.112   .     S
C633   N683    1.447   .     S
C633   H663    1.109   .     S
C633   H664    1.106   .     S
C634   H654    1.082   .     S
C634   C1524   1.388   .     S
C635   H670    1.112   .     S
C635   N684    1.451   .     S
C635   H668    1.106   .     S
C635   H669    1.107   .     S
C636   H665    1.079   .     S
C636   C838    1.378   1_455 S
C637   C640    1.402   .     A
C637   H671    1.083   .     S
C637   C739    1.384   .     S
C638   H672    1.079   .     S
C638   C640    1.397   .     A
C638   C736    1.378   .     S
C639   H673    1.083   .     S
C639   C837    1.384   1_455 S
Cu641  Cu642   2.703   .     S
Cu641  N677    2.031   .     S
Cu641  O696    1.966   .     S
Cu641  O694    1.960   .     S
Cu641  O685    1.960   .     S
Cu641  O698    1.966   .     S
Cu642  O693    1.960   .     S
Cu642  O695    1.960   .     S
Cu642  O697    1.966   .     S
Cu642  N678    2.031   .     S
Cu642  O699    1.966   .     S
H644   O692    1.014   .     S
H645   N679    1.032   .     S
H649   N680    1.032   .     S
H653   N681    1.030   .     S
H658   N682    1.030   .     S
H662   N683    1.030   .     S
H667   N684    1.030   .     S
H674   O686    1.014   .     S
H675   O688    1.014   .     S
H676   O690    1.014   .     S
C701   C702    1.448   .     S
C701   O795    1.300   .     A
C701   O785    1.296   .     A
C702   C739    1.402   .     A
C702   C736    1.397   .     A
C703   N781    1.422   .     S
C703   N778    1.372   .     A
C704   N777    1.375   .     A
C704   N782    1.422   .     S
C704   C105    1.438   1_565 S
C705   N783    1.422   .     S
C705   N778    1.372   .     A
C706   N784    1.422   .     S
C706   N777    1.375   .     A
C706   C103    1.438   1_565 S
C707   O796    1.296   .     A
C707   O799    1.295   .     A
C707   C713    1.452   .     S
C708   O798    1.296   .     A
C708   O797    1.295   .     A
C708   C711    1.452   .     S
C709   C725    1.494   .     S
C709   C720    1.407   .     A
C709   C711    1.404   .     A
C710   C726    1.494   .     S
C710   C721    1.407   .     A
C710   C713    1.404   .     A
C711   C714    1.407   .     A
C712   O794    1.296   .     A
C712   C740    1.448   .     S
C712   O793    1.300   .     A
C713   C715    1.407   .     A
C714   C727    1.486   .     S
C714   C716    1.419   .     A
C715   C717    1.419   .     A
C715   C728    1.486   .     S
C716   C718    1.428   .     A
C716   C722    1.422   .     A
C717   C724    1.422   .     A
C717   C719    1.428   .     A
C718   C720    1.417   .     A
C718   C1619   1.421   .     S
C719   C721    1.417   .     A
C719   C1618   1.421   1_554 S
C720   C734    1.401   .     A
C721   C723    1.401   .     A
C722   N779    1.424   .     S
C722   C1623   1.388   .     S
C723   H743    1.082   .     S
C723   C1622   1.388   1_554 S
C724   N780    1.424   .     S
C724   C1634   1.388   1_554 S
C725   O800    1.222   .     D
C725   O786    1.398   .     S
C726   O787    1.222   .     D
C726   O788    1.398   .     S
C727   O790    1.398   .     S
C727   O789    1.223   .     D
C728   O792    1.398   .     S
C728   O791    1.223   .     D
C729   H747    1.111   .     S
C729   H748    1.111   .     S
C729   N779    1.447   .     S
C729   H746    1.111   .     S
C730   H751    1.111   .     S
C730   H750    1.111   .     S
C730   H752    1.111   .     S
C730   N780    1.447   .     S
C731   H756    1.106   .     S
C731   N781    1.447   .     S
C731   H757    1.112   .     S
C731   H755    1.109   .     S
C732   H760    1.107   .     S
C732   N782    1.451   .     S
C732   H761    1.106   .     S
C732   H759    1.112   .     S
C733   H766    1.112   .     S
C733   N783    1.447   .     S
C733   H763    1.109   .     S
C733   H764    1.106   .     S
C734   H754    1.082   .     S
C734   C1624   1.388   .     S
C735   H770    1.112   .     S
C735   N784    1.451   .     S
C735   H768    1.106   .     S
C735   H769    1.107   .     S
C736   H765    1.079   .     S
C737   C740    1.402   .     A
C737   H771    1.083   .     S
C737   C839    1.384   .     S
C738   H772    1.079   .     S
C738   C740    1.397   .     A
C738   C836    1.378   .     S
C739   H773    1.083   .     S
Cu741  Cu742   2.703   .     S
Cu741  N777    2.031   .     S
Cu741  O796    1.966   .     S
Cu741  O794    1.960   .     S
Cu741  O785    1.960   .     S
Cu741  O798    1.966   .     S
Cu742  O793    1.960   .     S
Cu742  O795    1.960   .     S
Cu742  O797    1.966   .     S
Cu742  N778    2.031   .     S
Cu742  O799    1.966   .     S
H744   O792    1.014   .     S
H745   N779    1.032   .     S
H749   N780    1.032   .     S
H753   N781    1.030   .     S
H758   N782    1.030   .     S
H762   N783    1.030   .     S
H767   N784    1.030   .     S
H774   O786    1.014   .     S
H775   O788    1.014   .     S
H776   O790    1.014   .     S
C801   C802    1.448   .     S
C801   O895    1.300   .     A
C801   O885    1.296   .     A
C802   C839    1.402   .     A
C802   C836    1.397   .     A
C803   N881    1.422   .     S
C803   N878    1.372   .     A
C804   N877    1.375   .     A
C804   N882    1.422   .     S
C804   C205    1.438   1_565 S
C805   N883    1.422   .     S
C805   N878    1.372   .     A
C806   N884    1.422   .     S
C806   N877    1.375   .     A
C806   C203    1.438   1_565 S
C807   O896    1.296   .     A
C807   O899    1.295   .     A
C807   C813    1.452   .     S
C808   O898    1.296   .     A
C808   O897    1.295   .     A
C808   C811    1.452   .     S
C809   C825    1.494   .     S
C809   C820    1.407   .     A
C809   C811    1.404   .     A
C810   C826    1.494   .     S
C810   C821    1.407   .     A
C810   C813    1.404   .     A
C811   C814    1.407   .     A
C812   O894    1.296   .     A
C812   C840    1.448   .     S
C812   O893    1.300   .     A
C813   C815    1.407   .     A
C814   C827    1.486   .     S
C814   C816    1.419   .     A
C815   C817    1.419   .     A
C815   C828    1.486   .     S
C816   C818    1.428   .     A
C816   C822    1.422   .     A
C817   C824    1.422   .     A
C817   C819    1.428   .     A
C818   C820    1.417   .     A
C818   C1719   1.421   .     S
C819   C821    1.417   .     A
C819   C1718   1.421   1_554 S
C820   C834    1.401   .     A
C821   C823    1.401   .     A
C822   N879    1.424   .     S
C822   C1723   1.388   .     S
C823   H843    1.082   .     S
C823   C1722   1.388   1_554 S
C824   N880    1.424   .     S
C824   C1734   1.388   1_554 S
C825   O900    1.222   .     D
C825   O886    1.398   .     S
C826   O887    1.222   .     D
C826   O888    1.398   .     S
C827   O890    1.398   .     S
C827   O889    1.223   .     D
C828   O892    1.398   .     S
C828   O891    1.223   .     D
C829   H847    1.111   .     S
C829   H848    1.111   .     S
C829   N879    1.447   .     S
C829   H846    1.111   .     S
C830   H851    1.111   .     S
C830   H850    1.111   .     S
C830   H852    1.111   .     S
C830   N880    1.447   .     S
C831   H856    1.106   .     S
C831   N881    1.447   .     S
C831   H857    1.112   .     S
C831   H855    1.109   .     S
C832   H860    1.107   .     S
C832   N882    1.451   .     S
C832   H861    1.106   .     S
C832   H859    1.112   .     S
C833   H866    1.112   .     S
C833   N883    1.447   .     S
C833   H863    1.109   .     S
C833   H864    1.106   .     S
C834   H854    1.082   .     S
C834   C1724   1.388   .     S
C835   H870    1.112   .     S
C835   N884    1.451   .     S
C835   H868    1.106   .     S
C835   H869    1.107   .     S
C836   H865    1.079   .     S
C837   C840    1.402   .     A
C837   H871    1.083   .     S
C837   C639    1.384   1_655 S
C838   H872    1.079   .     S
C838   C840    1.397   .     A
C838   C636    1.378   1_655 S
C839   H873    1.083   .     S
Cu841  Cu842   2.703   .     S
Cu841  N877    2.031   .     S
Cu841  O896    1.966   .     S
Cu841  O894    1.960   .     S
Cu841  O885    1.960   .     S
Cu841  O898    1.966   .     S
Cu842  O893    1.960   .     S
Cu842  O895    1.960   .     S
Cu842  O897    1.966   .     S
Cu842  N878    2.031   .     S
Cu842  O899    1.966   .     S
H844   O892    1.014   .     S
H845   N879    1.032   .     S
H849   N880    1.032   .     S
H853   N881    1.030   .     S
H858   N882    1.030   .     S
H862   N883    1.030   .     S
H867   N884    1.030   .     S
H874   O886    1.014   .     S
H875   O888    1.014   .     S
H876   O890    1.014   .     S
C901   C902    1.448   .     S
C901   O995    1.300   .     A
C901   O985    1.296   .     A
C902   C939    1.402   .     A
C902   C936    1.397   .     A
C903   N981    1.422   .     S
C903   N978    1.372   .     A
C903   C1506   1.438   1_545 S
C904   N977    1.375   .     A
C904   N982    1.422   .     S
C904   C1205   1.438   .     S
C905   N983    1.422   .     S
C905   N978    1.372   .     A
C905   C1504   1.438   1_545 S
C906   N984    1.422   .     S
C906   N977    1.375   .     A
C906   C1203   1.438   .     S
C907   O996    1.296   .     A
C907   O999    1.295   .     A
C907   C913    1.452   .     S
C908   O998    1.296   .     A
C908   O997    1.295   .     A
C908   C911    1.452   .     S
C909   C925    1.494   .     S
C909   C920    1.407   .     A
C909   C911    1.404   .     A
C910   C926    1.494   .     S
C910   C921    1.407   .     A
C910   C913    1.404   .     A
C911   C914    1.407   .     A
C912   O994    1.296   .     A
C912   C940    1.448   .     S
C912   O993    1.300   .     A
C913   C915    1.407   .     A
C914   C927    1.486   .     S
C914   C916    1.419   .     A
C915   C917    1.419   .     A
C915   C928    1.486   .     S
C916   C918    1.428   .     A
C916   C922    1.422   .     A
C917   C924    1.422   .     A
C917   C919    1.428   .     A
C918   C920    1.417   .     A
C918   C19     1.421   1_556 S
C919   C921    1.417   .     A
C920   C934    1.401   .     A
C921   C923    1.401   .     A
C922   N979    1.424   .     S
C922   C23     1.388   1_556 S
C923   H943    1.082   .     S
C924   N980    1.424   .     S
C925   O1000   1.222   .     D
C925   O986    1.398   .     S
C926   O987    1.222   .     D
C926   O988    1.398   .     S
C927   O990    1.398   .     S
C927   O989    1.223   .     D
C928   O992    1.398   .     S
C928   O991    1.223   .     D
C929   H947    1.111   .     S
C929   H948    1.111   .     S
C929   N979    1.447   .     S
C929   H946    1.111   .     S
C930   H951    1.111   .     S
C930   H950    1.111   .     S
C930   H952    1.111   .     S
C930   N980    1.447   .     S
C931   H956    1.106   .     S
C931   N981    1.447   .     S
C931   H957    1.112   .     S
C931   H955    1.109   .     S
C932   H960    1.107   .     S
C932   N982    1.451   .     S
C932   H961    1.106   .     S
C932   H959    1.112   .     S
C933   H966    1.112   .     S
C933   N983    1.447   .     S
C933   H963    1.109   .     S
C933   H964    1.106   .     S
C934   H954    1.082   .     S
C934   C24     1.388   1_556 S
C935   H970    1.112   .     S
C935   N984    1.451   .     S
C935   H968    1.106   .     S
C935   H969    1.107   .     S
C936   H965    1.079   .     S
C936   C1138   1.378   1_455 S
C937   C940    1.402   .     A
C937   H971    1.083   .     S
C937   C1039   1.384   .     S
C938   H972    1.079   .     S
C938   C940    1.397   .     A
C938   C1036   1.378   .     S
C939   H973    1.083   .     S
C939   C1137   1.384   1_455 S
Cu941  Cu942   2.703   .     S
Cu941  N977    2.031   .     S
Cu941  O996    1.966   .     S
Cu941  O994    1.960   .     S
Cu941  O985    1.960   .     S
Cu941  O998    1.966   .     S
Cu942  O993    1.960   .     S
Cu942  O995    1.960   .     S
Cu942  O997    1.966   .     S
Cu942  N978    2.031   .     S
Cu942  O999    1.966   .     S
H944   O992    1.014   .     S
H945   N979    1.032   .     S
H949   N980    1.032   .     S
H953   N981    1.030   .     S
H958   N982    1.030   .     S
H962   N983    1.030   .     S
H967   N984    1.030   .     S
H974   O986    1.014   .     S
H975   O988    1.014   .     S
H976   O990    1.014   .     S
C1001  C1002   1.448   .     S
C1001  O1095   1.300   .     A
C1001  O1085   1.296   .     A
C1002  C1039   1.402   .     A
C1002  C1036   1.397   .     A
C1003  N1081   1.422   .     S
C1003  N1078   1.372   .     A
C1003  C1606   1.438   1_545 S
C1004  N1077   1.375   .     A
C1004  N1082   1.422   .     S
C1004  C1305   1.438   .     S
C1005  N1083   1.422   .     S
C1005  N1078   1.372   .     A
C1005  C1604   1.438   1_545 S
C1006  N1084   1.422   .     S
C1006  N1077   1.375   .     A
C1006  C1303   1.438   .     S
C1007  O1096   1.296   .     A
C1007  O1099   1.295   .     A
C1007  C1013   1.452   .     S
C1008  O1098   1.296   .     A
C1008  O1097   1.295   .     A
C1008  C1011   1.452   .     S
C1009  C1025   1.494   .     S
C1009  C1020   1.407   .     A
C1009  C1011   1.404   .     A
C1010  C1026   1.494   .     S
C1010  C1021   1.407   .     A
C1010  C1013   1.404   .     A
C1011  C1014   1.407   .     A
C1012  O1094   1.296   .     A
C1012  C1040   1.448   .     S
C1012  O1093   1.300   .     A
C1013  C1015   1.407   .     A
C1014  C1027   1.486   .     S
C1014  C1016   1.419   .     A
C1015  C1017   1.419   .     A
C1015  C1028   1.486   .     S
C1016  C1018   1.428   .     A
C1016  C1022   1.422   .     A
C1017  C1024   1.422   .     A
C1017  C1019   1.428   .     A
C1018  C1020   1.417   .     A
C1018  C119    1.421   1_556 S
C1019  C1021   1.417   .     A
C1020  C1034   1.401   .     A
C1021  C1023   1.401   .     A
C1022  N1079   1.424   .     S
C1022  C123    1.388   1_556 S
C1023  H1043   1.082   .     S
C1024  N1080   1.424   .     S
C1025  O1100   1.222   .     D
C1025  O1086   1.398   .     S
C1026  O1087   1.222   .     D
C1026  O1088   1.398   .     S
C1027  O1090   1.398   .     S
C1027  O1089   1.223   .     D
C1028  O1092   1.398   .     S
C1028  O1091   1.223   .     D
C1029  H1047   1.111   .     S
C1029  H1048   1.111   .     S
C1029  N1079   1.447   .     S
C1029  H1046   1.111   .     S
C1030  H1051   1.111   .     S
C1030  H1050   1.111   .     S
C1030  H1052   1.111   .     S
C1030  N1080   1.447   .     S
C1031  H1056   1.106   .     S
C1031  N1081   1.447   .     S
C1031  H1057   1.112   .     S
C1031  H1055   1.109   .     S
C1032  H1060   1.107   .     S
C1032  N1082   1.451   .     S
C1032  H1061   1.106   .     S
C1032  H1059   1.112   .     S
C1033  H1066   1.112   .     S
C1033  N1083   1.447   .     S
C1033  H1063   1.109   .     S
C1033  H1064   1.106   .     S
C1034  H1054   1.082   .     S
C1034  C124    1.388   1_556 S
C1035  H1070   1.112   .     S
C1035  N1084   1.451   .     S
C1035  H1068   1.106   .     S
C1035  H1069   1.107   .     S
C1036  H1065   1.079   .     S
C1037  C1040   1.402   .     A
C1037  H1071   1.083   .     S
C1037  C1139   1.384   .     S
C1038  H1072   1.079   .     S
C1038  C1040   1.397   .     A
C1038  C1136   1.378   .     S
C1039  H1073   1.083   .     S
Cu1041 Cu1042  2.703   .     S
Cu1041 N1077   2.031   .     S
Cu1041 O1096   1.966   .     S
Cu1041 O1094   1.960   .     S
Cu1041 O1085   1.960   .     S
Cu1041 O1098   1.966   .     S
Cu1042 O1093   1.960   .     S
Cu1042 O1095   1.960   .     S
Cu1042 O1097   1.966   .     S
Cu1042 N1078   2.031   .     S
Cu1042 O1099   1.966   .     S
H1044  O1092   1.014   .     S
H1045  N1079   1.032   .     S
H1049  N1080   1.032   .     S
H1053  N1081   1.030   .     S
H1058  N1082   1.030   .     S
H1062  N1083   1.030   .     S
H1067  N1084   1.030   .     S
H1074  O1086   1.014   .     S
H1075  O1088   1.014   .     S
H1076  O1090   1.014   .     S
C1101  C1102   1.448   .     S
C1101  O1195   1.300   .     A
C1101  O1185   1.296   .     A
C1102  C1139   1.402   .     A
C1102  C1136   1.397   .     A
C1103  N1181   1.422   .     S
C1103  N1178   1.372   .     A
C1103  C1706   1.438   1_545 S
C1104  N1177   1.375   .     A
C1104  N1182   1.422   .     S
C1104  C1405   1.438   .     S
C1105  N1183   1.422   .     S
C1105  N1178   1.372   .     A
C1105  C1704   1.438   1_545 S
C1106  N1184   1.422   .     S
C1106  N1177   1.375   .     A
C1106  C1403   1.438   .     S
C1107  O1196   1.296   .     A
C1107  O1199   1.295   .     A
C1107  C1113   1.452   .     S
C1108  O1198   1.296   .     A
C1108  O1197   1.295   .     A
C1108  C1111   1.452   .     S
C1109  C1125   1.494   .     S
C1109  C1120   1.407   .     A
C1109  C1111   1.404   .     A
C1110  C1126   1.494   .     S
C1110  C1121   1.407   .     A
C1110  C1113   1.404   .     A
C1111  C1114   1.407   .     A
C1112  O1194   1.296   .     A
C1112  C1140   1.448   .     S
C1112  O1193   1.300   .     A
C1113  C1115   1.407   .     A
C1114  C1127   1.486   .     S
C1114  C1116   1.419   .     A
C1115  C1117   1.419   .     A
C1115  C1128   1.486   .     S
C1116  C1118   1.428   .     A
C1116  C1122   1.422   .     A
C1117  C1124   1.422   .     A
C1117  C1119   1.428   .     A
C1118  C1120   1.417   .     A
C1118  C219    1.421   1_556 S
C1119  C1121   1.417   .     A
C1120  C1134   1.401   .     A
C1121  C1123   1.401   .     A
C1122  N1179   1.424   .     S
C1122  C223    1.388   1_556 S
C1123  H1143   1.082   .     S
C1124  N1180   1.424   .     S
C1125  O1200   1.222   .     D
C1125  O1186   1.398   .     S
C1126  O1187   1.222   .     D
C1126  O1188   1.398   .     S
C1127  O1190   1.398   .     S
C1127  O1189   1.223   .     D
C1128  O1192   1.398   .     S
C1128  O1191   1.223   .     D
C1129  H1147   1.111   .     S
C1129  H1148   1.111   .     S
C1129  N1179   1.447   .     S
C1129  H1146   1.111   .     S
C1130  H1151   1.111   .     S
C1130  H1150   1.111   .     S
C1130  H1152   1.111   .     S
C1130  N1180   1.447   .     S
C1131  H1156   1.106   .     S
C1131  N1181   1.447   .     S
C1131  H1157   1.112   .     S
C1131  H1155   1.109   .     S
C1132  H1160   1.107   .     S
C1132  N1182   1.451   .     S
C1132  H1161   1.106   .     S
C1132  H1159   1.112   .     S
C1133  H1166   1.112   .     S
C1133  N1183   1.447   .     S
C1133  H1163   1.109   .     S
C1133  H1164   1.106   .     S
C1134  H1154   1.082   .     S
C1134  C224    1.388   1_556 S
C1135  H1170   1.112   .     S
C1135  N1184   1.451   .     S
C1135  H1168   1.106   .     S
C1135  H1169   1.107   .     S
C1136  H1165   1.079   .     S
C1137  C1140   1.402   .     A
C1137  H1171   1.083   .     S
C1137  C939    1.384   1_655 S
C1138  H1172   1.079   .     S
C1138  C1140   1.397   .     A
C1138  C936    1.378   1_655 S
C1139  H1173   1.083   .     S
Cu1141 Cu1142  2.703   .     S
Cu1141 N1177   2.031   .     S
Cu1141 O1196   1.966   .     S
Cu1141 O1194   1.960   .     S
Cu1141 O1185   1.960   .     S
Cu1141 O1198   1.966   .     S
Cu1142 O1193   1.960   .     S
Cu1142 O1195   1.960   .     S
Cu1142 O1197   1.966   .     S
Cu1142 N1178   2.031   .     S
Cu1142 O1199   1.966   .     S
H1144  O1192   1.014   .     S
H1145  N1179   1.032   .     S
H1149  N1180   1.032   .     S
H1153  N1181   1.030   .     S
H1158  N1182   1.030   .     S
H1162  N1183   1.030   .     S
H1167  N1184   1.030   .     S
H1174  O1186   1.014   .     S
H1175  O1188   1.014   .     S
H1176  O1190   1.014   .     S
C1201  C1202   1.448   .     S
C1201  O1295   1.300   .     A
C1201  O1285   1.296   .     A
C1202  C1239   1.402   .     A
C1202  C1236   1.397   .     A
C1203  N1281   1.422   .     S
C1203  N1278   1.372   .     A
C1204  N1277   1.375   .     A
C1204  N1282   1.422   .     S
C1204  C1505   1.438   .     S
C1205  N1283   1.422   .     S
C1205  N1278   1.372   .     A
C1206  N1284   1.422   .     S
C1206  N1277   1.375   .     A
C1206  C1503   1.438   .     S
C1207  O1296   1.296   .     A
C1207  O1299   1.295   .     A
C1207  C1213   1.452   .     S
C1208  O1298   1.296   .     A
C1208  O1297   1.295   .     A
C1208  C1211   1.452   .     S
C1209  C1225   1.494   .     S
C1209  C1220   1.407   .     A
C1209  C1211   1.404   .     A
C1210  C1226   1.494   .     S
C1210  C1221   1.407   .     A
C1210  C1213   1.404   .     A
C1211  C1214   1.407   .     A
C1212  O1294   1.296   .     A
C1212  C1240   1.448   .     S
C1212  O1293   1.300   .     A
C1213  C1215   1.407   .     A
C1214  C1227   1.486   .     S
C1214  C1216   1.419   .     A
C1215  C1217   1.419   .     A
C1215  C1228   1.486   .     S
C1216  C1218   1.428   .     A
C1216  C1222   1.422   .     A
C1217  C1224   1.422   .     A
C1217  C1219   1.428   .     A
C1218  C1220   1.417   .     A
C1218  C319    1.421   1_556 S
C1219  C1221   1.417   .     A
C1220  C1234   1.401   .     A
C1221  C1223   1.401   .     A
C1222  N1279   1.424   .     S
C1222  C323    1.388   1_556 S
C1223  H1243   1.082   .     S
C1224  N1280   1.424   .     S
C1225  O1300   1.222   .     D
C1225  O1286   1.398   .     S
C1226  O1287   1.222   .     D
C1226  O1288   1.398   .     S
C1227  O1290   1.398   .     S
C1227  O1289   1.223   .     D
C1228  O1292   1.398   .     S
C1228  O1291   1.223   .     D
C1229  H1247   1.111   .     S
C1229  H1248   1.111   .     S
C1229  N1279   1.447   .     S
C1229  H1246   1.111   .     S
C1230  H1251   1.111   .     S
C1230  H1250   1.111   .     S
C1230  H1252   1.111   .     S
C1230  N1280   1.447   .     S
C1231  H1256   1.106   .     S
C1231  N1281   1.447   .     S
C1231  H1257   1.112   .     S
C1231  H1255   1.109   .     S
C1232  H1260   1.107   .     S
C1232  N1282   1.451   .     S
C1232  H1261   1.106   .     S
C1232  H1259   1.112   .     S
C1233  H1266   1.112   .     S
C1233  N1283   1.447   .     S
C1233  H1263   1.109   .     S
C1233  H1264   1.106   .     S
C1234  H1254   1.082   .     S
C1234  C324    1.388   1_556 S
C1235  H1270   1.112   .     S
C1235  N1284   1.451   .     S
C1235  H1268   1.106   .     S
C1235  H1269   1.107   .     S
C1236  H1265   1.079   .     S
C1236  C1438   1.378   1_455 S
C1237  C1240   1.402   .     A
C1237  H1271   1.083   .     S
C1237  C1339   1.384   .     S
C1238  H1272   1.079   .     S
C1238  C1240   1.397   .     A
C1238  C1336   1.378   .     S
C1239  H1273   1.083   .     S
C1239  C1437   1.384   1_455 S
Cu1241 Cu1242  2.703   .     S
Cu1241 N1277   2.031   .     S
Cu1241 O1296   1.966   .     S
Cu1241 O1294   1.960   .     S
Cu1241 O1285   1.960   .     S
Cu1241 O1298   1.966   .     S
Cu1242 O1293   1.960   .     S
Cu1242 O1295   1.960   .     S
Cu1242 O1297   1.966   .     S
Cu1242 N1278   2.031   .     S
Cu1242 O1299   1.966   .     S
H1244  O1292   1.014   .     S
H1245  N1279   1.032   .     S
H1249  N1280   1.032   .     S
H1253  N1281   1.030   .     S
H1258  N1282   1.030   .     S
H1262  N1283   1.030   .     S
H1267  N1284   1.030   .     S
H1274  O1286   1.014   .     S
H1275  O1288   1.014   .     S
H1276  O1290   1.014   .     S
C1301  C1302   1.448   .     S
C1301  O1395   1.300   .     A
C1301  O1385   1.296   .     A
C1302  C1339   1.402   .     A
C1302  C1336   1.397   .     A
C1303  N1381   1.422   .     S
C1303  N1378   1.372   .     A
C1304  N1377   1.375   .     A
C1304  N1382   1.422   .     S
C1304  C1605   1.438   .     S
C1305  N1383   1.422   .     S
C1305  N1378   1.372   .     A
C1306  N1384   1.422   .     S
C1306  N1377   1.375   .     A
C1306  C1603   1.438   .     S
C1307  O1396   1.296   .     A
C1307  O1399   1.295   .     A
C1307  C1313   1.452   .     S
C1308  O1398   1.296   .     A
C1308  O1397   1.295   .     A
C1308  C1311   1.452   .     S
C1309  C1325   1.494   .     S
C1309  C1320   1.407   .     A
C1309  C1311   1.404   .     A
C1310  C1326   1.494   .     S
C1310  C1321   1.407   .     A
C1310  C1313   1.404   .     A
C1311  C1314   1.407   .     A
C1312  O1394   1.296   .     A
C1312  C1340   1.448   .     S
C1312  O1393   1.300   .     A
C1313  C1315   1.407   .     A
C1314  C1327   1.486   .     S
C1314  C1316   1.419   .     A
C1315  C1317   1.419   .     A
C1315  C1328   1.486   .     S
C1316  C1318   1.428   .     A
C1316  C1322   1.422   .     A
C1317  C1324   1.422   .     A
C1317  C1319   1.428   .     A
C1318  C1320   1.417   .     A
C1318  C419    1.421   1_556 S
C1319  C1321   1.417   .     A
C1320  C1334   1.401   .     A
C1321  C1323   1.401   .     A
C1322  N1379   1.424   .     S
C1322  C423    1.388   1_556 S
C1323  H1343   1.082   .     S
C1324  N1380   1.424   .     S
C1325  O1400   1.222   .     D
C1325  O1386   1.398   .     S
C1326  O1387   1.222   .     D
C1326  O1388   1.398   .     S
C1327  O1390   1.398   .     S
C1327  O1389   1.223   .     D
C1328  O1392   1.398   .     S
C1328  O1391   1.223   .     D
C1329  H1347   1.111   .     S
C1329  H1348   1.111   .     S
C1329  N1379   1.447   .     S
C1329  H1346   1.111   .     S
C1330  H1351   1.111   .     S
C1330  H1350   1.111   .     S
C1330  H1352   1.111   .     S
C1330  N1380   1.447   .     S
C1331  H1356   1.106   .     S
C1331  N1381   1.447   .     S
C1331  H1357   1.112   .     S
C1331  H1355   1.109   .     S
C1332  H1360   1.107   .     S
C1332  N1382   1.451   .     S
C1332  H1361   1.106   .     S
C1332  H1359   1.112   .     S
C1333  H1366   1.112   .     S
C1333  N1383   1.447   .     S
C1333  H1363   1.109   .     S
C1333  H1364   1.106   .     S
C1334  H1354   1.082   .     S
C1334  C424    1.388   1_556 S
C1335  H1370   1.112   .     S
C1335  N1384   1.451   .     S
C1335  H1368   1.106   .     S
C1335  H1369   1.107   .     S
C1336  H1365   1.079   .     S
C1337  C1340   1.402   .     A
C1337  H1371   1.083   .     S
C1337  C1439   1.384   .     S
C1338  H1372   1.079   .     S
C1338  C1340   1.397   .     A
C1338  C1436   1.378   .     S
C1339  H1373   1.083   .     S
Cu1341 Cu1342  2.703   .     S
Cu1341 N1377   2.031   .     S
Cu1341 O1396   1.966   .     S
Cu1341 O1394   1.960   .     S
Cu1341 O1385   1.960   .     S
Cu1341 O1398   1.966   .     S
Cu1342 O1393   1.960   .     S
Cu1342 O1395   1.960   .     S
Cu1342 O1397   1.966   .     S
Cu1342 N1378   2.031   .     S
Cu1342 O1399   1.966   .     S
H1344  O1392   1.014   .     S
H1345  N1379   1.032   .     S
H1349  N1380   1.032   .     S
H1353  N1381   1.030   .     S
H1358  N1382   1.030   .     S
H1362  N1383   1.030   .     S
H1367  N1384   1.030   .     S
H1374  O1386   1.014   .     S
H1375  O1388   1.014   .     S
H1376  O1390   1.014   .     S
C1401  C1402   1.448   .     S
C1401  O1495   1.300   .     A
C1401  O1485   1.296   .     A
C1402  C1439   1.402   .     A
C1402  C1436   1.397   .     A
C1403  N1481   1.422   .     S
C1403  N1478   1.372   .     A
C1404  N1477   1.375   .     A
C1404  N1482   1.422   .     S
C1404  C1705   1.438   .     S
C1405  N1483   1.422   .     S
C1405  N1478   1.372   .     A
C1406  N1484   1.422   .     S
C1406  N1477   1.375   .     A
C1406  C1703   1.438   .     S
C1407  O1496   1.296   .     A
C1407  O1499   1.295   .     A
C1407  C1413   1.452   .     S
C1408  O1498   1.296   .     A
C1408  O1497   1.295   .     A
C1408  C1411   1.452   .     S
C1409  C1425   1.494   .     S
C1409  C1420   1.407   .     A
C1409  C1411   1.404   .     A
C1410  C1426   1.494   .     S
C1410  C1421   1.407   .     A
C1410  C1413   1.404   .     A
C1411  C1414   1.407   .     A
C1412  O1494   1.296   .     A
C1412  C1440   1.448   .     S
C1412  O1493   1.300   .     A
C1413  C1415   1.407   .     A
C1414  C1427   1.486   .     S
C1414  C1416   1.419   .     A
C1415  C1417   1.419   .     A
C1415  C1428   1.486   .     S
C1416  C1418   1.428   .     A
C1416  C1422   1.422   .     A
C1417  C1424   1.422   .     A
C1417  C1419   1.428   .     A
C1418  C1420   1.417   .     A
C1418  C519    1.421   1_556 S
C1419  C1421   1.417   .     A
C1420  C1434   1.401   .     A
C1421  C1423   1.401   .     A
C1422  N1479   1.424   .     S
C1422  C523    1.388   1_556 S
C1423  H1443   1.082   .     S
C1424  N1480   1.424   .     S
C1425  O1500   1.222   .     D
C1425  O1486   1.398   .     S
C1426  O1487   1.222   .     D
C1426  O1488   1.398   .     S
C1427  O1490   1.398   .     S
C1427  O1489   1.223   .     D
C1428  O1492   1.398   .     S
C1428  O1491   1.223   .     D
C1429  H1447   1.111   .     S
C1429  H1448   1.111   .     S
C1429  N1479   1.447   .     S
C1429  H1446   1.111   .     S
C1430  H1451   1.111   .     S
C1430  H1450   1.111   .     S
C1430  H1452   1.111   .     S
C1430  N1480   1.447   .     S
C1431  H1456   1.106   .     S
C1431  N1481   1.447   .     S
C1431  H1457   1.112   .     S
C1431  H1455   1.109   .     S
C1432  H1460   1.107   .     S
C1432  N1482   1.451   .     S
C1432  H1461   1.106   .     S
C1432  H1459   1.112   .     S
C1433  H1466   1.112   .     S
C1433  N1483   1.447   .     S
C1433  H1463   1.109   .     S
C1433  H1464   1.106   .     S
C1434  H1454   1.082   .     S
C1434  C524    1.388   1_556 S
C1435  H1470   1.112   .     S
C1435  N1484   1.451   .     S
C1435  H1468   1.106   .     S
C1435  H1469   1.107   .     S
C1436  H1465   1.079   .     S
C1437  C1440   1.402   .     A
C1437  H1471   1.083   .     S
C1437  C1239   1.384   1_655 S
C1438  H1472   1.079   .     S
C1438  C1440   1.397   .     A
C1438  C1236   1.378   1_655 S
C1439  H1473   1.083   .     S
Cu1441 Cu1442  2.703   .     S
Cu1441 N1477   2.031   .     S
Cu1441 O1496   1.966   .     S
Cu1441 O1494   1.960   .     S
Cu1441 O1485   1.960   .     S
Cu1441 O1498   1.966   .     S
Cu1442 O1493   1.960   .     S
Cu1442 O1495   1.960   .     S
Cu1442 O1497   1.966   .     S
Cu1442 N1478   2.031   .     S
Cu1442 O1499   1.966   .     S
H1444  O1492   1.014   .     S
H1445  N1479   1.032   .     S
H1449  N1480   1.032   .     S
H1453  N1481   1.030   .     S
H1458  N1482   1.030   .     S
H1462  N1483   1.030   .     S
H1467  N1484   1.030   .     S
H1474  O1486   1.014   .     S
H1475  O1488   1.014   .     S
H1476  O1490   1.014   .     S
C1501  C1502   1.448   .     S
C1501  O1595   1.300   .     A
C1501  O1585   1.296   .     A
C1502  C1539   1.402   .     A
C1502  C1536   1.397   .     A
C1503  N1581   1.422   .     S
C1503  N1578   1.372   .     A
C1504  N1577   1.375   .     A
C1504  N1582   1.422   .     S
C1504  C905    1.438   1_565 S
C1505  N1583   1.422   .     S
C1505  N1578   1.372   .     A
C1506  N1584   1.422   .     S
C1506  N1577   1.375   .     A
C1506  C903    1.438   1_565 S
C1507  O1596   1.296   .     A
C1507  O1599   1.295   .     A
C1507  C1513   1.452   .     S
C1508  O1598   1.296   .     A
C1508  O1597   1.295   .     A
C1508  C1511   1.452   .     S
C1509  C1525   1.494   .     S
C1509  C1520   1.407   .     A
C1509  C1511   1.404   .     A
C1510  C1526   1.494   .     S
C1510  C1521   1.407   .     A
C1510  C1513   1.404   .     A
C1511  C1514   1.407   .     A
C1512  O1594   1.296   .     A
C1512  C1540   1.448   .     S
C1512  O1593   1.300   .     A
C1513  C1515   1.407   .     A
C1514  C1527   1.486   .     S
C1514  C1516   1.419   .     A
C1515  C1517   1.419   .     A
C1515  C1528   1.486   .     S
C1516  C1518   1.428   .     A
C1516  C1522   1.422   .     A
C1517  C1524   1.422   .     A
C1517  C1519   1.428   .     A
C1518  C1520   1.417   .     A
C1518  C619    1.421   1_556 S
C1519  C1521   1.417   .     A
C1520  C1534   1.401   .     A
C1521  C1523   1.401   .     A
C1522  N1579   1.424   .     S
C1522  C623    1.388   1_556 S
C1523  H1543   1.082   .     S
C1524  N1580   1.424   .     S
C1525  O1600   1.222   .     D
C1525  O1586   1.398   .     S
C1526  O1587   1.222   .     D
C1526  O1588   1.398   .     S
C1527  O1590   1.398   .     S
C1527  O1589   1.223   .     D
C1528  O1592   1.398   .     S
C1528  O1591   1.223   .     D
C1529  H1547   1.111   .     S
C1529  H1548   1.111   .     S
C1529  N1579   1.447   .     S
C1529  H1546   1.111   .     S
C1530  H1551   1.111   .     S
C1530  H1550   1.111   .     S
C1530  H1552   1.111   .     S
C1530  N1580   1.447   .     S
C1531  H1556   1.106   .     S
C1531  N1581   1.447   .     S
C1531  H1557   1.112   .     S
C1531  H1555   1.109   .     S
C1532  H1560   1.107   .     S
C1532  N1582   1.451   .     S
C1532  H1561   1.106   .     S
C1532  H1559   1.112   .     S
C1533  H1566   1.112   .     S
C1533  N1583   1.447   .     S
C1533  H1563   1.109   .     S
C1533  H1564   1.106   .     S
C1534  H1554   1.082   .     S
C1534  C624    1.388   1_556 S
C1535  H1570   1.112   .     S
C1535  N1584   1.451   .     S
C1535  H1568   1.106   .     S
C1535  H1569   1.107   .     S
C1536  H1565   1.079   .     S
C1536  C1738   1.378   1_455 S
C1537  C1540   1.402   .     A
C1537  H1571   1.083   .     S
C1537  C1639   1.384   .     S
C1538  H1572   1.079   .     S
C1538  C1540   1.397   .     A
C1538  C1636   1.378   .     S
C1539  H1573   1.083   .     S
C1539  C1737   1.384   1_455 S
Cu1541 Cu1542  2.703   .     S
Cu1541 N1577   2.031   .     S
Cu1541 O1596   1.966   .     S
Cu1541 O1594   1.960   .     S
Cu1541 O1585   1.960   .     S
Cu1541 O1598   1.966   .     S
Cu1542 O1593   1.960   .     S
Cu1542 O1595   1.960   .     S
Cu1542 O1597   1.966   .     S
Cu1542 N1578   2.031   .     S
Cu1542 O1599   1.966   .     S
H1544  O1592   1.014   .     S
H1545  N1579   1.032   .     S
H1549  N1580   1.032   .     S
H1553  N1581   1.030   .     S
H1558  N1582   1.030   .     S
H1562  N1583   1.030   .     S
H1567  N1584   1.030   .     S
H1574  O1586   1.014   .     S
H1575  O1588   1.014   .     S
H1576  O1590   1.014   .     S
C1601  C1602   1.448   .     S
C1601  O1695   1.300   .     A
C1601  O1685   1.296   .     A
C1602  C1639   1.402   .     A
C1602  C1636   1.397   .     A
C1603  N1681   1.422   .     S
C1603  N1678   1.372   .     A
C1604  N1677   1.375   .     A
C1604  N1682   1.422   .     S
C1604  C1005   1.438   1_565 S
C1605  N1683   1.422   .     S
C1605  N1678   1.372   .     A
C1606  N1684   1.422   .     S
C1606  N1677   1.375   .     A
C1606  C1003   1.438   1_565 S
C1607  O1696   1.296   .     A
C1607  O1699   1.295   .     A
C1607  C1613   1.452   .     S
C1608  O1698   1.296   .     A
C1608  O1697   1.295   .     A
C1608  C1611   1.452   .     S
C1609  C1625   1.494   .     S
C1609  C1620   1.407   .     A
C1609  C1611   1.404   .     A
C1610  C1626   1.494   .     S
C1610  C1621   1.407   .     A
C1610  C1613   1.404   .     A
C1611  C1614   1.407   .     A
C1612  O1694   1.296   .     A
C1612  C1640   1.448   .     S
C1612  O1693   1.300   .     A
C1613  C1615   1.407   .     A
C1614  C1627   1.486   .     S
C1614  C1616   1.419   .     A
C1615  C1617   1.419   .     A
C1615  C1628   1.486   .     S
C1616  C1618   1.428   .     A
C1616  C1622   1.422   .     A
C1617  C1624   1.422   .     A
C1617  C1619   1.428   .     A
C1618  C1620   1.417   .     A
C1618  C719    1.421   1_556 S
C1619  C1621   1.417   .     A
C1620  C1634   1.401   .     A
C1621  C1623   1.401   .     A
C1622  N1679   1.424   .     S
C1622  C723    1.388   1_556 S
C1623  H1643   1.082   .     S
C1624  N1680   1.424   .     S
C1625  O1700   1.222   .     D
C1625  O1686   1.398   .     S
C1626  O1687   1.222   .     D
C1626  O1688   1.398   .     S
C1627  O1690   1.398   .     S
C1627  O1689   1.223   .     D
C1628  O1692   1.398   .     S
C1628  O1691   1.223   .     D
C1629  H1647   1.111   .     S
C1629  H1648   1.111   .     S
C1629  N1679   1.447   .     S
C1629  H1646   1.111   .     S
C1630  H1651   1.111   .     S
C1630  H1650   1.111   .     S
C1630  H1652   1.111   .     S
C1630  N1680   1.447   .     S
C1631  H1656   1.106   .     S
C1631  N1681   1.447   .     S
C1631  H1657   1.112   .     S
C1631  H1655   1.109   .     S
C1632  H1660   1.107   .     S
C1632  N1682   1.451   .     S
C1632  H1661   1.106   .     S
C1632  H1659   1.112   .     S
C1633  H1666   1.112   .     S
C1633  N1683   1.447   .     S
C1633  H1663   1.109   .     S
C1633  H1664   1.106   .     S
C1634  H1654   1.082   .     S
C1634  C724    1.388   1_556 S
C1635  H1670   1.112   .     S
C1635  N1684   1.451   .     S
C1635  H1668   1.106   .     S
C1635  H1669   1.107   .     S
C1636  H1665   1.079   .     S
C1637  C1640   1.402   .     A
C1637  H1671   1.083   .     S
C1637  C1739   1.384   .     S
C1638  H1672   1.079   .     S
C1638  C1640   1.397   .     A
C1638  C1736   1.378   .     S
C1639  H1673   1.083   .     S
Cu1641 Cu1642  2.703   .     S
Cu1641 N1677   2.031   .     S
Cu1641 O1696   1.966   .     S
Cu1641 O1694   1.960   .     S
Cu1641 O1685   1.960   .     S
Cu1641 O1698   1.966   .     S
Cu1642 O1693   1.960   .     S
Cu1642 O1695   1.960   .     S
Cu1642 O1697   1.966   .     S
Cu1642 N1678   2.031   .     S
Cu1642 O1699   1.966   .     S
H1644  O1692   1.014   .     S
H1645  N1679   1.032   .     S
H1649  N1680   1.032   .     S
H1653  N1681   1.030   .     S
H1658  N1682   1.030   .     S
H1662  N1683   1.030   .     S
H1667  N1684   1.030   .     S
H1674  O1686   1.014   .     S
H1675  O1688   1.014   .     S
H1676  O1690   1.014   .     S
C1701  C1702   1.448   .     S
C1701  O1795   1.300   .     A
C1701  O1785   1.296   .     A
C1702  C1739   1.402   .     A
C1702  C1736   1.397   .     A
C1703  N1781   1.422   .     S
C1703  N1778   1.372   .     A
C1704  N1777   1.375   .     A
C1704  N1782   1.422   .     S
C1704  C1105   1.438   1_565 S
C1705  N1783   1.422   .     S
C1705  N1778   1.372   .     A
C1706  N1784   1.422   .     S
C1706  N1777   1.375   .     A
C1706  C1103   1.438   1_565 S
C1707  O1796   1.296   .     A
C1707  O1799   1.295   .     A
C1707  C1713   1.452   .     S
C1708  O1798   1.296   .     A
C1708  O1797   1.295   .     A
C1708  C1711   1.452   .     S
C1709  C1725   1.494   .     S
C1709  C1720   1.407   .     A
C1709  C1711   1.404   .     A
C1710  C1726   1.494   .     S
C1710  C1721   1.407   .     A
C1710  C1713   1.404   .     A
C1711  C1714   1.407   .     A
C1712  O1794   1.296   .     A
C1712  C1740   1.448   .     S
C1712  O1793   1.300   .     A
C1713  C1715   1.407   .     A
C1714  C1727   1.486   .     S
C1714  C1716   1.419   .     A
C1715  C1717   1.419   .     A
C1715  C1728   1.486   .     S
C1716  C1718   1.428   .     A
C1716  C1722   1.422   .     A
C1717  C1724   1.422   .     A
C1717  C1719   1.428   .     A
C1718  C1720   1.417   .     A
C1718  C819    1.421   1_556 S
C1719  C1721   1.417   .     A
C1720  C1734   1.401   .     A
C1721  C1723   1.401   .     A
C1722  N1779   1.424   .     S
C1722  C823    1.388   1_556 S
C1723  H1743   1.082   .     S
C1724  N1780   1.424   .     S
C1725  O1800   1.222   .     D
C1725  O1786   1.398   .     S
C1726  O1787   1.222   .     D
C1726  O1788   1.398   .     S
C1727  O1790   1.398   .     S
C1727  O1789   1.223   .     D
C1728  O1792   1.398   .     S
C1728  O1791   1.223   .     D
C1729  H1747   1.111   .     S
C1729  H1748   1.111   .     S
C1729  N1779   1.447   .     S
C1729  H1746   1.111   .     S
C1730  H1751   1.111   .     S
C1730  H1750   1.111   .     S
C1730  H1752   1.111   .     S
C1730  N1780   1.447   .     S
C1731  H1756   1.106   .     S
C1731  N1781   1.447   .     S
C1731  H1757   1.112   .     S
C1731  H1755   1.109   .     S
C1732  H1760   1.107   .     S
C1732  N1782   1.451   .     S
C1732  H1761   1.106   .     S
C1732  H1759   1.112   .     S
C1733  H1766   1.112   .     S
C1733  N1783   1.447   .     S
C1733  H1763   1.109   .     S
C1733  H1764   1.106   .     S
C1734  H1754   1.082   .     S
C1734  C824    1.388   1_556 S
C1735  H1770   1.112   .     S
C1735  N1784   1.451   .     S
C1735  H1768   1.106   .     S
C1735  H1769   1.107   .     S
C1736  H1765   1.079   .     S
C1737  C1740   1.402   .     A
C1737  H1771   1.083   .     S
C1737  C1539   1.384   1_655 S
C1738  H1772   1.079   .     S
C1738  C1740   1.397   .     A
C1738  C1536   1.378   1_655 S
C1739  H1773   1.083   .     S
Cu1741 Cu1742  2.703   .     S
Cu1741 N1777   2.031   .     S
Cu1741 O1796   1.966   .     S
Cu1741 O1794   1.960   .     S
Cu1741 O1785   1.960   .     S
Cu1741 O1798   1.966   .     S
Cu1742 O1793   1.960   .     S
Cu1742 O1795   1.960   .     S
Cu1742 O1797   1.966   .     S
Cu1742 N1778   2.031   .     S
Cu1742 O1799   1.966   .     S
H1744  O1792   1.014   .     S
H1745  N1779   1.032   .     S
H1749  N1780   1.032   .     S
H1753  N1781   1.030   .     S
H1758  N1782   1.030   .     S
H1762  N1783   1.030   .     S
H1767  N1784   1.030   .     S
H1774  O1786   1.014   .     S
H1775  O1788   1.014   .     S
H1776  O1790   1.014   .     S
