data_str_m2_o10_o16_pcu_sym.142
_audit_creation_date              2020-01-03
_audit_creation_method            'Materials Studio'
_symmetry_space_group_name_H-M    'P1'
_symmetry_Int_Tables_number       1
_symmetry_cell_setting            triclinic
loop_
_symmetry_equiv_pos_as_xyz
  x,y,z
_cell_length_a                    22.3005
_cell_length_b                    26.0465
_cell_length_c                    26.7581
_cell_angle_alpha                 93.7119
_cell_angle_beta                  77.3017
_cell_angle_gamma                 103.1463
loop_
_atom_site_label
_atom_site_type_symbol
_atom_site_fract_x
_atom_site_fract_y
_atom_site_fract_z
_atom_site_U_iso_or_equiv
_atom_site_adp_type
_atom_site_occupancy
C1     C     0.18169   0.26673   0.25169   0.00000  Uiso   1.00
C2     C     0.14703   0.17600   0.48459   0.00000  Uiso   1.00
C3     C     0.14673   0.14985   0.43608   0.00000  Uiso   1.00
C4     C     0.18715   0.16463   0.01522   0.00000  Uiso   1.00
C5     C     0.23244   0.13441   0.49422   0.00000  Uiso   1.00
C6     C     0.22914   0.10729   0.44794   0.00000  Uiso   1.00
C7     C     0.18183   0.10972   0.42204   0.00000  Uiso   1.00
C8     C     0.18013   0.17828   0.06747   0.00000  Uiso   1.00
C9     C     0.27008   0.14361   0.07361   0.00000  Uiso   1.00
C10    C     0.11212   0.16534   0.40309   0.00000  Uiso   1.00
C11    C     0.19013   0.32270   0.25262   0.00000  Uiso   1.00
C12    C     0.13253   0.16241   0.34714   0.00000  Uiso   1.00
C13    C     0.14311   0.01064   0.24756   0.00000  Uiso   1.00
C14    C     0.15169   0.06661   0.24813   0.00000  Uiso   1.00
C15    C     0.20053   0.16961   0.15284   0.00000  Uiso   1.00
C16    C     0.27584   0.12668   0.02262   0.00000  Uiso   1.00
C17    C     0.21972   0.16644   0.09693   0.00000  Uiso   1.00
C18    C     0.06903   0.19709   0.42198   0.00000  Uiso   1.00
C19    C     0.06730   0.22083   0.46989   0.00000  Uiso   1.00
C20    C     0.10825   0.21330   0.49974   0.00000  Uiso   1.00
Cu21   Cu    0.10710   0.16105   0.24435   0.00000  Uiso   1.00
Cu22   Cu    0.22623   0.17228   0.25564   0.00000  Uiso   1.00
H23    H     0.30116   0.13431   0.09594   0.00000  Uiso   1.00
H24    H     0.09773   0.32017   0.24295   0.00000  Uiso   1.00
H25    H     0.00362   0.20582   0.28964   0.00000  Uiso   1.00
H26    H     0.32969   0.12748   0.21039   0.00000  Uiso   1.00
H27    H     0.25925   0.07966   0.43481   0.00000  Uiso   1.00
H28    H     0.14003   0.19315   0.08752   0.00000  Uiso   1.00
H29    H     0.04146   0.20836   0.39755   0.00000  Uiso   1.00
H30    H     0.03731   0.24861   0.48234   0.00000  Uiso   1.00
H31    H     0.23545   0.01317   0.25735   0.00000  Uiso   1.00
N32    N     0.31574   0.18074   0.26416   0.00000  Uiso   1.00
N33    N     0.01759   0.15259   0.23584   0.00000  Uiso   1.00
O34    O     0.12797   0.23807   0.24633   0.00000  Uiso   1.00
O35    O     0.22858   0.24755   0.25586   0.00000  Uiso   1.00
O36    O     0.09181   0.15960   0.31839   0.00000  Uiso   1.00
O37    O     0.19242   0.16908   0.32793   0.00000  Uiso   1.00
O38    O     0.10476   0.08578   0.24413   0.00000  Uiso   1.00
O39    O     0.20536   0.09526   0.25367   0.00000  Uiso   1.00
O40    O     0.14092   0.16425   0.17207   0.00000  Uiso   1.00
O41    O     0.24152   0.17373   0.18160   0.00000  Uiso   1.00
F42    F     0.32089   0.09938   0.00231   0.00000  Uiso   1.00
F43    F     0.11261   0.24635   0.04067   0.00000  Uiso   1.00
C44    C     0.16394   0.06369   0.38620   0.00000  Uiso   1.00
C45    C     0.09754   0.03143   0.40655   0.00000  Uiso   1.00
H46    H     0.09353   0.01749   0.44577   0.00000  Uiso   1.00
H47    H     0.06192   0.05529   0.40746   0.00000  Uiso   1.00
H48    H     0.08743   0.32987   0.38112   0.00000  Uiso   1.00
H49    H     0.16753   0.07636   0.34722   0.00000  Uiso   1.00
H50    H     0.19673   0.03652   0.38198   0.00000  Uiso   1.00
C51    C     0.51503   0.26673   0.25169   0.00000  Uiso   1.00
C52    C     0.48036   0.17600   0.48459   0.00000  Uiso   1.00
C53    C     0.48006   0.14985   0.43608   0.00000  Uiso   1.00
C54    C     0.52048   0.16463   0.01522   0.00000  Uiso   1.00
C55    C     0.56578   0.13441   0.49422   0.00000  Uiso   1.00
C56    C     0.56247   0.10729   0.44794   0.00000  Uiso   1.00
C57    C     0.51517   0.10972   0.42204   0.00000  Uiso   1.00
C58    C     0.51346   0.17828   0.06747   0.00000  Uiso   1.00
C59    C     0.60341   0.14361   0.07361   0.00000  Uiso   1.00
C60    C     0.44545   0.16534   0.40309   0.00000  Uiso   1.00
C61    C     0.52346   0.32270   0.25262   0.00000  Uiso   1.00
C62    C     0.46587   0.16241   0.34714   0.00000  Uiso   1.00
C63    C     0.47644   0.01064   0.24756   0.00000  Uiso   1.00
C64    C     0.48502   0.06661   0.24813   0.00000  Uiso   1.00
C65    C     0.53386   0.16961   0.15284   0.00000  Uiso   1.00
C66    C     0.60917   0.12668   0.02262   0.00000  Uiso   1.00
C67    C     0.55306   0.16644   0.09693   0.00000  Uiso   1.00
C68    C     0.40236   0.19709   0.42198   0.00000  Uiso   1.00
C69    C     0.40064   0.22083   0.46989   0.00000  Uiso   1.00
C70    C     0.44159   0.21330   0.49974   0.00000  Uiso   1.00
Cu71   Cu    0.44043   0.16105   0.24435   0.00000  Uiso   1.00
Cu72   Cu    0.55957   0.17228   0.25564   0.00000  Uiso   1.00
H73    H     0.63449   0.13431   0.09594   0.00000  Uiso   1.00
H74    H     0.43107   0.32017   0.24295   0.00000  Uiso   1.00
H75    H     0.33696   0.20582   0.28964   0.00000  Uiso   1.00
H76    H     0.66302   0.12748   0.21039   0.00000  Uiso   1.00
H77    H     0.59258   0.07966   0.43481   0.00000  Uiso   1.00
H78    H     0.47337   0.19315   0.08752   0.00000  Uiso   1.00
H79    H     0.37479   0.20836   0.39755   0.00000  Uiso   1.00
H80    H     0.37065   0.24861   0.48234   0.00000  Uiso   1.00
H81    H     0.56878   0.01317   0.25735   0.00000  Uiso   1.00
N82    N     0.64908   0.18074   0.26416   0.00000  Uiso   1.00
N83    N     0.35092   0.15259   0.23584   0.00000  Uiso   1.00
O84    O     0.46131   0.23807   0.24633   0.00000  Uiso   1.00
O85    O     0.56191   0.24755   0.25586   0.00000  Uiso   1.00
O86    O     0.42515   0.15960   0.31839   0.00000  Uiso   1.00
O87    O     0.52575   0.16908   0.32793   0.00000  Uiso   1.00
O88    O     0.43809   0.08578   0.24413   0.00000  Uiso   1.00
O89    O     0.53869   0.09526   0.25367   0.00000  Uiso   1.00
O90    O     0.47425   0.16425   0.17207   0.00000  Uiso   1.00
O91    O     0.57485   0.17373   0.18160   0.00000  Uiso   1.00
F92    F     0.65423   0.09938   0.00231   0.00000  Uiso   1.00
F93    F     0.44594   0.24635   0.04067   0.00000  Uiso   1.00
C94    C     0.49727   0.06369   0.38620   0.00000  Uiso   1.00
C95    C     0.43088   0.03143   0.40655   0.00000  Uiso   1.00
H96    H     0.42687   0.01749   0.44577   0.00000  Uiso   1.00
H97    H     0.39525   0.05529   0.40746   0.00000  Uiso   1.00
H98    H     0.42076   0.32987   0.38112   0.00000  Uiso   1.00
H99    H     0.50086   0.07636   0.34722   0.00000  Uiso   1.00
H100   H     0.53006   0.03652   0.38198   0.00000  Uiso   1.00
C101   C     0.84836   0.26673   0.25169   0.00000  Uiso   1.00
C102   C     0.81369   0.17600   0.48459   0.00000  Uiso   1.00
C103   C     0.81340   0.14985   0.43608   0.00000  Uiso   1.00
C104   C     0.85382   0.16463   0.01522   0.00000  Uiso   1.00
C105   C     0.89911   0.13441   0.49422   0.00000  Uiso   1.00
C106   C     0.89580   0.10729   0.44794   0.00000  Uiso   1.00
C107   C     0.84850   0.10972   0.42204   0.00000  Uiso   1.00
C108   C     0.84680   0.17828   0.06747   0.00000  Uiso   1.00
C109   C     0.93674   0.14361   0.07361   0.00000  Uiso   1.00
C110   C     0.77878   0.16534   0.40309   0.00000  Uiso   1.00
C111   C     0.85679   0.32270   0.25262   0.00000  Uiso   1.00
C112   C     0.79920   0.16241   0.34714   0.00000  Uiso   1.00
C113   C     0.80977   0.01064   0.24756   0.00000  Uiso   1.00
C114   C     0.81836   0.06661   0.24813   0.00000  Uiso   1.00
C115   C     0.86719   0.16961   0.15284   0.00000  Uiso   1.00
C116   C     0.94251   0.12668   0.02262   0.00000  Uiso   1.00
C117   C     0.88639   0.16644   0.09693   0.00000  Uiso   1.00
C118   C     0.73569   0.19709   0.42198   0.00000  Uiso   1.00
C119   C     0.73397   0.22083   0.46989   0.00000  Uiso   1.00
C120   C     0.77492   0.21330   0.49974   0.00000  Uiso   1.00
Cu121  Cu    0.77377   0.16105   0.24435   0.00000  Uiso   1.00
Cu122  Cu    0.89290   0.17228   0.25564   0.00000  Uiso   1.00
H123   H     0.96783   0.13431   0.09594   0.00000  Uiso   1.00
H124   H     0.76440   0.32017   0.24295   0.00000  Uiso   1.00
H125   H     0.67029   0.20582   0.28964   0.00000  Uiso   1.00
H126   H     0.99636   0.12748   0.21039   0.00000  Uiso   1.00
H127   H     0.92591   0.07966   0.43481   0.00000  Uiso   1.00
H128   H     0.80670   0.19315   0.08752   0.00000  Uiso   1.00
H129   H     0.70812   0.20836   0.39755   0.00000  Uiso   1.00
H130   H     0.70398   0.24861   0.48234   0.00000  Uiso   1.00
H131   H     0.90212   0.01317   0.25735   0.00000  Uiso   1.00
N132   N     0.98241   0.18074   0.26416   0.00000  Uiso   1.00
N133   N     0.68426   0.15259   0.23584   0.00000  Uiso   1.00
O134   O     0.79464   0.23807   0.24633   0.00000  Uiso   1.00
O135   O     0.89524   0.24755   0.25586   0.00000  Uiso   1.00
O136   O     0.75848   0.15960   0.31839   0.00000  Uiso   1.00
O137   O     0.85908   0.16908   0.32793   0.00000  Uiso   1.00
O138   O     0.77142   0.08578   0.24413   0.00000  Uiso   1.00
O139   O     0.87203   0.09526   0.25367   0.00000  Uiso   1.00
O140   O     0.80758   0.16425   0.17207   0.00000  Uiso   1.00
O141   O     0.90819   0.17373   0.18160   0.00000  Uiso   1.00
F142   F     0.98756   0.09938   0.00231   0.00000  Uiso   1.00
F143   F     0.77927   0.24635   0.04067   0.00000  Uiso   1.00
C144   C     0.83061   0.06369   0.38620   0.00000  Uiso   1.00
C145   C     0.76421   0.03143   0.40655   0.00000  Uiso   1.00
H146   H     0.76020   0.01749   0.44577   0.00000  Uiso   1.00
H147   H     0.72858   0.05529   0.40746   0.00000  Uiso   1.00
H148   H     0.75410   0.32987   0.38112   0.00000  Uiso   1.00
H149   H     0.83420   0.07636   0.34722   0.00000  Uiso   1.00
H150   H     0.86339   0.03652   0.38198   0.00000  Uiso   1.00
C151   C     0.18169   0.60006   0.25169   0.00000  Uiso   1.00
C152   C     0.14703   0.50933   0.48459   0.00000  Uiso   1.00
C153   C     0.14673   0.48318   0.43608   0.00000  Uiso   1.00
C154   C     0.18715   0.49797   0.01522   0.00000  Uiso   1.00
C155   C     0.23244   0.46775   0.49422   0.00000  Uiso   1.00
C156   C     0.22914   0.44063   0.44794   0.00000  Uiso   1.00
C157   C     0.18183   0.44305   0.42204   0.00000  Uiso   1.00
C158   C     0.18013   0.51161   0.06747   0.00000  Uiso   1.00
C159   C     0.27008   0.47694   0.07361   0.00000  Uiso   1.00
C160   C     0.11212   0.49867   0.40309   0.00000  Uiso   1.00
C161   C     0.19013   0.65603   0.25262   0.00000  Uiso   1.00
C162   C     0.13253   0.49575   0.34714   0.00000  Uiso   1.00
C163   C     0.14311   0.34397   0.24756   0.00000  Uiso   1.00
C164   C     0.15169   0.39994   0.24813   0.00000  Uiso   1.00
C165   C     0.20053   0.50295   0.15284   0.00000  Uiso   1.00
C166   C     0.27584   0.46002   0.02262   0.00000  Uiso   1.00
C167   C     0.21972   0.49977   0.09693   0.00000  Uiso   1.00
C168   C     0.06903   0.53043   0.42198   0.00000  Uiso   1.00
C169   C     0.06730   0.55416   0.46989   0.00000  Uiso   1.00
C170   C     0.10825   0.54664   0.49974   0.00000  Uiso   1.00
Cu171  Cu    0.10710   0.49439   0.24435   0.00000  Uiso   1.00
Cu172  Cu    0.22623   0.50561   0.25564   0.00000  Uiso   1.00
H173   H     0.30116   0.46764   0.09594   0.00000  Uiso   1.00
H174   H     0.09773   0.65350   0.24295   0.00000  Uiso   1.00
H175   H     0.00362   0.53916   0.28964   0.00000  Uiso   1.00
H176   H     0.32969   0.46081   0.21039   0.00000  Uiso   1.00
H177   H     0.25925   0.41299   0.43481   0.00000  Uiso   1.00
H178   H     0.14003   0.52648   0.08752   0.00000  Uiso   1.00
H179   H     0.04146   0.54169   0.39755   0.00000  Uiso   1.00
H180   H     0.03731   0.58195   0.48234   0.00000  Uiso   1.00
H181   H     0.23545   0.34651   0.25735   0.00000  Uiso   1.00
N182   N     0.31574   0.51407   0.26416   0.00000  Uiso   1.00
N183   N     0.01759   0.48593   0.23584   0.00000  Uiso   1.00
O184   O     0.12797   0.57141   0.24633   0.00000  Uiso   1.00
O185   O     0.22858   0.58089   0.25586   0.00000  Uiso   1.00
O186   O     0.09181   0.49293   0.31839   0.00000  Uiso   1.00
O187   O     0.19242   0.50241   0.32793   0.00000  Uiso   1.00
O188   O     0.10476   0.41911   0.24413   0.00000  Uiso   1.00
O189   O     0.20536   0.42859   0.25367   0.00000  Uiso   1.00
O190   O     0.14092   0.49759   0.17207   0.00000  Uiso   1.00
O191   O     0.24152   0.50707   0.18160   0.00000  Uiso   1.00
F192   F     0.32089   0.43271   0.00231   0.00000  Uiso   1.00
F193   F     0.11261   0.57969   0.04067   0.00000  Uiso   1.00
C194   C     0.16394   0.39702   0.38620   0.00000  Uiso   1.00
C195   C     0.09754   0.36476   0.40655   0.00000  Uiso   1.00
H196   H     0.09353   0.35082   0.44577   0.00000  Uiso   1.00
H197   H     0.06192   0.38863   0.40746   0.00000  Uiso   1.00
H198   H     0.08743   0.66320   0.38112   0.00000  Uiso   1.00
H199   H     0.16753   0.40969   0.34722   0.00000  Uiso   1.00
H200   H     0.19673   0.36985   0.38198   0.00000  Uiso   1.00
C201   C     0.51503   0.60006   0.25169   0.00000  Uiso   1.00
C202   C     0.48036   0.50933   0.48459   0.00000  Uiso   1.00
C203   C     0.48006   0.48318   0.43608   0.00000  Uiso   1.00
C204   C     0.52048   0.49797   0.01522   0.00000  Uiso   1.00
C205   C     0.56578   0.46775   0.49422   0.00000  Uiso   1.00
C206   C     0.56247   0.44063   0.44794   0.00000  Uiso   1.00
C207   C     0.51517   0.44305   0.42204   0.00000  Uiso   1.00
C208   C     0.51346   0.51161   0.06747   0.00000  Uiso   1.00
C209   C     0.60341   0.47694   0.07361   0.00000  Uiso   1.00
C210   C     0.44545   0.49867   0.40309   0.00000  Uiso   1.00
C211   C     0.52346   0.65603   0.25262   0.00000  Uiso   1.00
C212   C     0.46587   0.49575   0.34714   0.00000  Uiso   1.00
C213   C     0.47644   0.34397   0.24756   0.00000  Uiso   1.00
C214   C     0.48502   0.39994   0.24813   0.00000  Uiso   1.00
C215   C     0.53386   0.50295   0.15284   0.00000  Uiso   1.00
C216   C     0.60917   0.46002   0.02262   0.00000  Uiso   1.00
C217   C     0.55306   0.49977   0.09693   0.00000  Uiso   1.00
C218   C     0.40236   0.53043   0.42198   0.00000  Uiso   1.00
C219   C     0.40064   0.55416   0.46989   0.00000  Uiso   1.00
C220   C     0.44159   0.54664   0.49974   0.00000  Uiso   1.00
Cu221  Cu    0.44043   0.49439   0.24435   0.00000  Uiso   1.00
Cu222  Cu    0.55957   0.50561   0.25564   0.00000  Uiso   1.00
H223   H     0.63449   0.46764   0.09594   0.00000  Uiso   1.00
H224   H     0.43107   0.65350   0.24295   0.00000  Uiso   1.00
H225   H     0.33696   0.53916   0.28964   0.00000  Uiso   1.00
H226   H     0.66302   0.46081   0.21039   0.00000  Uiso   1.00
H227   H     0.59258   0.41299   0.43481   0.00000  Uiso   1.00
H228   H     0.47337   0.52648   0.08752   0.00000  Uiso   1.00
H229   H     0.37479   0.54169   0.39755   0.00000  Uiso   1.00
H230   H     0.37065   0.58195   0.48234   0.00000  Uiso   1.00
H231   H     0.56878   0.34651   0.25735   0.00000  Uiso   1.00
N232   N     0.64908   0.51407   0.26416   0.00000  Uiso   1.00
N233   N     0.35092   0.48593   0.23584   0.00000  Uiso   1.00
O234   O     0.46131   0.57141   0.24633   0.00000  Uiso   1.00
O235   O     0.56191   0.58089   0.25586   0.00000  Uiso   1.00
O236   O     0.42515   0.49293   0.31839   0.00000  Uiso   1.00
O237   O     0.52575   0.50241   0.32793   0.00000  Uiso   1.00
O238   O     0.43809   0.41911   0.24413   0.00000  Uiso   1.00
O239   O     0.53869   0.42859   0.25367   0.00000  Uiso   1.00
O240   O     0.47425   0.49759   0.17207   0.00000  Uiso   1.00
O241   O     0.57485   0.50707   0.18160   0.00000  Uiso   1.00
F242   F     0.65423   0.43271   0.00231   0.00000  Uiso   1.00
F243   F     0.44594   0.57969   0.04067   0.00000  Uiso   1.00
C244   C     0.49727   0.39702   0.38620   0.00000  Uiso   1.00
C245   C     0.43088   0.36476   0.40655   0.00000  Uiso   1.00
H246   H     0.42687   0.35082   0.44577   0.00000  Uiso   1.00
H247   H     0.39525   0.38863   0.40746   0.00000  Uiso   1.00
H248   H     0.42076   0.66320   0.38112   0.00000  Uiso   1.00
H249   H     0.50086   0.40969   0.34722   0.00000  Uiso   1.00
H250   H     0.53006   0.36985   0.38198   0.00000  Uiso   1.00
C251   C     0.84836   0.60006   0.25169   0.00000  Uiso   1.00
C252   C     0.81369   0.50933   0.48459   0.00000  Uiso   1.00
C253   C     0.81340   0.48318   0.43608   0.00000  Uiso   1.00
C254   C     0.85382   0.49797   0.01522   0.00000  Uiso   1.00
C255   C     0.89911   0.46775   0.49422   0.00000  Uiso   1.00
C256   C     0.89580   0.44063   0.44794   0.00000  Uiso   1.00
C257   C     0.84850   0.44305   0.42204   0.00000  Uiso   1.00
C258   C     0.84680   0.51161   0.06747   0.00000  Uiso   1.00
C259   C     0.93674   0.47694   0.07361   0.00000  Uiso   1.00
C260   C     0.77878   0.49867   0.40309   0.00000  Uiso   1.00
C261   C     0.85679   0.65603   0.25262   0.00000  Uiso   1.00
C262   C     0.79920   0.49575   0.34714   0.00000  Uiso   1.00
C263   C     0.80977   0.34397   0.24756   0.00000  Uiso   1.00
C264   C     0.81836   0.39994   0.24813   0.00000  Uiso   1.00
C265   C     0.86719   0.50295   0.15284   0.00000  Uiso   1.00
C266   C     0.94251   0.46002   0.02262   0.00000  Uiso   1.00
C267   C     0.88639   0.49977   0.09693   0.00000  Uiso   1.00
C268   C     0.73569   0.53043   0.42198   0.00000  Uiso   1.00
C269   C     0.73397   0.55416   0.46989   0.00000  Uiso   1.00
C270   C     0.77492   0.54664   0.49974   0.00000  Uiso   1.00
Cu271  Cu    0.77377   0.49439   0.24435   0.00000  Uiso   1.00
Cu272  Cu    0.89290   0.50561   0.25564   0.00000  Uiso   1.00
H273   H     0.96783   0.46764   0.09594   0.00000  Uiso   1.00
H274   H     0.76440   0.65350   0.24295   0.00000  Uiso   1.00
H275   H     0.67029   0.53916   0.28964   0.00000  Uiso   1.00
H276   H     0.99636   0.46081   0.21039   0.00000  Uiso   1.00
H277   H     0.92591   0.41299   0.43481   0.00000  Uiso   1.00
H278   H     0.80670   0.52648   0.08752   0.00000  Uiso   1.00
H279   H     0.70812   0.54169   0.39755   0.00000  Uiso   1.00
H280   H     0.70398   0.58195   0.48234   0.00000  Uiso   1.00
H281   H     0.90212   0.34651   0.25735   0.00000  Uiso   1.00
N282   N     0.98241   0.51407   0.26416   0.00000  Uiso   1.00
N283   N     0.68426   0.48593   0.23584   0.00000  Uiso   1.00
O284   O     0.79464   0.57141   0.24633   0.00000  Uiso   1.00
O285   O     0.89524   0.58089   0.25586   0.00000  Uiso   1.00
O286   O     0.75848   0.49293   0.31839   0.00000  Uiso   1.00
O287   O     0.85908   0.50241   0.32793   0.00000  Uiso   1.00
O288   O     0.77142   0.41911   0.24413   0.00000  Uiso   1.00
O289   O     0.87203   0.42859   0.25367   0.00000  Uiso   1.00
O290   O     0.80758   0.49759   0.17207   0.00000  Uiso   1.00
O291   O     0.90819   0.50707   0.18160   0.00000  Uiso   1.00
F292   F     0.98756   0.43271   0.00231   0.00000  Uiso   1.00
F293   F     0.77927   0.57969   0.04067   0.00000  Uiso   1.00
C294   C     0.83061   0.39702   0.38620   0.00000  Uiso   1.00
C295   C     0.76421   0.36476   0.40655   0.00000  Uiso   1.00
H296   H     0.76020   0.35082   0.44577   0.00000  Uiso   1.00
H297   H     0.72858   0.38863   0.40746   0.00000  Uiso   1.00
H298   H     0.75410   0.66320   0.38112   0.00000  Uiso   1.00
H299   H     0.83420   0.40969   0.34722   0.00000  Uiso   1.00
H300   H     0.86339   0.36985   0.38198   0.00000  Uiso   1.00
C301   C     0.18169   0.93339   0.25169   0.00000  Uiso   1.00
C302   C     0.14703   0.84267   0.48459   0.00000  Uiso   1.00
C303   C     0.14673   0.81652   0.43608   0.00000  Uiso   1.00
C304   C     0.18715   0.83130   0.01522   0.00000  Uiso   1.00
C305   C     0.23244   0.80108   0.49422   0.00000  Uiso   1.00
C306   C     0.22914   0.77396   0.44794   0.00000  Uiso   1.00
C307   C     0.18183   0.77639   0.42204   0.00000  Uiso   1.00
C308   C     0.18013   0.84494   0.06747   0.00000  Uiso   1.00
C309   C     0.27008   0.81027   0.07361   0.00000  Uiso   1.00
C310   C     0.11212   0.83200   0.40309   0.00000  Uiso   1.00
C311   C     0.19013   0.98936   0.25262   0.00000  Uiso   1.00
C312   C     0.13253   0.82908   0.34714   0.00000  Uiso   1.00
C313   C     0.14311   0.67731   0.24756   0.00000  Uiso   1.00
C314   C     0.15169   0.73327   0.24813   0.00000  Uiso   1.00
C315   C     0.20053   0.83628   0.15284   0.00000  Uiso   1.00
C316   C     0.27584   0.79335   0.02262   0.00000  Uiso   1.00
C317   C     0.21972   0.83311   0.09693   0.00000  Uiso   1.00
C318   C     0.06903   0.86376   0.42198   0.00000  Uiso   1.00
C319   C     0.06730   0.88749   0.46989   0.00000  Uiso   1.00
C320   C     0.10825   0.87997   0.49974   0.00000  Uiso   1.00
Cu321  Cu    0.10710   0.82772   0.24435   0.00000  Uiso   1.00
Cu322  Cu    0.22623   0.83895   0.25564   0.00000  Uiso   1.00
H323   H     0.30116   0.80098   0.09594   0.00000  Uiso   1.00
H324   H     0.09773   0.98684   0.24295   0.00000  Uiso   1.00
H325   H     0.00362   0.87249   0.28964   0.00000  Uiso   1.00
H326   H     0.32969   0.79415   0.21039   0.00000  Uiso   1.00
H327   H     0.25925   0.74632   0.43481   0.00000  Uiso   1.00
H328   H     0.14003   0.85981   0.08752   0.00000  Uiso   1.00
H329   H     0.04146   0.87503   0.39755   0.00000  Uiso   1.00
H330   H     0.03731   0.91528   0.48234   0.00000  Uiso   1.00
H331   H     0.23545   0.67984   0.25735   0.00000  Uiso   1.00
N332   N     0.31574   0.84741   0.26416   0.00000  Uiso   1.00
N333   N     0.01759   0.81926   0.23584   0.00000  Uiso   1.00
O334   O     0.12797   0.90474   0.24633   0.00000  Uiso   1.00
O335   O     0.22858   0.91422   0.25586   0.00000  Uiso   1.00
O336   O     0.09181   0.82627   0.31839   0.00000  Uiso   1.00
O337   O     0.19242   0.83575   0.32793   0.00000  Uiso   1.00
O338   O     0.10476   0.75245   0.24413   0.00000  Uiso   1.00
O339   O     0.20536   0.76193   0.25367   0.00000  Uiso   1.00
O340   O     0.14092   0.83092   0.17207   0.00000  Uiso   1.00
O341   O     0.24152   0.84040   0.18160   0.00000  Uiso   1.00
F342   F     0.32089   0.76605   0.00231   0.00000  Uiso   1.00
F343   F     0.11261   0.91302   0.04067   0.00000  Uiso   1.00
C344   C     0.16394   0.73035   0.38620   0.00000  Uiso   1.00
C345   C     0.09754   0.69809   0.40655   0.00000  Uiso   1.00
H346   H     0.09353   0.68416   0.44577   0.00000  Uiso   1.00
H347   H     0.06192   0.72196   0.40746   0.00000  Uiso   1.00
H348   H     0.08743   0.99653   0.38112   0.00000  Uiso   1.00
H349   H     0.16753   0.74302   0.34722   0.00000  Uiso   1.00
H350   H     0.19673   0.70318   0.38198   0.00000  Uiso   1.00
C351   C     0.51503   0.93339   0.25169   0.00000  Uiso   1.00
C352   C     0.48036   0.84267   0.48459   0.00000  Uiso   1.00
C353   C     0.48006   0.81652   0.43608   0.00000  Uiso   1.00
C354   C     0.52048   0.83130   0.01522   0.00000  Uiso   1.00
C355   C     0.56578   0.80108   0.49422   0.00000  Uiso   1.00
C356   C     0.56247   0.77396   0.44794   0.00000  Uiso   1.00
C357   C     0.51517   0.77639   0.42204   0.00000  Uiso   1.00
C358   C     0.51346   0.84494   0.06747   0.00000  Uiso   1.00
C359   C     0.60341   0.81027   0.07361   0.00000  Uiso   1.00
C360   C     0.44545   0.83200   0.40309   0.00000  Uiso   1.00
C361   C     0.52346   0.98936   0.25262   0.00000  Uiso   1.00
C362   C     0.46587   0.82908   0.34714   0.00000  Uiso   1.00
C363   C     0.47644   0.67731   0.24756   0.00000  Uiso   1.00
C364   C     0.48502   0.73327   0.24813   0.00000  Uiso   1.00
C365   C     0.53386   0.83628   0.15284   0.00000  Uiso   1.00
C366   C     0.60917   0.79335   0.02262   0.00000  Uiso   1.00
C367   C     0.55306   0.83311   0.09693   0.00000  Uiso   1.00
C368   C     0.40236   0.86376   0.42198   0.00000  Uiso   1.00
C369   C     0.40064   0.88749   0.46989   0.00000  Uiso   1.00
C370   C     0.44159   0.87997   0.49974   0.00000  Uiso   1.00
Cu371  Cu    0.44043   0.82772   0.24435   0.00000  Uiso   1.00
Cu372  Cu    0.55957   0.83895   0.25564   0.00000  Uiso   1.00
H373   H     0.63449   0.80098   0.09594   0.00000  Uiso   1.00
H374   H     0.43107   0.98684   0.24295   0.00000  Uiso   1.00
H375   H     0.33696   0.87249   0.28964   0.00000  Uiso   1.00
H376   H     0.66302   0.79415   0.21039   0.00000  Uiso   1.00
H377   H     0.59258   0.74632   0.43481   0.00000  Uiso   1.00
H378   H     0.47337   0.85981   0.08752   0.00000  Uiso   1.00
H379   H     0.37479   0.87503   0.39755   0.00000  Uiso   1.00
H380   H     0.37065   0.91528   0.48234   0.00000  Uiso   1.00
H381   H     0.56878   0.67984   0.25735   0.00000  Uiso   1.00
N382   N     0.64908   0.84741   0.26416   0.00000  Uiso   1.00
N383   N     0.35092   0.81926   0.23584   0.00000  Uiso   1.00
O384   O     0.46131   0.90474   0.24633   0.00000  Uiso   1.00
O385   O     0.56191   0.91422   0.25586   0.00000  Uiso   1.00
O386   O     0.42515   0.82627   0.31839   0.00000  Uiso   1.00
O387   O     0.52575   0.83575   0.32793   0.00000  Uiso   1.00
O388   O     0.43809   0.75245   0.24413   0.00000  Uiso   1.00
O389   O     0.53869   0.76193   0.25367   0.00000  Uiso   1.00
O390   O     0.47425   0.83092   0.17207   0.00000  Uiso   1.00
O391   O     0.57485   0.84040   0.18160   0.00000  Uiso   1.00
F392   F     0.65423   0.76605   0.00231   0.00000  Uiso   1.00
F393   F     0.44594   0.91302   0.04067   0.00000  Uiso   1.00
C394   C     0.49727   0.73035   0.38620   0.00000  Uiso   1.00
C395   C     0.43088   0.69809   0.40655   0.00000  Uiso   1.00
H396   H     0.42687   0.68416   0.44577   0.00000  Uiso   1.00
H397   H     0.39525   0.72196   0.40746   0.00000  Uiso   1.00
H398   H     0.42076   0.99653   0.38112   0.00000  Uiso   1.00
H399   H     0.50086   0.74302   0.34722   0.00000  Uiso   1.00
H400   H     0.53006   0.70318   0.38198   0.00000  Uiso   1.00
C401   C     0.84836   0.93339   0.25169   0.00000  Uiso   1.00
C402   C     0.81369   0.84267   0.48459   0.00000  Uiso   1.00
C403   C     0.81340   0.81652   0.43608   0.00000  Uiso   1.00
C404   C     0.85382   0.83130   0.01522   0.00000  Uiso   1.00
C405   C     0.89911   0.80108   0.49422   0.00000  Uiso   1.00
C406   C     0.89580   0.77396   0.44794   0.00000  Uiso   1.00
C407   C     0.84850   0.77639   0.42204   0.00000  Uiso   1.00
C408   C     0.84680   0.84494   0.06747   0.00000  Uiso   1.00
C409   C     0.93674   0.81027   0.07361   0.00000  Uiso   1.00
C410   C     0.77878   0.83200   0.40309   0.00000  Uiso   1.00
C411   C     0.85679   0.98936   0.25262   0.00000  Uiso   1.00
C412   C     0.79920   0.82908   0.34714   0.00000  Uiso   1.00
C413   C     0.80977   0.67731   0.24756   0.00000  Uiso   1.00
C414   C     0.81836   0.73327   0.24813   0.00000  Uiso   1.00
C415   C     0.86719   0.83628   0.15284   0.00000  Uiso   1.00
C416   C     0.94251   0.79335   0.02262   0.00000  Uiso   1.00
C417   C     0.88639   0.83311   0.09693   0.00000  Uiso   1.00
C418   C     0.73569   0.86376   0.42198   0.00000  Uiso   1.00
C419   C     0.73397   0.88749   0.46989   0.00000  Uiso   1.00
C420   C     0.77492   0.87997   0.49974   0.00000  Uiso   1.00
Cu421  Cu    0.77377   0.82772   0.24435   0.00000  Uiso   1.00
Cu422  Cu    0.89290   0.83895   0.25564   0.00000  Uiso   1.00
H423   H     0.96783   0.80098   0.09594   0.00000  Uiso   1.00
H424   H     0.76440   0.98684   0.24295   0.00000  Uiso   1.00
H425   H     0.67029   0.87249   0.28964   0.00000  Uiso   1.00
H426   H     0.99636   0.79415   0.21039   0.00000  Uiso   1.00
H427   H     0.92591   0.74632   0.43481   0.00000  Uiso   1.00
H428   H     0.80670   0.85981   0.08752   0.00000  Uiso   1.00
H429   H     0.70812   0.87503   0.39755   0.00000  Uiso   1.00
H430   H     0.70398   0.91528   0.48234   0.00000  Uiso   1.00
H431   H     0.90212   0.67984   0.25735   0.00000  Uiso   1.00
N432   N     0.98241   0.84741   0.26416   0.00000  Uiso   1.00
N433   N     0.68426   0.81926   0.23584   0.00000  Uiso   1.00
O434   O     0.79464   0.90474   0.24633   0.00000  Uiso   1.00
O435   O     0.89524   0.91422   0.25586   0.00000  Uiso   1.00
O436   O     0.75848   0.82627   0.31839   0.00000  Uiso   1.00
O437   O     0.85908   0.83575   0.32793   0.00000  Uiso   1.00
O438   O     0.77142   0.75245   0.24413   0.00000  Uiso   1.00
O439   O     0.87203   0.76193   0.25367   0.00000  Uiso   1.00
O440   O     0.80758   0.83092   0.17207   0.00000  Uiso   1.00
O441   O     0.90819   0.84040   0.18160   0.00000  Uiso   1.00
F442   F     0.98756   0.76605   0.00231   0.00000  Uiso   1.00
F443   F     0.77927   0.91302   0.04067   0.00000  Uiso   1.00
C444   C     0.83061   0.73035   0.38620   0.00000  Uiso   1.00
C445   C     0.76421   0.69809   0.40655   0.00000  Uiso   1.00
H446   H     0.76020   0.68416   0.44577   0.00000  Uiso   1.00
H447   H     0.72858   0.72196   0.40746   0.00000  Uiso   1.00
H448   H     0.75410   0.99653   0.38112   0.00000  Uiso   1.00
H449   H     0.83420   0.74302   0.34722   0.00000  Uiso   1.00
H450   H     0.86339   0.70318   0.38198   0.00000  Uiso   1.00
C451   C     0.18169   0.26673   0.75169   0.00000  Uiso   1.00
C452   C     0.14703   0.17600   0.98459   0.00000  Uiso   1.00
C453   C     0.14673   0.14985   0.93608   0.00000  Uiso   1.00
C454   C     0.18715   0.16463   0.51522   0.00000  Uiso   1.00
C455   C     0.23244   0.13441   0.99422   0.00000  Uiso   1.00
C456   C     0.22914   0.10729   0.94794   0.00000  Uiso   1.00
C457   C     0.18183   0.10972   0.92204   0.00000  Uiso   1.00
C458   C     0.18013   0.17828   0.56747   0.00000  Uiso   1.00
C459   C     0.27008   0.14361   0.57361   0.00000  Uiso   1.00
C460   C     0.11212   0.16534   0.90309   0.00000  Uiso   1.00
C461   C     0.19013   0.32270   0.75262   0.00000  Uiso   1.00
C462   C     0.13253   0.16241   0.84714   0.00000  Uiso   1.00
C463   C     0.14311   0.01064   0.74756   0.00000  Uiso   1.00
C464   C     0.15169   0.06661   0.74813   0.00000  Uiso   1.00
C465   C     0.20053   0.16961   0.65284   0.00000  Uiso   1.00
C466   C     0.27584   0.12668   0.52262   0.00000  Uiso   1.00
C467   C     0.21972   0.16644   0.59693   0.00000  Uiso   1.00
C468   C     0.06903   0.19709   0.92198   0.00000  Uiso   1.00
C469   C     0.06730   0.22083   0.96989   0.00000  Uiso   1.00
C470   C     0.10825   0.21330   0.99974   0.00000  Uiso   1.00
Cu471  Cu    0.10710   0.16105   0.74435   0.00000  Uiso   1.00
Cu472  Cu    0.22623   0.17228   0.75564   0.00000  Uiso   1.00
H473   H     0.30116   0.13431   0.59594   0.00000  Uiso   1.00
H474   H     0.09773   0.32017   0.74295   0.00000  Uiso   1.00
H475   H     0.00362   0.20582   0.78964   0.00000  Uiso   1.00
H476   H     0.32969   0.12748   0.71039   0.00000  Uiso   1.00
H477   H     0.25925   0.07966   0.93481   0.00000  Uiso   1.00
H478   H     0.14003   0.19315   0.58752   0.00000  Uiso   1.00
H479   H     0.04146   0.20836   0.89755   0.00000  Uiso   1.00
H480   H     0.03731   0.24861   0.98234   0.00000  Uiso   1.00
H481   H     0.23545   0.01317   0.75735   0.00000  Uiso   1.00
N482   N     0.31574   0.18074   0.76416   0.00000  Uiso   1.00
N483   N     0.01759   0.15259   0.73584   0.00000  Uiso   1.00
O484   O     0.12797   0.23807   0.74633   0.00000  Uiso   1.00
O485   O     0.22858   0.24755   0.75586   0.00000  Uiso   1.00
O486   O     0.09181   0.15960   0.81839   0.00000  Uiso   1.00
O487   O     0.19242   0.16908   0.82793   0.00000  Uiso   1.00
O488   O     0.10476   0.08578   0.74413   0.00000  Uiso   1.00
O489   O     0.20536   0.09526   0.75367   0.00000  Uiso   1.00
O490   O     0.14092   0.16425   0.67207   0.00000  Uiso   1.00
O491   O     0.24152   0.17373   0.68160   0.00000  Uiso   1.00
F492   F     0.32089   0.09938   0.50231   0.00000  Uiso   1.00
F493   F     0.11261   0.24635   0.54067   0.00000  Uiso   1.00
C494   C     0.16394   0.06369   0.88620   0.00000  Uiso   1.00
C495   C     0.09754   0.03143   0.90655   0.00000  Uiso   1.00
H496   H     0.09353   0.01749   0.94577   0.00000  Uiso   1.00
H497   H     0.06192   0.05529   0.90746   0.00000  Uiso   1.00
H498   H     0.08743   0.32987   0.88112   0.00000  Uiso   1.00
H499   H     0.16753   0.07636   0.84722   0.00000  Uiso   1.00
H500   H     0.19673   0.03652   0.88198   0.00000  Uiso   1.00
C501   C     0.51503   0.26673   0.75169   0.00000  Uiso   1.00
C502   C     0.48036   0.17600   0.98459   0.00000  Uiso   1.00
C503   C     0.48006   0.14985   0.93608   0.00000  Uiso   1.00
C504   C     0.52048   0.16463   0.51522   0.00000  Uiso   1.00
C505   C     0.56578   0.13441   0.99422   0.00000  Uiso   1.00
C506   C     0.56247   0.10729   0.94794   0.00000  Uiso   1.00
C507   C     0.51517   0.10972   0.92204   0.00000  Uiso   1.00
C508   C     0.51346   0.17828   0.56747   0.00000  Uiso   1.00
C509   C     0.60341   0.14361   0.57361   0.00000  Uiso   1.00
C510   C     0.44545   0.16534   0.90309   0.00000  Uiso   1.00
C511   C     0.52346   0.32270   0.75262   0.00000  Uiso   1.00
C512   C     0.46587   0.16241   0.84714   0.00000  Uiso   1.00
C513   C     0.47644   0.01064   0.74756   0.00000  Uiso   1.00
C514   C     0.48502   0.06661   0.74813   0.00000  Uiso   1.00
C515   C     0.53386   0.16961   0.65284   0.00000  Uiso   1.00
C516   C     0.60917   0.12668   0.52262   0.00000  Uiso   1.00
C517   C     0.55306   0.16644   0.59693   0.00000  Uiso   1.00
C518   C     0.40236   0.19709   0.92198   0.00000  Uiso   1.00
C519   C     0.40064   0.22083   0.96989   0.00000  Uiso   1.00
C520   C     0.44159   0.21330   0.99974   0.00000  Uiso   1.00
Cu521  Cu    0.44043   0.16105   0.74435   0.00000  Uiso   1.00
Cu522  Cu    0.55957   0.17228   0.75564   0.00000  Uiso   1.00
H523   H     0.63449   0.13431   0.59594   0.00000  Uiso   1.00
H524   H     0.43107   0.32017   0.74295   0.00000  Uiso   1.00
H525   H     0.33696   0.20582   0.78964   0.00000  Uiso   1.00
H526   H     0.66302   0.12748   0.71039   0.00000  Uiso   1.00
H527   H     0.59258   0.07966   0.93481   0.00000  Uiso   1.00
H528   H     0.47337   0.19315   0.58752   0.00000  Uiso   1.00
H529   H     0.37479   0.20836   0.89755   0.00000  Uiso   1.00
H530   H     0.37065   0.24861   0.98234   0.00000  Uiso   1.00
H531   H     0.56878   0.01317   0.75735   0.00000  Uiso   1.00
N532   N     0.64908   0.18074   0.76416   0.00000  Uiso   1.00
N533   N     0.35092   0.15259   0.73584   0.00000  Uiso   1.00
O534   O     0.46131   0.23807   0.74633   0.00000  Uiso   1.00
O535   O     0.56191   0.24755   0.75586   0.00000  Uiso   1.00
O536   O     0.42515   0.15960   0.81839   0.00000  Uiso   1.00
O537   O     0.52575   0.16908   0.82793   0.00000  Uiso   1.00
O538   O     0.43809   0.08578   0.74413   0.00000  Uiso   1.00
O539   O     0.53869   0.09526   0.75367   0.00000  Uiso   1.00
O540   O     0.47425   0.16425   0.67207   0.00000  Uiso   1.00
O541   O     0.57485   0.17373   0.68160   0.00000  Uiso   1.00
F542   F     0.65423   0.09938   0.50231   0.00000  Uiso   1.00
F543   F     0.44594   0.24635   0.54067   0.00000  Uiso   1.00
C544   C     0.49727   0.06369   0.88620   0.00000  Uiso   1.00
C545   C     0.43088   0.03143   0.90655   0.00000  Uiso   1.00
H546   H     0.42687   0.01749   0.94577   0.00000  Uiso   1.00
H547   H     0.39525   0.05529   0.90746   0.00000  Uiso   1.00
H548   H     0.42076   0.32987   0.88112   0.00000  Uiso   1.00
H549   H     0.50086   0.07636   0.84722   0.00000  Uiso   1.00
H550   H     0.53006   0.03652   0.88198   0.00000  Uiso   1.00
C551   C     0.84836   0.26673   0.75169   0.00000  Uiso   1.00
C552   C     0.81369   0.17600   0.98459   0.00000  Uiso   1.00
C553   C     0.81340   0.14985   0.93608   0.00000  Uiso   1.00
C554   C     0.85382   0.16463   0.51522   0.00000  Uiso   1.00
C555   C     0.89911   0.13441   0.99422   0.00000  Uiso   1.00
C556   C     0.89580   0.10729   0.94794   0.00000  Uiso   1.00
C557   C     0.84850   0.10972   0.92204   0.00000  Uiso   1.00
C558   C     0.84680   0.17828   0.56747   0.00000  Uiso   1.00
C559   C     0.93674   0.14361   0.57361   0.00000  Uiso   1.00
C560   C     0.77878   0.16534   0.90309   0.00000  Uiso   1.00
C561   C     0.85679   0.32270   0.75262   0.00000  Uiso   1.00
C562   C     0.79920   0.16241   0.84714   0.00000  Uiso   1.00
C563   C     0.80977   0.01064   0.74756   0.00000  Uiso   1.00
C564   C     0.81836   0.06661   0.74813   0.00000  Uiso   1.00
C565   C     0.86719   0.16961   0.65284   0.00000  Uiso   1.00
C566   C     0.94251   0.12668   0.52262   0.00000  Uiso   1.00
C567   C     0.88639   0.16644   0.59693   0.00000  Uiso   1.00
C568   C     0.73569   0.19709   0.92198   0.00000  Uiso   1.00
C569   C     0.73397   0.22083   0.96989   0.00000  Uiso   1.00
C570   C     0.77492   0.21330   0.99974   0.00000  Uiso   1.00
Cu571  Cu    0.77377   0.16105   0.74435   0.00000  Uiso   1.00
Cu572  Cu    0.89290   0.17228   0.75564   0.00000  Uiso   1.00
H573   H     0.96783   0.13431   0.59594   0.00000  Uiso   1.00
H574   H     0.76440   0.32017   0.74295   0.00000  Uiso   1.00
H575   H     0.67029   0.20582   0.78964   0.00000  Uiso   1.00
H576   H     0.99636   0.12748   0.71039   0.00000  Uiso   1.00
H577   H     0.92591   0.07966   0.93481   0.00000  Uiso   1.00
H578   H     0.80670   0.19315   0.58752   0.00000  Uiso   1.00
H579   H     0.70812   0.20836   0.89755   0.00000  Uiso   1.00
H580   H     0.70398   0.24861   0.98234   0.00000  Uiso   1.00
H581   H     0.90212   0.01317   0.75735   0.00000  Uiso   1.00
N582   N     0.98241   0.18074   0.76416   0.00000  Uiso   1.00
N583   N     0.68426   0.15259   0.73584   0.00000  Uiso   1.00
O584   O     0.79464   0.23807   0.74633   0.00000  Uiso   1.00
O585   O     0.89524   0.24755   0.75586   0.00000  Uiso   1.00
O586   O     0.75848   0.15960   0.81839   0.00000  Uiso   1.00
O587   O     0.85908   0.16908   0.82793   0.00000  Uiso   1.00
O588   O     0.77142   0.08578   0.74413   0.00000  Uiso   1.00
O589   O     0.87203   0.09526   0.75367   0.00000  Uiso   1.00
O590   O     0.80758   0.16425   0.67207   0.00000  Uiso   1.00
O591   O     0.90819   0.17373   0.68160   0.00000  Uiso   1.00
F592   F     0.98756   0.09938   0.50231   0.00000  Uiso   1.00
F593   F     0.77927   0.24635   0.54067   0.00000  Uiso   1.00
C594   C     0.83061   0.06369   0.88620   0.00000  Uiso   1.00
C595   C     0.76421   0.03143   0.90655   0.00000  Uiso   1.00
H596   H     0.76020   0.01749   0.94577   0.00000  Uiso   1.00
H597   H     0.72858   0.05529   0.90746   0.00000  Uiso   1.00
H598   H     0.75410   0.32987   0.88112   0.00000  Uiso   1.00
H599   H     0.83420   0.07636   0.84722   0.00000  Uiso   1.00
H600   H     0.86339   0.03652   0.88198   0.00000  Uiso   1.00
C601   C     0.18169   0.60006   0.75169   0.00000  Uiso   1.00
C602   C     0.14703   0.50933   0.98459   0.00000  Uiso   1.00
C603   C     0.14673   0.48318   0.93608   0.00000  Uiso   1.00
C604   C     0.18715   0.49797   0.51522   0.00000  Uiso   1.00
C605   C     0.23244   0.46775   0.99422   0.00000  Uiso   1.00
C606   C     0.22914   0.44063   0.94794   0.00000  Uiso   1.00
C607   C     0.18183   0.44305   0.92204   0.00000  Uiso   1.00
C608   C     0.18013   0.51161   0.56747   0.00000  Uiso   1.00
C609   C     0.27008   0.47694   0.57361   0.00000  Uiso   1.00
C610   C     0.11212   0.49867   0.90309   0.00000  Uiso   1.00
C611   C     0.19013   0.65603   0.75262   0.00000  Uiso   1.00
C612   C     0.13253   0.49575   0.84714   0.00000  Uiso   1.00
C613   C     0.14311   0.34397   0.74756   0.00000  Uiso   1.00
C614   C     0.15169   0.39994   0.74813   0.00000  Uiso   1.00
C615   C     0.20053   0.50295   0.65284   0.00000  Uiso   1.00
C616   C     0.27584   0.46002   0.52262   0.00000  Uiso   1.00
C617   C     0.21972   0.49977   0.59693   0.00000  Uiso   1.00
C618   C     0.06903   0.53043   0.92198   0.00000  Uiso   1.00
C619   C     0.06730   0.55416   0.96989   0.00000  Uiso   1.00
C620   C     0.10825   0.54664   0.99974   0.00000  Uiso   1.00
Cu621  Cu    0.10710   0.49439   0.74435   0.00000  Uiso   1.00
Cu622  Cu    0.22623   0.50561   0.75564   0.00000  Uiso   1.00
H623   H     0.30116   0.46764   0.59594   0.00000  Uiso   1.00
H624   H     0.09773   0.65350   0.74295   0.00000  Uiso   1.00
H625   H     0.00362   0.53916   0.78964   0.00000  Uiso   1.00
H626   H     0.32969   0.46081   0.71039   0.00000  Uiso   1.00
H627   H     0.25925   0.41299   0.93481   0.00000  Uiso   1.00
H628   H     0.14003   0.52648   0.58752   0.00000  Uiso   1.00
H629   H     0.04146   0.54169   0.89755   0.00000  Uiso   1.00
H630   H     0.03731   0.58195   0.98234   0.00000  Uiso   1.00
H631   H     0.23545   0.34651   0.75735   0.00000  Uiso   1.00
N632   N     0.31574   0.51407   0.76416   0.00000  Uiso   1.00
N633   N     0.01759   0.48593   0.73584   0.00000  Uiso   1.00
O634   O     0.12797   0.57141   0.74633   0.00000  Uiso   1.00
O635   O     0.22858   0.58089   0.75586   0.00000  Uiso   1.00
O636   O     0.09181   0.49293   0.81839   0.00000  Uiso   1.00
O637   O     0.19242   0.50241   0.82793   0.00000  Uiso   1.00
O638   O     0.10476   0.41911   0.74413   0.00000  Uiso   1.00
O639   O     0.20536   0.42859   0.75367   0.00000  Uiso   1.00
O640   O     0.14092   0.49759   0.67207   0.00000  Uiso   1.00
O641   O     0.24152   0.50707   0.68160   0.00000  Uiso   1.00
F642   F     0.32089   0.43271   0.50231   0.00000  Uiso   1.00
F643   F     0.11261   0.57969   0.54067   0.00000  Uiso   1.00
C644   C     0.16394   0.39702   0.88620   0.00000  Uiso   1.00
C645   C     0.09754   0.36476   0.90655   0.00000  Uiso   1.00
H646   H     0.09353   0.35082   0.94577   0.00000  Uiso   1.00
H647   H     0.06192   0.38863   0.90746   0.00000  Uiso   1.00
H648   H     0.08743   0.66320   0.88112   0.00000  Uiso   1.00
H649   H     0.16753   0.40969   0.84722   0.00000  Uiso   1.00
H650   H     0.19673   0.36985   0.88198   0.00000  Uiso   1.00
C651   C     0.51503   0.60006   0.75169   0.00000  Uiso   1.00
C652   C     0.48036   0.50933   0.98459   0.00000  Uiso   1.00
C653   C     0.48006   0.48318   0.93608   0.00000  Uiso   1.00
C654   C     0.52048   0.49797   0.51522   0.00000  Uiso   1.00
C655   C     0.56578   0.46775   0.99422   0.00000  Uiso   1.00
C656   C     0.56247   0.44063   0.94794   0.00000  Uiso   1.00
C657   C     0.51517   0.44305   0.92204   0.00000  Uiso   1.00
C658   C     0.51346   0.51161   0.56747   0.00000  Uiso   1.00
C659   C     0.60341   0.47694   0.57361   0.00000  Uiso   1.00
C660   C     0.44545   0.49867   0.90309   0.00000  Uiso   1.00
C661   C     0.52346   0.65603   0.75262   0.00000  Uiso   1.00
C662   C     0.46587   0.49575   0.84714   0.00000  Uiso   1.00
C663   C     0.47644   0.34397   0.74756   0.00000  Uiso   1.00
C664   C     0.48502   0.39994   0.74813   0.00000  Uiso   1.00
C665   C     0.53386   0.50295   0.65284   0.00000  Uiso   1.00
C666   C     0.60917   0.46002   0.52262   0.00000  Uiso   1.00
C667   C     0.55306   0.49977   0.59693   0.00000  Uiso   1.00
C668   C     0.40236   0.53043   0.92198   0.00000  Uiso   1.00
C669   C     0.40064   0.55416   0.96989   0.00000  Uiso   1.00
C670   C     0.44159   0.54664   0.99974   0.00000  Uiso   1.00
Cu671  Cu    0.44043   0.49439   0.74435   0.00000  Uiso   1.00
Cu672  Cu    0.55957   0.50561   0.75564   0.00000  Uiso   1.00
H673   H     0.63449   0.46764   0.59594   0.00000  Uiso   1.00
H674   H     0.43107   0.65350   0.74295   0.00000  Uiso   1.00
H675   H     0.33696   0.53916   0.78964   0.00000  Uiso   1.00
H676   H     0.66302   0.46081   0.71039   0.00000  Uiso   1.00
H677   H     0.59258   0.41299   0.93481   0.00000  Uiso   1.00
H678   H     0.47337   0.52648   0.58752   0.00000  Uiso   1.00
H679   H     0.37479   0.54169   0.89755   0.00000  Uiso   1.00
H680   H     0.37065   0.58195   0.98234   0.00000  Uiso   1.00
H681   H     0.56878   0.34651   0.75735   0.00000  Uiso   1.00
N682   N     0.64908   0.51407   0.76416   0.00000  Uiso   1.00
N683   N     0.35092   0.48593   0.73584   0.00000  Uiso   1.00
O684   O     0.46131   0.57141   0.74633   0.00000  Uiso   1.00
O685   O     0.56191   0.58089   0.75586   0.00000  Uiso   1.00
O686   O     0.42515   0.49293   0.81839   0.00000  Uiso   1.00
O687   O     0.52575   0.50241   0.82793   0.00000  Uiso   1.00
O688   O     0.43809   0.41911   0.74413   0.00000  Uiso   1.00
O689   O     0.53869   0.42859   0.75367   0.00000  Uiso   1.00
O690   O     0.47425   0.49759   0.67207   0.00000  Uiso   1.00
O691   O     0.57485   0.50707   0.68160   0.00000  Uiso   1.00
F692   F     0.65423   0.43271   0.50231   0.00000  Uiso   1.00
F693   F     0.44594   0.57969   0.54067   0.00000  Uiso   1.00
C694   C     0.49727   0.39702   0.88620   0.00000  Uiso   1.00
C695   C     0.43088   0.36476   0.90655   0.00000  Uiso   1.00
H696   H     0.42687   0.35082   0.94577   0.00000  Uiso   1.00
H697   H     0.39525   0.38863   0.90746   0.00000  Uiso   1.00
H698   H     0.42076   0.66320   0.88112   0.00000  Uiso   1.00
H699   H     0.50086   0.40969   0.84722   0.00000  Uiso   1.00
H700   H     0.53006   0.36985   0.88198   0.00000  Uiso   1.00
C701   C     0.84836   0.60006   0.75169   0.00000  Uiso   1.00
C702   C     0.81369   0.50933   0.98459   0.00000  Uiso   1.00
C703   C     0.81340   0.48318   0.93608   0.00000  Uiso   1.00
C704   C     0.85382   0.49797   0.51522   0.00000  Uiso   1.00
C705   C     0.89911   0.46775   0.99422   0.00000  Uiso   1.00
C706   C     0.89580   0.44063   0.94794   0.00000  Uiso   1.00
C707   C     0.84850   0.44305   0.92204   0.00000  Uiso   1.00
C708   C     0.84680   0.51161   0.56747   0.00000  Uiso   1.00
C709   C     0.93674   0.47694   0.57361   0.00000  Uiso   1.00
C710   C     0.77878   0.49867   0.90309   0.00000  Uiso   1.00
C711   C     0.85679   0.65603   0.75262   0.00000  Uiso   1.00
C712   C     0.79920   0.49575   0.84714   0.00000  Uiso   1.00
C713   C     0.80977   0.34397   0.74756   0.00000  Uiso   1.00
C714   C     0.81836   0.39994   0.74813   0.00000  Uiso   1.00
C715   C     0.86719   0.50295   0.65284   0.00000  Uiso   1.00
C716   C     0.94251   0.46002   0.52262   0.00000  Uiso   1.00
C717   C     0.88639   0.49977   0.59693   0.00000  Uiso   1.00
C718   C     0.73569   0.53043   0.92198   0.00000  Uiso   1.00
C719   C     0.73397   0.55416   0.96989   0.00000  Uiso   1.00
C720   C     0.77492   0.54664   0.99974   0.00000  Uiso   1.00
Cu721  Cu    0.77377   0.49439   0.74435   0.00000  Uiso   1.00
Cu722  Cu    0.89290   0.50561   0.75564   0.00000  Uiso   1.00
H723   H     0.96783   0.46764   0.59594   0.00000  Uiso   1.00
H724   H     0.76440   0.65350   0.74295   0.00000  Uiso   1.00
H725   H     0.67029   0.53916   0.78964   0.00000  Uiso   1.00
H726   H     0.99636   0.46081   0.71039   0.00000  Uiso   1.00
H727   H     0.92591   0.41299   0.93481   0.00000  Uiso   1.00
H728   H     0.80670   0.52648   0.58752   0.00000  Uiso   1.00
H729   H     0.70812   0.54169   0.89755   0.00000  Uiso   1.00
H730   H     0.70398   0.58195   0.98234   0.00000  Uiso   1.00
H731   H     0.90212   0.34651   0.75735   0.00000  Uiso   1.00
N732   N     0.98241   0.51407   0.76416   0.00000  Uiso   1.00
N733   N     0.68426   0.48593   0.73584   0.00000  Uiso   1.00
O734   O     0.79464   0.57141   0.74633   0.00000  Uiso   1.00
O735   O     0.89524   0.58089   0.75586   0.00000  Uiso   1.00
O736   O     0.75848   0.49293   0.81839   0.00000  Uiso   1.00
O737   O     0.85908   0.50241   0.82793   0.00000  Uiso   1.00
O738   O     0.77142   0.41911   0.74413   0.00000  Uiso   1.00
O739   O     0.87203   0.42859   0.75367   0.00000  Uiso   1.00
O740   O     0.80758   0.49759   0.67207   0.00000  Uiso   1.00
O741   O     0.90819   0.50707   0.68160   0.00000  Uiso   1.00
F742   F     0.98756   0.43271   0.50231   0.00000  Uiso   1.00
F743   F     0.77927   0.57969   0.54067   0.00000  Uiso   1.00
C744   C     0.83061   0.39702   0.88620   0.00000  Uiso   1.00
C745   C     0.76421   0.36476   0.90655   0.00000  Uiso   1.00
H746   H     0.76020   0.35082   0.94577   0.00000  Uiso   1.00
H747   H     0.72858   0.38863   0.90746   0.00000  Uiso   1.00
H748   H     0.75410   0.66320   0.88112   0.00000  Uiso   1.00
H749   H     0.83420   0.40969   0.84722   0.00000  Uiso   1.00
H750   H     0.86339   0.36985   0.88198   0.00000  Uiso   1.00
C751   C     0.18169   0.93339   0.75169   0.00000  Uiso   1.00
C752   C     0.14703   0.84267   0.98459   0.00000  Uiso   1.00
C753   C     0.14673   0.81652   0.93608   0.00000  Uiso   1.00
C754   C     0.18715   0.83130   0.51522   0.00000  Uiso   1.00
C755   C     0.23244   0.80108   0.99422   0.00000  Uiso   1.00
C756   C     0.22914   0.77396   0.94794   0.00000  Uiso   1.00
C757   C     0.18183   0.77639   0.92204   0.00000  Uiso   1.00
C758   C     0.18013   0.84494   0.56747   0.00000  Uiso   1.00
C759   C     0.27008   0.81027   0.57361   0.00000  Uiso   1.00
C760   C     0.11212   0.83200   0.90309   0.00000  Uiso   1.00
C761   C     0.19013   0.98936   0.75262   0.00000  Uiso   1.00
C762   C     0.13253   0.82908   0.84714   0.00000  Uiso   1.00
C763   C     0.14311   0.67731   0.74756   0.00000  Uiso   1.00
C764   C     0.15169   0.73327   0.74813   0.00000  Uiso   1.00
C765   C     0.20053   0.83628   0.65284   0.00000  Uiso   1.00
C766   C     0.27584   0.79335   0.52262   0.00000  Uiso   1.00
C767   C     0.21972   0.83311   0.59693   0.00000  Uiso   1.00
C768   C     0.06903   0.86376   0.92198   0.00000  Uiso   1.00
C769   C     0.06730   0.88749   0.96989   0.00000  Uiso   1.00
C770   C     0.10825   0.87997   0.99974   0.00000  Uiso   1.00
Cu771  Cu    0.10710   0.82772   0.74435   0.00000  Uiso   1.00
Cu772  Cu    0.22623   0.83895   0.75564   0.00000  Uiso   1.00
H773   H     0.30116   0.80098   0.59594   0.00000  Uiso   1.00
H774   H     0.09773   0.98684   0.74295   0.00000  Uiso   1.00
H775   H     0.00362   0.87249   0.78964   0.00000  Uiso   1.00
H776   H     0.32969   0.79415   0.71039   0.00000  Uiso   1.00
H777   H     0.25925   0.74632   0.93481   0.00000  Uiso   1.00
H778   H     0.14003   0.85981   0.58752   0.00000  Uiso   1.00
H779   H     0.04146   0.87503   0.89755   0.00000  Uiso   1.00
H780   H     0.03731   0.91528   0.98234   0.00000  Uiso   1.00
H781   H     0.23545   0.67984   0.75735   0.00000  Uiso   1.00
N782   N     0.31574   0.84741   0.76416   0.00000  Uiso   1.00
N783   N     0.01759   0.81926   0.73584   0.00000  Uiso   1.00
O784   O     0.12797   0.90474   0.74633   0.00000  Uiso   1.00
O785   O     0.22858   0.91422   0.75586   0.00000  Uiso   1.00
O786   O     0.09181   0.82627   0.81839   0.00000  Uiso   1.00
O787   O     0.19242   0.83575   0.82793   0.00000  Uiso   1.00
O788   O     0.10476   0.75245   0.74413   0.00000  Uiso   1.00
O789   O     0.20536   0.76193   0.75367   0.00000  Uiso   1.00
O790   O     0.14092   0.83092   0.67207   0.00000  Uiso   1.00
O791   O     0.24152   0.84040   0.68160   0.00000  Uiso   1.00
F792   F     0.32089   0.76605   0.50231   0.00000  Uiso   1.00
F793   F     0.11261   0.91302   0.54067   0.00000  Uiso   1.00
C794   C     0.16394   0.73035   0.88620   0.00000  Uiso   1.00
C795   C     0.09754   0.69809   0.90655   0.00000  Uiso   1.00
H796   H     0.09353   0.68416   0.94577   0.00000  Uiso   1.00
H797   H     0.06192   0.72196   0.90746   0.00000  Uiso   1.00
H798   H     0.08743   0.99653   0.88112   0.00000  Uiso   1.00
H799   H     0.16753   0.74302   0.84722   0.00000  Uiso   1.00
H800   H     0.19673   0.70318   0.88198   0.00000  Uiso   1.00
C801   C     0.51503   0.93339   0.75169   0.00000  Uiso   1.00
C802   C     0.48036   0.84267   0.98459   0.00000  Uiso   1.00
C803   C     0.48006   0.81652   0.93608   0.00000  Uiso   1.00
C804   C     0.52048   0.83130   0.51522   0.00000  Uiso   1.00
C805   C     0.56578   0.80108   0.99422   0.00000  Uiso   1.00
C806   C     0.56247   0.77396   0.94794   0.00000  Uiso   1.00
C807   C     0.51517   0.77639   0.92204   0.00000  Uiso   1.00
C808   C     0.51346   0.84494   0.56747   0.00000  Uiso   1.00
C809   C     0.60341   0.81027   0.57361   0.00000  Uiso   1.00
C810   C     0.44545   0.83200   0.90309   0.00000  Uiso   1.00
C811   C     0.52346   0.98936   0.75262   0.00000  Uiso   1.00
C812   C     0.46587   0.82908   0.84714   0.00000  Uiso   1.00
C813   C     0.47644   0.67731   0.74756   0.00000  Uiso   1.00
C814   C     0.48502   0.73327   0.74813   0.00000  Uiso   1.00
C815   C     0.53386   0.83628   0.65284   0.00000  Uiso   1.00
C816   C     0.60917   0.79335   0.52262   0.00000  Uiso   1.00
C817   C     0.55306   0.83311   0.59693   0.00000  Uiso   1.00
C818   C     0.40236   0.86376   0.92198   0.00000  Uiso   1.00
C819   C     0.40064   0.88749   0.96989   0.00000  Uiso   1.00
C820   C     0.44159   0.87997   0.99974   0.00000  Uiso   1.00
Cu821  Cu    0.44043   0.82772   0.74435   0.00000  Uiso   1.00
Cu822  Cu    0.55957   0.83895   0.75564   0.00000  Uiso   1.00
H823   H     0.63449   0.80098   0.59594   0.00000  Uiso   1.00
H824   H     0.43107   0.98684   0.74295   0.00000  Uiso   1.00
H825   H     0.33696   0.87249   0.78964   0.00000  Uiso   1.00
H826   H     0.66302   0.79415   0.71039   0.00000  Uiso   1.00
H827   H     0.59258   0.74632   0.93481   0.00000  Uiso   1.00
H828   H     0.47337   0.85981   0.58752   0.00000  Uiso   1.00
H829   H     0.37479   0.87503   0.89755   0.00000  Uiso   1.00
H830   H     0.37065   0.91528   0.98234   0.00000  Uiso   1.00
H831   H     0.56878   0.67984   0.75735   0.00000  Uiso   1.00
N832   N     0.64908   0.84741   0.76416   0.00000  Uiso   1.00
N833   N     0.35092   0.81926   0.73584   0.00000  Uiso   1.00
O834   O     0.46131   0.90474   0.74633   0.00000  Uiso   1.00
O835   O     0.56191   0.91422   0.75586   0.00000  Uiso   1.00
O836   O     0.42515   0.82627   0.81839   0.00000  Uiso   1.00
O837   O     0.52575   0.83575   0.82793   0.00000  Uiso   1.00
O838   O     0.43809   0.75245   0.74413   0.00000  Uiso   1.00
O839   O     0.53869   0.76193   0.75367   0.00000  Uiso   1.00
O840   O     0.47425   0.83092   0.67207   0.00000  Uiso   1.00
O841   O     0.57485   0.84040   0.68160   0.00000  Uiso   1.00
F842   F     0.65423   0.76605   0.50231   0.00000  Uiso   1.00
F843   F     0.44594   0.91302   0.54067   0.00000  Uiso   1.00
C844   C     0.49727   0.73035   0.88620   0.00000  Uiso   1.00
C845   C     0.43088   0.69809   0.90655   0.00000  Uiso   1.00
H846   H     0.42687   0.68416   0.94577   0.00000  Uiso   1.00
H847   H     0.39525   0.72196   0.90746   0.00000  Uiso   1.00
H848   H     0.42076   0.99653   0.88112   0.00000  Uiso   1.00
H849   H     0.50086   0.74302   0.84722   0.00000  Uiso   1.00
H850   H     0.53006   0.70318   0.88198   0.00000  Uiso   1.00
C851   C     0.84836   0.93339   0.75169   0.00000  Uiso   1.00
C852   C     0.81369   0.84267   0.98459   0.00000  Uiso   1.00
C853   C     0.81340   0.81652   0.93608   0.00000  Uiso   1.00
C854   C     0.85382   0.83130   0.51522   0.00000  Uiso   1.00
C855   C     0.89911   0.80108   0.99422   0.00000  Uiso   1.00
C856   C     0.89580   0.77396   0.94794   0.00000  Uiso   1.00
C857   C     0.84850   0.77639   0.92204   0.00000  Uiso   1.00
C858   C     0.84680   0.84494   0.56747   0.00000  Uiso   1.00
C859   C     0.93674   0.81027   0.57361   0.00000  Uiso   1.00
C860   C     0.77878   0.83200   0.90309   0.00000  Uiso   1.00
C861   C     0.85679   0.98936   0.75262   0.00000  Uiso   1.00
C862   C     0.79920   0.82908   0.84714   0.00000  Uiso   1.00
C863   C     0.80977   0.67731   0.74756   0.00000  Uiso   1.00
C864   C     0.81836   0.73327   0.74813   0.00000  Uiso   1.00
C865   C     0.86719   0.83628   0.65284   0.00000  Uiso   1.00
C866   C     0.94251   0.79335   0.52262   0.00000  Uiso   1.00
C867   C     0.88639   0.83311   0.59693   0.00000  Uiso   1.00
C868   C     0.73569   0.86376   0.92198   0.00000  Uiso   1.00
C869   C     0.73397   0.88749   0.96989   0.00000  Uiso   1.00
C870   C     0.77492   0.87997   0.99974   0.00000  Uiso   1.00
Cu871  Cu    0.77377   0.82772   0.74435   0.00000  Uiso   1.00
Cu872  Cu    0.89290   0.83895   0.75564   0.00000  Uiso   1.00
H873   H     0.96783   0.80098   0.59594   0.00000  Uiso   1.00
H874   H     0.76440   0.98684   0.74295   0.00000  Uiso   1.00
H875   H     0.67029   0.87249   0.78964   0.00000  Uiso   1.00
H876   H     0.99636   0.79415   0.71039   0.00000  Uiso   1.00
H877   H     0.92591   0.74632   0.93481   0.00000  Uiso   1.00
H878   H     0.80670   0.85981   0.58752   0.00000  Uiso   1.00
H879   H     0.70812   0.87503   0.89755   0.00000  Uiso   1.00
H880   H     0.70398   0.91528   0.98234   0.00000  Uiso   1.00
H881   H     0.90212   0.67984   0.75735   0.00000  Uiso   1.00
N882   N     0.98241   0.84741   0.76416   0.00000  Uiso   1.00
N883   N     0.68426   0.81926   0.73584   0.00000  Uiso   1.00
O884   O     0.79464   0.90474   0.74633   0.00000  Uiso   1.00
O885   O     0.89524   0.91422   0.75586   0.00000  Uiso   1.00
O886   O     0.75848   0.82627   0.81839   0.00000  Uiso   1.00
O887   O     0.85908   0.83575   0.82793   0.00000  Uiso   1.00
O888   O     0.77142   0.75245   0.74413   0.00000  Uiso   1.00
O889   O     0.87203   0.76193   0.75367   0.00000  Uiso   1.00
O890   O     0.80758   0.83092   0.67207   0.00000  Uiso   1.00
O891   O     0.90819   0.84040   0.68160   0.00000  Uiso   1.00
F892   F     0.98756   0.76605   0.50231   0.00000  Uiso   1.00
F893   F     0.77927   0.91302   0.54067   0.00000  Uiso   1.00
C894   C     0.83061   0.73035   0.88620   0.00000  Uiso   1.00
C895   C     0.76421   0.69809   0.90655   0.00000  Uiso   1.00
H896   H     0.76020   0.68416   0.94577   0.00000  Uiso   1.00
H897   H     0.72858   0.72196   0.90746   0.00000  Uiso   1.00
H898   H     0.75410   0.99653   0.88112   0.00000  Uiso   1.00
H899   H     0.83420   0.74302   0.84722   0.00000  Uiso   1.00
H900   H     0.86339   0.70318   0.88198   0.00000  Uiso   1.00
loop_
_geom_bond_atom_site_label_1
_geom_bond_atom_site_label_2
_geom_bond_distance
_geom_bond_site_symmetry_2
_ccdc_geom_bond_type
C1     C11     1.426   .     S
C1     O34     1.291   .     A
C1     O35     1.285   .     A
C2     C3      1.427   .     A
C2     C20     1.426   .     A
C2     C454    1.426   .     S
C3     C10     1.423   .     A
C3     C7      1.428   .     A
C4     C8      1.404   .     A
C4     C452    1.426   1_554 S
C4     C455    1.418   1_554 S
C5     C6      1.393   .     A
C5     C454    1.418   .     S
C5     C466    1.409   .     S
C6     C7      1.398   .     A
C6     H27     1.084   .     S
C7     C44     1.523   .     S
C8     C17     1.399   .     A
C8     H28     1.076   .     S
C9     C17     1.397   .     A
C9     C16     1.394   .     A
C9     H23     1.083   .     S
C10    C18     1.399   .     A
C10    C12     1.468   .     S
C11    C163    1.327   .     S
C11    H181    1.088   .     S
C12    O36     1.300   .     A
C12    O37     1.297   .     A
C13    C14     1.426   .     S
C13    C311    1.327   1_545 S
C13    H324    1.088   1_545 S
C14    O38     1.285   .     A
C14    O39     1.292   .     A
C15    O41     1.301   .     A
C15    O40     1.294   .     A
C15    C17     1.465   .     S
C16    F42     1.359   .     S
C16    C455    1.409   1_554 S
C18    H29     1.084   .     S
C18    C19     1.383   .     A
C19    H30     1.083   .     S
C19    C20     1.390   .     A
C20    F493    1.355   .     S
Cu21   O40     1.915   .     S
Cu21   N33     2.019   .     S
Cu21   O36     1.936   .     S
Cu21   O34     1.954   .     S
Cu21   Cu22    2.688   .     S
Cu21   O38     1.949   .     S
Cu22   O37     1.915   .     S
Cu22   O35     1.949   .     S
Cu22   N32     2.019   .     S
Cu22   O39     1.954   .     S
Cu22   O41     1.936   .     S
H24    C163    1.088   .     S
H25    N132    1.029   1_455 S
H26    N83     1.029   .     S
H31    C311    1.088   1_545 S
N32    H75     1.029   .     S
N32    N83     1.287   .     S
N33    N132    1.287   1_455 S
N33    H126    1.029   1_455 S
F43    C470    1.355   1_554 S
C44    H49     1.095   .     S
C44    C45     1.528   .     S
C44    H50     1.112   .     S
C45    H47     1.110   .     S
C45    H46     1.111   .     S
C45    H348    1.111   1_545 S
H48    C195    1.111   .     S
C51    C61     1.426   .     S
C51    O84     1.291   .     A
C51    O85     1.285   .     A
C52    C53     1.427   .     A
C52    C70     1.426   .     A
C52    C504    1.426   .     S
C53    C60     1.423   .     A
C53    C57     1.428   .     A
C54    C58     1.404   .     A
C54    C502    1.426   1_554 S
C54    C505    1.418   1_554 S
C55    C56     1.393   .     A
C55    C504    1.418   .     S
C55    C516    1.409   .     S
C56    C57     1.398   .     A
C56    H77     1.084   .     S
C57    C94     1.523   .     S
C58    C67     1.399   .     A
C58    H78     1.076   .     S
C59    C67     1.397   .     A
C59    C66     1.394   .     A
C59    H73     1.083   .     S
C60    C68     1.399   .     A
C60    C62     1.468   .     S
C61    C213    1.327   .     S
C61    H231    1.088   .     S
C62    O86     1.300   .     A
C62    O87     1.297   .     A
C63    C64     1.426   .     S
C63    C361    1.327   1_545 S
C63    H374    1.088   1_545 S
C64    O88     1.285   .     A
C64    O89     1.292   .     A
C65    O91     1.301   .     A
C65    O90     1.294   .     A
C65    C67     1.465   .     S
C66    F92     1.359   .     S
C66    C505    1.409   1_554 S
C68    H79     1.084   .     S
C68    C69     1.383   .     A
C69    H80     1.083   .     S
C69    C70     1.390   .     A
C70    F543    1.355   .     S
Cu71   O90     1.915   .     S
Cu71   N83     2.019   .     S
Cu71   O86     1.936   .     S
Cu71   O84     1.954   .     S
Cu71   Cu72    2.688   .     S
Cu71   O88     1.949   .     S
Cu72   O87     1.915   .     S
Cu72   O85     1.949   .     S
Cu72   N82     2.019   .     S
Cu72   O89     1.954   .     S
Cu72   O91     1.936   .     S
H74    C213    1.088   .     S
H76    N133    1.029   .     S
H81    C361    1.088   1_545 S
N82    H125    1.029   .     S
N82    N133    1.287   .     S
F93    C520    1.355   1_554 S
C94    H99     1.095   .     S
C94    C95     1.528   .     S
C94    H100    1.112   .     S
C95    H97     1.110   .     S
C95    H96     1.111   .     S
C95    H398    1.111   1_545 S
H98    C245    1.111   .     S
C101   C111    1.426   .     S
C101   O134    1.291   .     A
C101   O135    1.285   .     A
C102   C103    1.427   .     A
C102   C120    1.426   .     A
C102   C554    1.426   .     S
C103   C110    1.423   .     A
C103   C107    1.428   .     A
C104   C108    1.404   .     A
C104   C552    1.426   1_554 S
C104   C555    1.418   1_554 S
C105   C106    1.393   .     A
C105   C554    1.418   .     S
C105   C566    1.409   .     S
C106   C107    1.398   .     A
C106   H127    1.084   .     S
C107   C144    1.523   .     S
C108   C117    1.399   .     A
C108   H128    1.076   .     S
C109   C117    1.397   .     A
C109   C116    1.394   .     A
C109   H123    1.083   .     S
C110   C118    1.399   .     A
C110   C112    1.468   .     S
C111   C263    1.327   .     S
C111   H281    1.088   .     S
C112   O136    1.300   .     A
C112   O137    1.297   .     A
C113   C114    1.426   .     S
C113   C411    1.327   1_545 S
C113   H424    1.088   1_545 S
C114   O138    1.285   .     A
C114   O139    1.292   .     A
C115   O141    1.301   .     A
C115   O140    1.294   .     A
C115   C117    1.465   .     S
C116   F142    1.359   .     S
C116   C555    1.409   1_554 S
C118   H129    1.084   .     S
C118   C119    1.383   .     A
C119   H130    1.083   .     S
C119   C120    1.390   .     A
C120   F593    1.355   .     S
Cu121  O140    1.915   .     S
Cu121  N133    2.019   .     S
Cu121  O136    1.936   .     S
Cu121  O134    1.954   .     S
Cu121  Cu122   2.688   .     S
Cu121  O138    1.949   .     S
Cu122  O137    1.915   .     S
Cu122  O135    1.949   .     S
Cu122  N132    2.019   .     S
Cu122  O139    1.954   .     S
Cu122  O141    1.936   .     S
H124   C263    1.088   .     S
H126   N33     1.029   1_655 S
H131   C411    1.088   1_545 S
N132   H25     1.029   1_655 S
N132   N33     1.287   1_655 S
F143   C570    1.355   1_554 S
C144   H149    1.095   .     S
C144   C145    1.528   .     S
C144   H150    1.112   .     S
C145   H147    1.110   .     S
C145   H146    1.111   .     S
C145   H448    1.111   1_545 S
H148   C295    1.111   .     S
C151   C161    1.426   .     S
C151   O184    1.291   .     A
C151   O185    1.285   .     A
C152   C153    1.427   .     A
C152   C170    1.426   .     A
C152   C604    1.426   .     S
C153   C160    1.423   .     A
C153   C157    1.428   .     A
C154   C158    1.404   .     A
C154   C602    1.426   1_554 S
C154   C605    1.418   1_554 S
C155   C156    1.393   .     A
C155   C604    1.418   .     S
C155   C616    1.409   .     S
C156   C157    1.398   .     A
C156   H177    1.084   .     S
C157   C194    1.523   .     S
C158   C167    1.399   .     A
C158   H178    1.076   .     S
C159   C167    1.397   .     A
C159   C166    1.394   .     A
C159   H173    1.083   .     S
C160   C168    1.399   .     A
C160   C162    1.468   .     S
C161   C313    1.327   .     S
C161   H331    1.088   .     S
C162   O186    1.300   .     A
C162   O187    1.297   .     A
C163   C164    1.426   .     S
C164   O188    1.285   .     A
C164   O189    1.292   .     A
C165   O191    1.301   .     A
C165   O190    1.294   .     A
C165   C167    1.465   .     S
C166   F192    1.359   .     S
C166   C605    1.409   1_554 S
C168   H179    1.084   .     S
C168   C169    1.383   .     A
C169   H180    1.083   .     S
C169   C170    1.390   .     A
C170   F643    1.355   .     S
Cu171  O190    1.915   .     S
Cu171  N183    2.019   .     S
Cu171  O186    1.936   .     S
Cu171  O184    1.954   .     S
Cu171  Cu172   2.688   .     S
Cu171  O188    1.949   .     S
Cu172  O187    1.915   .     S
Cu172  O185    1.949   .     S
Cu172  N182    2.019   .     S
Cu172  O189    1.954   .     S
Cu172  O191    1.936   .     S
H174   C313    1.088   .     S
H175   N282    1.029   1_455 S
H176   N233    1.029   .     S
N182   H225    1.029   .     S
N182   N233    1.287   .     S
N183   N282    1.287   1_455 S
N183   H276    1.029   1_455 S
F193   C620    1.355   1_554 S
C194   H199    1.095   .     S
C194   C195    1.528   .     S
C194   H200    1.112   .     S
C195   H197    1.110   .     S
C195   H196    1.111   .     S
H198   C345    1.111   .     S
C201   C211    1.426   .     S
C201   O234    1.291   .     A
C201   O235    1.285   .     A
C202   C203    1.427   .     A
C202   C220    1.426   .     A
C202   C654    1.426   .     S
C203   C210    1.423   .     A
C203   C207    1.428   .     A
C204   C208    1.404   .     A
C204   C652    1.426   1_554 S
C204   C655    1.418   1_554 S
C205   C206    1.393   .     A
C205   C654    1.418   .     S
C205   C666    1.409   .     S
C206   C207    1.398   .     A
C206   H227    1.084   .     S
C207   C244    1.523   .     S
C208   C217    1.399   .     A
C208   H228    1.076   .     S
C209   C217    1.397   .     A
C209   C216    1.394   .     A
C209   H223    1.083   .     S
C210   C218    1.399   .     A
C210   C212    1.468   .     S
C211   C363    1.327   .     S
C211   H381    1.088   .     S
C212   O236    1.300   .     A
C212   O237    1.297   .     A
C213   C214    1.426   .     S
C214   O238    1.285   .     A
C214   O239    1.292   .     A
C215   O241    1.301   .     A
C215   O240    1.294   .     A
C215   C217    1.465   .     S
C216   F242    1.359   .     S
C216   C655    1.409   1_554 S
C218   H229    1.084   .     S
C218   C219    1.383   .     A
C219   H230    1.083   .     S
C219   C220    1.390   .     A
C220   F693    1.355   .     S
Cu221  O240    1.915   .     S
Cu221  N233    2.019   .     S
Cu221  O236    1.936   .     S
Cu221  O234    1.954   .     S
Cu221  Cu222   2.688   .     S
Cu221  O238    1.949   .     S
Cu222  O237    1.915   .     S
Cu222  O235    1.949   .     S
Cu222  N232    2.019   .     S
Cu222  O239    1.954   .     S
Cu222  O241    1.936   .     S
H224   C363    1.088   .     S
H226   N283    1.029   .     S
N232   H275    1.029   .     S
N232   N283    1.287   .     S
F243   C670    1.355   1_554 S
C244   H249    1.095   .     S
C244   C245    1.528   .     S
C244   H250    1.112   .     S
C245   H247    1.110   .     S
C245   H246    1.111   .     S
H248   C395    1.111   .     S
C251   C261    1.426   .     S
C251   O284    1.291   .     A
C251   O285    1.285   .     A
C252   C253    1.427   .     A
C252   C270    1.426   .     A
C252   C704    1.426   .     S
C253   C260    1.423   .     A
C253   C257    1.428   .     A
C254   C258    1.404   .     A
C254   C702    1.426   1_554 S
C254   C705    1.418   1_554 S
C255   C256    1.393   .     A
C255   C704    1.418   .     S
C255   C716    1.409   .     S
C256   C257    1.398   .     A
C256   H277    1.084   .     S
C257   C294    1.523   .     S
C258   C267    1.399   .     A
C258   H278    1.076   .     S
C259   C267    1.397   .     A
C259   C266    1.394   .     A
C259   H273    1.083   .     S
C260   C268    1.399   .     A
C260   C262    1.468   .     S
C261   C413    1.327   .     S
C261   H431    1.088   .     S
C262   O286    1.300   .     A
C262   O287    1.297   .     A
C263   C264    1.426   .     S
C264   O288    1.285   .     A
C264   O289    1.292   .     A
C265   O291    1.301   .     A
C265   O290    1.294   .     A
C265   C267    1.465   .     S
C266   F292    1.359   .     S
C266   C705    1.409   1_554 S
C268   H279    1.084   .     S
C268   C269    1.383   .     A
C269   H280    1.083   .     S
C269   C270    1.390   .     A
C270   F743    1.355   .     S
Cu271  O290    1.915   .     S
Cu271  N283    2.019   .     S
Cu271  O286    1.936   .     S
Cu271  O284    1.954   .     S
Cu271  Cu272   2.688   .     S
Cu271  O288    1.949   .     S
Cu272  O287    1.915   .     S
Cu272  O285    1.949   .     S
Cu272  N282    2.019   .     S
Cu272  O289    1.954   .     S
Cu272  O291    1.936   .     S
H274   C413    1.088   .     S
H276   N183    1.029   1_655 S
N282   H175    1.029   1_655 S
N282   N183    1.287   1_655 S
F293   C720    1.355   1_554 S
C294   H299    1.095   .     S
C294   C295    1.528   .     S
C294   H300    1.112   .     S
C295   H297    1.110   .     S
C295   H296    1.111   .     S
H298   C445    1.111   .     S
C301   C311    1.426   .     S
C301   O334    1.291   .     A
C301   O335    1.285   .     A
C302   C303    1.427   .     A
C302   C320    1.426   .     A
C302   C754    1.426   .     S
C303   C310    1.423   .     A
C303   C307    1.428   .     A
C304   C308    1.404   .     A
C304   C752    1.426   1_554 S
C304   C755    1.418   1_554 S
C305   C306    1.393   .     A
C305   C754    1.418   .     S
C305   C766    1.409   .     S
C306   C307    1.398   .     A
C306   H327    1.084   .     S
C307   C344    1.523   .     S
C308   C317    1.399   .     A
C308   H328    1.076   .     S
C309   C317    1.397   .     A
C309   C316    1.394   .     A
C309   H323    1.083   .     S
C310   C318    1.399   .     A
C310   C312    1.468   .     S
C311   C13     1.327   1_565 S
C311   H31     1.088   1_565 S
C312   O336    1.300   .     A
C312   O337    1.297   .     A
C313   C314    1.426   .     S
C314   O338    1.285   .     A
C314   O339    1.292   .     A
C315   O341    1.301   .     A
C315   O340    1.294   .     A
C315   C317    1.465   .     S
C316   F342    1.359   .     S
C316   C755    1.409   1_554 S
C318   H329    1.084   .     S
C318   C319    1.383   .     A
C319   H330    1.083   .     S
C319   C320    1.390   .     A
C320   F793    1.355   .     S
Cu321  O340    1.915   .     S
Cu321  N333    2.019   .     S
Cu321  O336    1.936   .     S
Cu321  O334    1.954   .     S
Cu321  Cu322   2.688   .     S
Cu321  O338    1.949   .     S
Cu322  O337    1.915   .     S
Cu322  O335    1.949   .     S
Cu322  N332    2.019   .     S
Cu322  O339    1.954   .     S
Cu322  O341    1.936   .     S
H324   C13     1.088   1_565 S
H325   N432    1.029   1_455 S
H326   N383    1.029   .     S
N332   H375    1.029   .     S
N332   N383    1.287   .     S
N333   N432    1.287   1_455 S
N333   H426    1.029   1_455 S
F343   C770    1.355   1_554 S
C344   H349    1.095   .     S
C344   C345    1.528   .     S
C344   H350    1.112   .     S
C345   H347    1.110   .     S
C345   H346    1.111   .     S
H348   C45     1.111   1_565 S
C351   C361    1.426   .     S
C351   O384    1.291   .     A
C351   O385    1.285   .     A
C352   C353    1.427   .     A
C352   C370    1.426   .     A
C352   C804    1.426   .     S
C353   C360    1.423   .     A
C353   C357    1.428   .     A
C354   C358    1.404   .     A
C354   C802    1.426   1_554 S
C354   C805    1.418   1_554 S
C355   C356    1.393   .     A
C355   C804    1.418   .     S
C355   C816    1.409   .     S
C356   C357    1.398   .     A
C356   H377    1.084   .     S
C357   C394    1.523   .     S
C358   C367    1.399   .     A
C358   H378    1.076   .     S
C359   C367    1.397   .     A
C359   C366    1.394   .     A
C359   H373    1.083   .     S
C360   C368    1.399   .     A
C360   C362    1.468   .     S
C361   C63     1.327   1_565 S
C361   H81     1.088   1_565 S
C362   O386    1.300   .     A
C362   O387    1.297   .     A
C363   C364    1.426   .     S
C364   O388    1.285   .     A
C364   O389    1.292   .     A
C365   O391    1.301   .     A
C365   O390    1.294   .     A
C365   C367    1.465   .     S
C366   F392    1.359   .     S
C366   C805    1.409   1_554 S
C368   H379    1.084   .     S
C368   C369    1.383   .     A
C369   H380    1.083   .     S
C369   C370    1.390   .     A
C370   F843    1.355   .     S
Cu371  O390    1.915   .     S
Cu371  N383    2.019   .     S
Cu371  O386    1.936   .     S
Cu371  O384    1.954   .     S
Cu371  Cu372   2.688   .     S
Cu371  O388    1.949   .     S
Cu372  O387    1.915   .     S
Cu372  O385    1.949   .     S
Cu372  N382    2.019   .     S
Cu372  O389    1.954   .     S
Cu372  O391    1.936   .     S
H374   C63     1.088   1_565 S
H376   N433    1.029   .     S
N382   H425    1.029   .     S
N382   N433    1.287   .     S
F393   C820    1.355   1_554 S
C394   H399    1.095   .     S
C394   C395    1.528   .     S
C394   H400    1.112   .     S
C395   H397    1.110   .     S
C395   H396    1.111   .     S
H398   C95     1.111   1_565 S
C401   C411    1.426   .     S
C401   O434    1.291   .     A
C401   O435    1.285   .     A
C402   C403    1.427   .     A
C402   C420    1.426   .     A
C402   C854    1.426   .     S
C403   C410    1.423   .     A
C403   C407    1.428   .     A
C404   C408    1.404   .     A
C404   C852    1.426   1_554 S
C404   C855    1.418   1_554 S
C405   C406    1.393   .     A
C405   C854    1.418   .     S
C405   C866    1.409   .     S
C406   C407    1.398   .     A
C406   H427    1.084   .     S
C407   C444    1.523   .     S
C408   C417    1.399   .     A
C408   H428    1.076   .     S
C409   C417    1.397   .     A
C409   C416    1.394   .     A
C409   H423    1.083   .     S
C410   C418    1.399   .     A
C410   C412    1.468   .     S
C411   C113    1.327   1_565 S
C411   H131    1.088   1_565 S
C412   O436    1.300   .     A
C412   O437    1.297   .     A
C413   C414    1.426   .     S
C414   O438    1.285   .     A
C414   O439    1.292   .     A
C415   O441    1.301   .     A
C415   O440    1.294   .     A
C415   C417    1.465   .     S
C416   F442    1.359   .     S
C416   C855    1.409   1_554 S
C418   H429    1.084   .     S
C418   C419    1.383   .     A
C419   H430    1.083   .     S
C419   C420    1.390   .     A
C420   F893    1.355   .     S
Cu421  O440    1.915   .     S
Cu421  N433    2.019   .     S
Cu421  O436    1.936   .     S
Cu421  O434    1.954   .     S
Cu421  Cu422   2.688   .     S
Cu421  O438    1.949   .     S
Cu422  O437    1.915   .     S
Cu422  O435    1.949   .     S
Cu422  N432    2.019   .     S
Cu422  O439    1.954   .     S
Cu422  O441    1.936   .     S
H424   C113    1.088   1_565 S
H426   N333    1.029   1_655 S
N432   H325    1.029   1_655 S
N432   N333    1.287   1_655 S
F443   C870    1.355   1_554 S
C444   H449    1.095   .     S
C444   C445    1.528   .     S
C444   H450    1.112   .     S
C445   H447    1.110   .     S
C445   H446    1.111   .     S
H448   C145    1.111   1_565 S
C451   C461    1.426   .     S
C451   O484    1.291   .     A
C451   O485    1.285   .     A
C452   C453    1.427   .     A
C452   C470    1.426   .     A
C452   C4      1.426   1_556 S
C453   C460    1.423   .     A
C453   C457    1.428   .     A
C454   C458    1.404   .     A
C455   C456    1.393   .     A
C455   C4      1.418   1_556 S
C455   C16     1.409   1_556 S
C456   C457    1.398   .     A
C456   H477    1.084   .     S
C457   C494    1.523   .     S
C458   C467    1.399   .     A
C458   H478    1.076   .     S
C459   C467    1.397   .     A
C459   C466    1.394   .     A
C459   H473    1.083   .     S
C460   C468    1.399   .     A
C460   C462    1.468   .     S
C461   C613    1.327   .     S
C461   H631    1.088   .     S
C462   O486    1.300   .     A
C462   O487    1.297   .     A
C463   C464    1.426   .     S
C463   C761    1.327   1_545 S
C463   H774    1.088   1_545 S
C464   O488    1.285   .     A
C464   O489    1.292   .     A
C465   O491    1.301   .     A
C465   O490    1.294   .     A
C465   C467    1.465   .     S
C466   F492    1.359   .     S
C468   H479    1.084   .     S
C468   C469    1.383   .     A
C469   H480    1.083   .     S
C469   C470    1.390   .     A
C470   F43     1.355   1_556 S
Cu471  O490    1.915   .     S
Cu471  N483    2.019   .     S
Cu471  O486    1.936   .     S
Cu471  O484    1.954   .     S
Cu471  Cu472   2.688   .     S
Cu471  O488    1.949   .     S
Cu472  O487    1.915   .     S
Cu472  O485    1.949   .     S
Cu472  N482    2.019   .     S
Cu472  O489    1.954   .     S
Cu472  O491    1.936   .     S
H474   C613    1.088   .     S
H475   N582    1.029   1_455 S
H476   N533    1.029   .     S
H481   C761    1.088   1_545 S
N482   H525    1.029   .     S
N482   N533    1.287   .     S
N483   N582    1.287   1_455 S
N483   H576    1.029   1_455 S
C494   H499    1.095   .     S
C494   C495    1.528   .     S
C494   H500    1.112   .     S
C495   H497    1.110   .     S
C495   H496    1.111   .     S
C495   H798    1.111   1_545 S
H498   C645    1.111   .     S
C501   C511    1.426   .     S
C501   O534    1.291   .     A
C501   O535    1.285   .     A
C502   C503    1.427   .     A
C502   C520    1.426   .     A
C502   C54     1.426   1_556 S
C503   C510    1.423   .     A
C503   C507    1.428   .     A
C504   C508    1.404   .     A
C505   C506    1.393   .     A
C505   C54     1.418   1_556 S
C505   C66     1.409   1_556 S
C506   C507    1.398   .     A
C506   H527    1.084   .     S
C507   C544    1.523   .     S
C508   C517    1.399   .     A
C508   H528    1.076   .     S
C509   C517    1.397   .     A
C509   C516    1.394   .     A
C509   H523    1.083   .     S
C510   C518    1.399   .     A
C510   C512    1.468   .     S
C511   C663    1.327   .     S
C511   H681    1.088   .     S
C512   O536    1.300   .     A
C512   O537    1.297   .     A
C513   C514    1.426   .     S
C513   C811    1.327   1_545 S
C513   H824    1.088   1_545 S
C514   O538    1.285   .     A
C514   O539    1.292   .     A
C515   O541    1.301   .     A
C515   O540    1.294   .     A
C515   C517    1.465   .     S
C516   F542    1.359   .     S
C518   H529    1.084   .     S
C518   C519    1.383   .     A
C519   H530    1.083   .     S
C519   C520    1.390   .     A
C520   F93     1.355   1_556 S
Cu521  O540    1.915   .     S
Cu521  N533    2.019   .     S
Cu521  O536    1.936   .     S
Cu521  O534    1.954   .     S
Cu521  Cu522   2.688   .     S
Cu521  O538    1.949   .     S
Cu522  O537    1.915   .     S
Cu522  O535    1.949   .     S
Cu522  N532    2.019   .     S
Cu522  O539    1.954   .     S
Cu522  O541    1.936   .     S
H524   C663    1.088   .     S
H526   N583    1.029   .     S
H531   C811    1.088   1_545 S
N532   H575    1.029   .     S
N532   N583    1.287   .     S
C544   H549    1.095   .     S
C544   C545    1.528   .     S
C544   H550    1.112   .     S
C545   H547    1.110   .     S
C545   H546    1.111   .     S
C545   H848    1.111   1_545 S
H548   C695    1.111   .     S
C551   C561    1.426   .     S
C551   O584    1.291   .     A
C551   O585    1.285   .     A
C552   C553    1.427   .     A
C552   C570    1.426   .     A
C552   C104    1.426   1_556 S
C553   C560    1.423   .     A
C553   C557    1.428   .     A
C554   C558    1.404   .     A
C555   C556    1.393   .     A
C555   C104    1.418   1_556 S
C555   C116    1.409   1_556 S
C556   C557    1.398   .     A
C556   H577    1.084   .     S
C557   C594    1.523   .     S
C558   C567    1.399   .     A
C558   H578    1.076   .     S
C559   C567    1.397   .     A
C559   C566    1.394   .     A
C559   H573    1.083   .     S
C560   C568    1.399   .     A
C560   C562    1.468   .     S
C561   C713    1.327   .     S
C561   H731    1.088   .     S
C562   O586    1.300   .     A
C562   O587    1.297   .     A
C563   C564    1.426   .     S
C563   C861    1.327   1_545 S
C563   H874    1.088   1_545 S
C564   O588    1.285   .     A
C564   O589    1.292   .     A
C565   O591    1.301   .     A
C565   O590    1.294   .     A
C565   C567    1.465   .     S
C566   F592    1.359   .     S
C568   H579    1.084   .     S
C568   C569    1.383   .     A
C569   H580    1.083   .     S
C569   C570    1.390   .     A
C570   F143    1.355   1_556 S
Cu571  O590    1.915   .     S
Cu571  N583    2.019   .     S
Cu571  O586    1.936   .     S
Cu571  O584    1.954   .     S
Cu571  Cu572   2.688   .     S
Cu571  O588    1.949   .     S
Cu572  O587    1.915   .     S
Cu572  O585    1.949   .     S
Cu572  N582    2.019   .     S
Cu572  O589    1.954   .     S
Cu572  O591    1.936   .     S
H574   C713    1.088   .     S
H576   N483    1.029   1_655 S
H581   C861    1.088   1_545 S
N582   H475    1.029   1_655 S
N582   N483    1.287   1_655 S
C594   H599    1.095   .     S
C594   C595    1.528   .     S
C594   H600    1.112   .     S
C595   H597    1.110   .     S
C595   H596    1.111   .     S
C595   H898    1.111   1_545 S
H598   C745    1.111   .     S
C601   C611    1.426   .     S
C601   O634    1.291   .     A
C601   O635    1.285   .     A
C602   C603    1.427   .     A
C602   C620    1.426   .     A
C602   C154    1.426   1_556 S
C603   C610    1.423   .     A
C603   C607    1.428   .     A
C604   C608    1.404   .     A
C605   C606    1.393   .     A
C605   C154    1.418   1_556 S
C605   C166    1.409   1_556 S
C606   C607    1.398   .     A
C606   H627    1.084   .     S
C607   C644    1.523   .     S
C608   C617    1.399   .     A
C608   H628    1.076   .     S
C609   C617    1.397   .     A
C609   C616    1.394   .     A
C609   H623    1.083   .     S
C610   C618    1.399   .     A
C610   C612    1.468   .     S
C611   C763    1.327   .     S
C611   H781    1.088   .     S
C612   O636    1.300   .     A
C612   O637    1.297   .     A
C613   C614    1.426   .     S
C614   O638    1.285   .     A
C614   O639    1.292   .     A
C615   O641    1.301   .     A
C615   O640    1.294   .     A
C615   C617    1.465   .     S
C616   F642    1.359   .     S
C618   H629    1.084   .     S
C618   C619    1.383   .     A
C619   H630    1.083   .     S
C619   C620    1.390   .     A
C620   F193    1.355   1_556 S
Cu621  O640    1.915   .     S
Cu621  N633    2.019   .     S
Cu621  O636    1.936   .     S
Cu621  O634    1.954   .     S
Cu621  Cu622   2.688   .     S
Cu621  O638    1.949   .     S
Cu622  O637    1.915   .     S
Cu622  O635    1.949   .     S
Cu622  N632    2.019   .     S
Cu622  O639    1.954   .     S
Cu622  O641    1.936   .     S
H624   C763    1.088   .     S
H625   N732    1.029   1_455 S
H626   N683    1.029   .     S
N632   H675    1.029   .     S
N632   N683    1.287   .     S
N633   N732    1.287   1_455 S
N633   H726    1.029   1_455 S
C644   H649    1.095   .     S
C644   C645    1.528   .     S
C644   H650    1.112   .     S
C645   H647    1.110   .     S
C645   H646    1.111   .     S
H648   C795    1.111   .     S
C651   C661    1.426   .     S
C651   O684    1.291   .     A
C651   O685    1.285   .     A
C652   C653    1.427   .     A
C652   C670    1.426   .     A
C652   C204    1.426   1_556 S
C653   C660    1.423   .     A
C653   C657    1.428   .     A
C654   C658    1.404   .     A
C655   C656    1.393   .     A
C655   C204    1.418   1_556 S
C655   C216    1.409   1_556 S
C656   C657    1.398   .     A
C656   H677    1.084   .     S
C657   C694    1.523   .     S
C658   C667    1.399   .     A
C658   H678    1.076   .     S
C659   C667    1.397   .     A
C659   C666    1.394   .     A
C659   H673    1.083   .     S
C660   C668    1.399   .     A
C660   C662    1.468   .     S
C661   C813    1.327   .     S
C661   H831    1.088   .     S
C662   O686    1.300   .     A
C662   O687    1.297   .     A
C663   C664    1.426   .     S
C664   O688    1.285   .     A
C664   O689    1.292   .     A
C665   O691    1.301   .     A
C665   O690    1.294   .     A
C665   C667    1.465   .     S
C666   F692    1.359   .     S
C668   H679    1.084   .     S
C668   C669    1.383   .     A
C669   H680    1.083   .     S
C669   C670    1.390   .     A
C670   F243    1.355   1_556 S
Cu671  O690    1.915   .     S
Cu671  N683    2.019   .     S
Cu671  O686    1.936   .     S
Cu671  O684    1.954   .     S
Cu671  Cu672   2.688   .     S
Cu671  O688    1.949   .     S
Cu672  O687    1.915   .     S
Cu672  O685    1.949   .     S
Cu672  N682    2.019   .     S
Cu672  O689    1.954   .     S
Cu672  O691    1.936   .     S
H674   C813    1.088   .     S
H676   N733    1.029   .     S
N682   H725    1.029   .     S
N682   N733    1.287   .     S
C694   H699    1.095   .     S
C694   C695    1.528   .     S
C694   H700    1.112   .     S
C695   H697    1.110   .     S
C695   H696    1.111   .     S
H698   C845    1.111   .     S
C701   C711    1.426   .     S
C701   O734    1.291   .     A
C701   O735    1.285   .     A
C702   C703    1.427   .     A
C702   C720    1.426   .     A
C702   C254    1.426   1_556 S
C703   C710    1.423   .     A
C703   C707    1.428   .     A
C704   C708    1.404   .     A
C705   C706    1.393   .     A
C705   C254    1.418   1_556 S
C705   C266    1.409   1_556 S
C706   C707    1.398   .     A
C706   H727    1.084   .     S
C707   C744    1.523   .     S
C708   C717    1.399   .     A
C708   H728    1.076   .     S
C709   C717    1.397   .     A
C709   C716    1.394   .     A
C709   H723    1.083   .     S
C710   C718    1.399   .     A
C710   C712    1.468   .     S
C711   C863    1.327   .     S
C711   H881    1.088   .     S
C712   O736    1.300   .     A
C712   O737    1.297   .     A
C713   C714    1.426   .     S
C714   O738    1.285   .     A
C714   O739    1.292   .     A
C715   O741    1.301   .     A
C715   O740    1.294   .     A
C715   C717    1.465   .     S
C716   F742    1.359   .     S
C718   H729    1.084   .     S
C718   C719    1.383   .     A
C719   H730    1.083   .     S
C719   C720    1.390   .     A
C720   F293    1.355   1_556 S
Cu721  O740    1.915   .     S
Cu721  N733    2.019   .     S
Cu721  O736    1.936   .     S
Cu721  O734    1.954   .     S
Cu721  Cu722   2.688   .     S
Cu721  O738    1.949   .     S
Cu722  O737    1.915   .     S
Cu722  O735    1.949   .     S
Cu722  N732    2.019   .     S
Cu722  O739    1.954   .     S
Cu722  O741    1.936   .     S
H724   C863    1.088   .     S
H726   N633    1.029   1_655 S
N732   H625    1.029   1_655 S
N732   N633    1.287   1_655 S
C744   H749    1.095   .     S
C744   C745    1.528   .     S
C744   H750    1.112   .     S
C745   H747    1.110   .     S
C745   H746    1.111   .     S
H748   C895    1.111   .     S
C751   C761    1.426   .     S
C751   O784    1.291   .     A
C751   O785    1.285   .     A
C752   C753    1.427   .     A
C752   C770    1.426   .     A
C752   C304    1.426   1_556 S
C753   C760    1.423   .     A
C753   C757    1.428   .     A
C754   C758    1.404   .     A
C755   C756    1.393   .     A
C755   C304    1.418   1_556 S
C755   C316    1.409   1_556 S
C756   C757    1.398   .     A
C756   H777    1.084   .     S
C757   C794    1.523   .     S
C758   C767    1.399   .     A
C758   H778    1.076   .     S
C759   C767    1.397   .     A
C759   C766    1.394   .     A
C759   H773    1.083   .     S
C760   C768    1.399   .     A
C760   C762    1.468   .     S
C761   C463    1.327   1_565 S
C761   H481    1.088   1_565 S
C762   O786    1.300   .     A
C762   O787    1.297   .     A
C763   C764    1.426   .     S
C764   O788    1.285   .     A
C764   O789    1.292   .     A
C765   O791    1.301   .     A
C765   O790    1.294   .     A
C765   C767    1.465   .     S
C766   F792    1.359   .     S
C768   H779    1.084   .     S
C768   C769    1.383   .     A
C769   H780    1.083   .     S
C769   C770    1.390   .     A
C770   F343    1.355   1_556 S
Cu771  O790    1.915   .     S
Cu771  N783    2.019   .     S
Cu771  O786    1.936   .     S
Cu771  O784    1.954   .     S
Cu771  Cu772   2.688   .     S
Cu771  O788    1.949   .     S
Cu772  O787    1.915   .     S
Cu772  O785    1.949   .     S
Cu772  N782    2.019   .     S
Cu772  O789    1.954   .     S
Cu772  O791    1.936   .     S
H774   C463    1.088   1_565 S
H775   N882    1.029   1_455 S
H776   N833    1.029   .     S
N782   H825    1.029   .     S
N782   N833    1.287   .     S
N783   N882    1.287   1_455 S
N783   H876    1.029   1_455 S
C794   H799    1.095   .     S
C794   C795    1.528   .     S
C794   H800    1.112   .     S
C795   H797    1.110   .     S
C795   H796    1.111   .     S
H798   C495    1.111   1_565 S
C801   C811    1.426   .     S
C801   O834    1.291   .     A
C801   O835    1.285   .     A
C802   C803    1.427   .     A
C802   C820    1.426   .     A
C802   C354    1.426   1_556 S
C803   C810    1.423   .     A
C803   C807    1.428   .     A
C804   C808    1.404   .     A
C805   C806    1.393   .     A
C805   C354    1.418   1_556 S
C805   C366    1.409   1_556 S
C806   C807    1.398   .     A
C806   H827    1.084   .     S
C807   C844    1.523   .     S
C808   C817    1.399   .     A
C808   H828    1.076   .     S
C809   C817    1.397   .     A
C809   C816    1.394   .     A
C809   H823    1.083   .     S
C810   C818    1.399   .     A
C810   C812    1.468   .     S
C811   C513    1.327   1_565 S
C811   H531    1.088   1_565 S
C812   O836    1.300   .     A
C812   O837    1.297   .     A
C813   C814    1.426   .     S
C814   O838    1.285   .     A
C814   O839    1.292   .     A
C815   O841    1.301   .     A
C815   O840    1.294   .     A
C815   C817    1.465   .     S
C816   F842    1.359   .     S
C818   H829    1.084   .     S
C818   C819    1.383   .     A
C819   H830    1.083   .     S
C819   C820    1.390   .     A
C820   F393    1.355   1_556 S
Cu821  O840    1.915   .     S
Cu821  N833    2.019   .     S
Cu821  O836    1.936   .     S
Cu821  O834    1.954   .     S
Cu821  Cu822   2.688   .     S
Cu821  O838    1.949   .     S
Cu822  O837    1.915   .     S
Cu822  O835    1.949   .     S
Cu822  N832    2.019   .     S
Cu822  O839    1.954   .     S
Cu822  O841    1.936   .     S
H824   C513    1.088   1_565 S
H826   N883    1.029   .     S
N832   H875    1.029   .     S
N832   N883    1.287   .     S
C844   H849    1.095   .     S
C844   C845    1.528   .     S
C844   H850    1.112   .     S
C845   H847    1.110   .     S
C845   H846    1.111   .     S
H848   C545    1.111   1_565 S
C851   C861    1.426   .     S
C851   O884    1.291   .     A
C851   O885    1.285   .     A
C852   C853    1.427   .     A
C852   C870    1.426   .     A
C852   C404    1.426   1_556 S
C853   C860    1.423   .     A
C853   C857    1.428   .     A
C854   C858    1.404   .     A
C855   C856    1.393   .     A
C855   C404    1.418   1_556 S
C855   C416    1.409   1_556 S
C856   C857    1.398   .     A
C856   H877    1.084   .     S
C857   C894    1.523   .     S
C858   C867    1.399   .     A
C858   H878    1.076   .     S
C859   C867    1.397   .     A
C859   C866    1.394   .     A
C859   H873    1.083   .     S
C860   C868    1.399   .     A
C860   C862    1.468   .     S
C861   C563    1.327   1_565 S
C861   H581    1.088   1_565 S
C862   O886    1.300   .     A
C862   O887    1.297   .     A
C863   C864    1.426   .     S
C864   O888    1.285   .     A
C864   O889    1.292   .     A
C865   O891    1.301   .     A
C865   O890    1.294   .     A
C865   C867    1.465   .     S
C866   F892    1.359   .     S
C868   H879    1.084   .     S
C868   C869    1.383   .     A
C869   H880    1.083   .     S
C869   C870    1.390   .     A
C870   F443    1.355   1_556 S
Cu871  O890    1.915   .     S
Cu871  N883    2.019   .     S
Cu871  O886    1.936   .     S
Cu871  O884    1.954   .     S
Cu871  Cu872   2.688   .     S
Cu871  O888    1.949   .     S
Cu872  O887    1.915   .     S
Cu872  O885    1.949   .     S
Cu872  N882    2.019   .     S
Cu872  O889    1.954   .     S
Cu872  O891    1.936   .     S
H874   C563    1.088   1_565 S
H876   N783    1.029   1_655 S
N882   H775    1.029   1_655 S
N882   N783    1.287   1_655 S
C894   H899    1.095   .     S
C894   C895    1.528   .     S
C894   H900    1.112   .     S
C895   H897    1.110   .     S
C895   H896    1.111   .     S
H898   C595    1.111   1_565 S
