data_str_m2_o10_o17_pcu_sym.94
_audit_creation_date              2020-01-03
_audit_creation_method            'Materials Studio'
_symmetry_space_group_name_H-M    'P1'
_symmetry_Int_Tables_number       1
_symmetry_cell_setting            triclinic
loop_
_symmetry_equiv_pos_as_xyz
  x,y,z
_cell_length_a                    29.9259
_cell_length_b                    26.0204
_cell_length_c                    22.3077
_cell_angle_alpha                 103.0039
_cell_angle_beta                  93.8313
_cell_angle_gamma                 92.4410
loop_
_atom_site_label
_atom_site_type_symbol
_atom_site_fract_x
_atom_site_fract_y
_atom_site_fract_z
_atom_site_U_iso_or_equiv
_atom_site_adp_type
_atom_site_occupancy
C1     C     0.24864   0.06655   0.15106   0.00000  Uiso   1.00
C2     C     0.25120   0.26677   0.18227   0.00000  Uiso   1.00
C3     C     0.02004   0.07137   0.14873   0.00000  Uiso   1.00
C4     C     0.48059   0.26272   0.20196   0.00000  Uiso   1.00
C5     C     0.24809   0.01058   0.14226   0.00000  Uiso   1.00
C6     C     0.25141   0.32273   0.19105   0.00000  Uiso   1.00
C7     C     0.16460   0.16770   0.16776   0.00000  Uiso   1.00
C8     C     0.33541   0.16594   0.16551   0.00000  Uiso   1.00
C9     C     0.40865   0.21345   0.18343   0.00000  Uiso   1.00
C10    C     0.09179   0.12067   0.16170   0.00000  Uiso   1.00
C11    C     0.38347   0.16554   0.16333   0.00000  Uiso   1.00
C12    C     0.11654   0.16867   0.16988   0.00000  Uiso   1.00
C13    C     0.40403   0.11767   0.14406   0.00000  Uiso   1.00
C14    C     0.09549   0.21669   0.17712   0.00000  Uiso   1.00
C15    C     0.45117   0.11771   0.15259   0.00000  Uiso   1.00
C16    C     0.04894   0.21653   0.18362   0.00000  Uiso   1.00
C17    C     0.47664   0.16660   0.16992   0.00000  Uiso   1.00
C18    C     0.02365   0.16759   0.17173   0.00000  Uiso   1.00
C19    C     0.45518   0.21455   0.18483   0.00000  Uiso   1.00
C20    C     0.04526   0.11961   0.16057   0.00000  Uiso   1.00
C21    C     0.47338   0.07037   0.14469   0.00000  Uiso   1.00
C22    C     0.02711   0.26375   0.20123   0.00000  Uiso   1.00
Cu23   Cu    0.25501   0.17246   0.22813   0.00000  Uiso   1.00
Cu24   Cu    0.24500   0.16087   0.10521   0.00000  Uiso   1.00
H25    H     0.39179   0.24989   0.19719   0.00000  Uiso   1.00
H26    H     0.10888   0.08413   0.15449   0.00000  Uiso   1.00
H27    H     0.45481   0.03240   0.13499   0.00000  Uiso   1.00
H28    H     0.04588   0.30161   0.21415   0.00000  Uiso   1.00
H29    H     0.03638   0.03438   0.14135   0.00000  Uiso   1.00
H30    H     0.46442   0.29968   0.21484   0.00000  Uiso   1.00
H31    H     0.24507   0.32005   0.09524   0.00000  Uiso   1.00
H32    H     0.25436   0.01327   0.23807   0.00000  Uiso   1.00
H33    H     0.21496   0.12599   0.31620   0.00000  Uiso   1.00
H34    H     0.28507   0.20731   0.01713   0.00000  Uiso   1.00
N35    N     0.23745   0.15214   0.01284   0.00000  Uiso   1.00
N36    N     0.26256   0.18119   0.32049   0.00000  Uiso   1.00
O37    O     0.25326   0.09538   0.20659   0.00000  Uiso   1.00
O38    O     0.24675   0.23796   0.12674   0.00000  Uiso   1.00
O39    O     0.24480   0.08559   0.10279   0.00000  Uiso   1.00
O40    O     0.25520   0.24774   0.23055   0.00000  Uiso   1.00
O41    O     0.18936   0.17155   0.21857   0.00000  Uiso   1.00
O42    O     0.31065   0.16179   0.11476   0.00000  Uiso   1.00
O43    O     0.18090   0.16176   0.11477   0.00000  Uiso   1.00
O44    O     0.31910   0.17157   0.21857   0.00000  Uiso   1.00
O45    O     0.37740   0.07127   0.12208   0.00000  Uiso   1.00
C46    C     0.38271   0.05046   0.05851   0.00000  Uiso   1.00
H47    H     0.37405   0.00728   0.04861   0.00000  Uiso   1.00
H48    H     0.41774   0.05504   0.04573   0.00000  Uiso   1.00
C49    C     0.35128   0.07496   0.01700   0.00000  Uiso   1.00
H50    H     0.31599   0.06845   0.02744   0.00000  Uiso   1.00
H51    H     0.35973   0.11812   0.02571   0.00000  Uiso   1.00
C52    C     0.35593   0.05064   0.28218   0.00000  Uiso   1.00
H53    H     0.39100   0.05674   0.27055   0.00000  Uiso   1.00
H54    H     0.33358   0.06986   0.25324   0.00000  Uiso   1.00
H55    H     0.34636   0.00764   0.27132   0.00000  Uiso   1.00
O56    O     0.12128   0.26303   0.18009   0.00000  Uiso   1.00
C57    C     0.11107   0.28332   0.12699   0.00000  Uiso   1.00
H58    H     0.12332   0.32550   0.13844   0.00000  Uiso   1.00
H59    H     0.07450   0.28249   0.11395   0.00000  Uiso   1.00
C60    C     0.13457   0.25460   0.07109   0.00000  Uiso   1.00
H61    H     0.17112   0.25633   0.08341   0.00000  Uiso   1.00
H62    H     0.12179   0.21258   0.05728   0.00000  Uiso   1.00
C63    C     0.12641   0.27979   0.01609   0.00000  Uiso   1.00
H64    H     0.08999   0.27759   0.00165   0.00000  Uiso   1.00
H65    H     0.14419   0.25832   0.31006   0.00000  Uiso   1.00
H66    H     0.13935   0.32179   0.02815   0.00000  Uiso   1.00
C67    C     0.74864   0.06655   0.15106   0.00000  Uiso   1.00
C68    C     0.75120   0.26677   0.18227   0.00000  Uiso   1.00
C69    C     0.52004   0.07137   0.14873   0.00000  Uiso   1.00
C70    C     0.98059   0.26272   0.20196   0.00000  Uiso   1.00
C71    C     0.74809   0.01058   0.14226   0.00000  Uiso   1.00
C72    C     0.75141   0.32273   0.19105   0.00000  Uiso   1.00
C73    C     0.66460   0.16770   0.16776   0.00000  Uiso   1.00
C74    C     0.83541   0.16594   0.16551   0.00000  Uiso   1.00
C75    C     0.90865   0.21345   0.18343   0.00000  Uiso   1.00
C76    C     0.59179   0.12067   0.16170   0.00000  Uiso   1.00
C77    C     0.88347   0.16554   0.16333   0.00000  Uiso   1.00
C78    C     0.61654   0.16867   0.16988   0.00000  Uiso   1.00
C79    C     0.90403   0.11767   0.14406   0.00000  Uiso   1.00
C80    C     0.59549   0.21669   0.17712   0.00000  Uiso   1.00
C81    C     0.95117   0.11771   0.15259   0.00000  Uiso   1.00
C82    C     0.54894   0.21653   0.18362   0.00000  Uiso   1.00
C83    C     0.97664   0.16660   0.16992   0.00000  Uiso   1.00
C84    C     0.52365   0.16759   0.17173   0.00000  Uiso   1.00
C85    C     0.95518   0.21455   0.18483   0.00000  Uiso   1.00
C86    C     0.54526   0.11961   0.16057   0.00000  Uiso   1.00
C87    C     0.97338   0.07037   0.14469   0.00000  Uiso   1.00
C88    C     0.52711   0.26375   0.20123   0.00000  Uiso   1.00
Cu89   Cu    0.75501   0.17246   0.22813   0.00000  Uiso   1.00
Cu90   Cu    0.74500   0.16087   0.10521   0.00000  Uiso   1.00
H91    H     0.89179   0.24989   0.19719   0.00000  Uiso   1.00
H92    H     0.60888   0.08413   0.15449   0.00000  Uiso   1.00
H93    H     0.95481   0.03240   0.13499   0.00000  Uiso   1.00
H94    H     0.54588   0.30161   0.21415   0.00000  Uiso   1.00
H95    H     0.53638   0.03438   0.14135   0.00000  Uiso   1.00
H96    H     0.96442   0.29968   0.21484   0.00000  Uiso   1.00
H97    H     0.74507   0.32005   0.09524   0.00000  Uiso   1.00
H98    H     0.75436   0.01327   0.23807   0.00000  Uiso   1.00
H99    H     0.71496   0.12599   0.31620   0.00000  Uiso   1.00
H100   H     0.78507   0.20731   0.01713   0.00000  Uiso   1.00
N101   N     0.73745   0.15214   0.01284   0.00000  Uiso   1.00
N102   N     0.76256   0.18119   0.32049   0.00000  Uiso   1.00
O103   O     0.75326   0.09538   0.20659   0.00000  Uiso   1.00
O104   O     0.74675   0.23796   0.12674   0.00000  Uiso   1.00
O105   O     0.74480   0.08559   0.10279   0.00000  Uiso   1.00
O106   O     0.75520   0.24774   0.23055   0.00000  Uiso   1.00
O107   O     0.68936   0.17155   0.21857   0.00000  Uiso   1.00
O108   O     0.81065   0.16179   0.11476   0.00000  Uiso   1.00
O109   O     0.68090   0.16176   0.11477   0.00000  Uiso   1.00
O110   O     0.81910   0.17157   0.21857   0.00000  Uiso   1.00
O111   O     0.87740   0.07127   0.12208   0.00000  Uiso   1.00
C112   C     0.88271   0.05046   0.05851   0.00000  Uiso   1.00
H113   H     0.87405   0.00728   0.04861   0.00000  Uiso   1.00
H114   H     0.91774   0.05504   0.04573   0.00000  Uiso   1.00
C115   C     0.85128   0.07496   0.01700   0.00000  Uiso   1.00
H116   H     0.81599   0.06845   0.02744   0.00000  Uiso   1.00
H117   H     0.85973   0.11812   0.02571   0.00000  Uiso   1.00
C118   C     0.85593   0.05064   0.28218   0.00000  Uiso   1.00
H119   H     0.89100   0.05674   0.27055   0.00000  Uiso   1.00
H120   H     0.83358   0.06986   0.25324   0.00000  Uiso   1.00
H121   H     0.84636   0.00764   0.27132   0.00000  Uiso   1.00
O122   O     0.62128   0.26303   0.18009   0.00000  Uiso   1.00
C123   C     0.61107   0.28332   0.12699   0.00000  Uiso   1.00
H124   H     0.62332   0.32550   0.13844   0.00000  Uiso   1.00
H125   H     0.57450   0.28249   0.11395   0.00000  Uiso   1.00
C126   C     0.63457   0.25460   0.07109   0.00000  Uiso   1.00
H127   H     0.67112   0.25633   0.08341   0.00000  Uiso   1.00
H128   H     0.62179   0.21258   0.05728   0.00000  Uiso   1.00
C129   C     0.62641   0.27979   0.01609   0.00000  Uiso   1.00
H130   H     0.58999   0.27759   0.00165   0.00000  Uiso   1.00
H131   H     0.64419   0.25832   0.31006   0.00000  Uiso   1.00
H132   H     0.63935   0.32179   0.02815   0.00000  Uiso   1.00
C133   C     0.24864   0.39989   0.15106   0.00000  Uiso   1.00
C134   C     0.25120   0.60011   0.18227   0.00000  Uiso   1.00
C135   C     0.02004   0.40471   0.14873   0.00000  Uiso   1.00
C136   C     0.48059   0.59606   0.20196   0.00000  Uiso   1.00
C137   C     0.24809   0.34391   0.14226   0.00000  Uiso   1.00
C138   C     0.25141   0.65606   0.19105   0.00000  Uiso   1.00
C139   C     0.16460   0.50104   0.16776   0.00000  Uiso   1.00
C140   C     0.33541   0.49928   0.16551   0.00000  Uiso   1.00
C141   C     0.40865   0.54678   0.18343   0.00000  Uiso   1.00
C142   C     0.09179   0.45400   0.16170   0.00000  Uiso   1.00
C143   C     0.38347   0.49887   0.16333   0.00000  Uiso   1.00
C144   C     0.11654   0.50200   0.16988   0.00000  Uiso   1.00
C145   C     0.40403   0.45100   0.14406   0.00000  Uiso   1.00
C146   C     0.09549   0.55003   0.17712   0.00000  Uiso   1.00
C147   C     0.45117   0.45104   0.15259   0.00000  Uiso   1.00
C148   C     0.04894   0.54986   0.18362   0.00000  Uiso   1.00
C149   C     0.47664   0.49993   0.16992   0.00000  Uiso   1.00
C150   C     0.02365   0.50092   0.17173   0.00000  Uiso   1.00
C151   C     0.45518   0.54788   0.18483   0.00000  Uiso   1.00
C152   C     0.04526   0.45294   0.16057   0.00000  Uiso   1.00
C153   C     0.47338   0.40370   0.14469   0.00000  Uiso   1.00
C154   C     0.02711   0.59708   0.20123   0.00000  Uiso   1.00
Cu155  Cu    0.25501   0.50579   0.22813   0.00000  Uiso   1.00
Cu156  Cu    0.24500   0.49421   0.10521   0.00000  Uiso   1.00
H157   H     0.39179   0.58322   0.19719   0.00000  Uiso   1.00
H158   H     0.10888   0.41747   0.15449   0.00000  Uiso   1.00
H159   H     0.45481   0.36573   0.13499   0.00000  Uiso   1.00
H160   H     0.04588   0.63495   0.21415   0.00000  Uiso   1.00
H161   H     0.03638   0.36771   0.14135   0.00000  Uiso   1.00
H162   H     0.46442   0.63301   0.21484   0.00000  Uiso   1.00
H163   H     0.24507   0.65338   0.09524   0.00000  Uiso   1.00
H164   H     0.25436   0.34660   0.23807   0.00000  Uiso   1.00
H165   H     0.21496   0.45932   0.31620   0.00000  Uiso   1.00
H166   H     0.28507   0.54064   0.01713   0.00000  Uiso   1.00
N167   N     0.23745   0.48547   0.01284   0.00000  Uiso   1.00
N168   N     0.26256   0.51453   0.32049   0.00000  Uiso   1.00
O169   O     0.25326   0.42871   0.20659   0.00000  Uiso   1.00
O170   O     0.24675   0.57129   0.12674   0.00000  Uiso   1.00
O171   O     0.24480   0.41892   0.10279   0.00000  Uiso   1.00
O172   O     0.25520   0.58108   0.23055   0.00000  Uiso   1.00
O173   O     0.18936   0.50488   0.21857   0.00000  Uiso   1.00
O174   O     0.31065   0.49512   0.11476   0.00000  Uiso   1.00
O175   O     0.18090   0.49510   0.11477   0.00000  Uiso   1.00
O176   O     0.31910   0.50490   0.21857   0.00000  Uiso   1.00
O177   O     0.37740   0.40460   0.12208   0.00000  Uiso   1.00
C178   C     0.38271   0.38380   0.05851   0.00000  Uiso   1.00
H179   H     0.37405   0.34061   0.04861   0.00000  Uiso   1.00
H180   H     0.41774   0.38837   0.04573   0.00000  Uiso   1.00
C181   C     0.35128   0.40829   0.01700   0.00000  Uiso   1.00
H182   H     0.31599   0.40178   0.02744   0.00000  Uiso   1.00
H183   H     0.35973   0.45145   0.02571   0.00000  Uiso   1.00
C184   C     0.35593   0.38398   0.28218   0.00000  Uiso   1.00
H185   H     0.39100   0.39007   0.27055   0.00000  Uiso   1.00
H186   H     0.33358   0.40319   0.25324   0.00000  Uiso   1.00
H187   H     0.34636   0.34097   0.27132   0.00000  Uiso   1.00
O188   O     0.12128   0.59636   0.18009   0.00000  Uiso   1.00
C189   C     0.11107   0.61666   0.12699   0.00000  Uiso   1.00
H190   H     0.12332   0.65883   0.13844   0.00000  Uiso   1.00
H191   H     0.07450   0.61583   0.11395   0.00000  Uiso   1.00
C192   C     0.13457   0.58793   0.07109   0.00000  Uiso   1.00
H193   H     0.17112   0.58966   0.08341   0.00000  Uiso   1.00
H194   H     0.12179   0.54591   0.05728   0.00000  Uiso   1.00
C195   C     0.12641   0.61312   0.01609   0.00000  Uiso   1.00
H196   H     0.08999   0.61092   0.00165   0.00000  Uiso   1.00
H197   H     0.14419   0.59166   0.31006   0.00000  Uiso   1.00
H198   H     0.13935   0.65512   0.02815   0.00000  Uiso   1.00
C199   C     0.74864   0.39989   0.15106   0.00000  Uiso   1.00
C200   C     0.75120   0.60011   0.18227   0.00000  Uiso   1.00
C201   C     0.52004   0.40471   0.14873   0.00000  Uiso   1.00
C202   C     0.98059   0.59606   0.20196   0.00000  Uiso   1.00
C203   C     0.74809   0.34391   0.14226   0.00000  Uiso   1.00
C204   C     0.75141   0.65606   0.19105   0.00000  Uiso   1.00
C205   C     0.66460   0.50104   0.16776   0.00000  Uiso   1.00
C206   C     0.83541   0.49928   0.16551   0.00000  Uiso   1.00
C207   C     0.90865   0.54678   0.18343   0.00000  Uiso   1.00
C208   C     0.59179   0.45400   0.16170   0.00000  Uiso   1.00
C209   C     0.88347   0.49887   0.16333   0.00000  Uiso   1.00
C210   C     0.61654   0.50200   0.16988   0.00000  Uiso   1.00
C211   C     0.90403   0.45100   0.14406   0.00000  Uiso   1.00
C212   C     0.59549   0.55003   0.17712   0.00000  Uiso   1.00
C213   C     0.95117   0.45104   0.15259   0.00000  Uiso   1.00
C214   C     0.54894   0.54986   0.18362   0.00000  Uiso   1.00
C215   C     0.97664   0.49993   0.16992   0.00000  Uiso   1.00
C216   C     0.52365   0.50092   0.17173   0.00000  Uiso   1.00
C217   C     0.95518   0.54788   0.18483   0.00000  Uiso   1.00
C218   C     0.54526   0.45294   0.16057   0.00000  Uiso   1.00
C219   C     0.97338   0.40370   0.14469   0.00000  Uiso   1.00
C220   C     0.52711   0.59708   0.20123   0.00000  Uiso   1.00
Cu221  Cu    0.75501   0.50579   0.22813   0.00000  Uiso   1.00
Cu222  Cu    0.74500   0.49421   0.10521   0.00000  Uiso   1.00
H223   H     0.89179   0.58322   0.19719   0.00000  Uiso   1.00
H224   H     0.60888   0.41747   0.15449   0.00000  Uiso   1.00
H225   H     0.95481   0.36573   0.13499   0.00000  Uiso   1.00
H226   H     0.54588   0.63495   0.21415   0.00000  Uiso   1.00
H227   H     0.53638   0.36771   0.14135   0.00000  Uiso   1.00
H228   H     0.96442   0.63301   0.21484   0.00000  Uiso   1.00
H229   H     0.74507   0.65338   0.09524   0.00000  Uiso   1.00
H230   H     0.75436   0.34660   0.23807   0.00000  Uiso   1.00
H231   H     0.71496   0.45932   0.31620   0.00000  Uiso   1.00
H232   H     0.78507   0.54064   0.01713   0.00000  Uiso   1.00
N233   N     0.73745   0.48547   0.01284   0.00000  Uiso   1.00
N234   N     0.76256   0.51453   0.32049   0.00000  Uiso   1.00
O235   O     0.75326   0.42871   0.20659   0.00000  Uiso   1.00
O236   O     0.74675   0.57129   0.12674   0.00000  Uiso   1.00
O237   O     0.74480   0.41892   0.10279   0.00000  Uiso   1.00
O238   O     0.75520   0.58108   0.23055   0.00000  Uiso   1.00
O239   O     0.68936   0.50488   0.21857   0.00000  Uiso   1.00
O240   O     0.81065   0.49512   0.11476   0.00000  Uiso   1.00
O241   O     0.68090   0.49510   0.11477   0.00000  Uiso   1.00
O242   O     0.81910   0.50490   0.21857   0.00000  Uiso   1.00
O243   O     0.87740   0.40460   0.12208   0.00000  Uiso   1.00
C244   C     0.88271   0.38380   0.05851   0.00000  Uiso   1.00
H245   H     0.87405   0.34061   0.04861   0.00000  Uiso   1.00
H246   H     0.91774   0.38837   0.04573   0.00000  Uiso   1.00
C247   C     0.85128   0.40829   0.01700   0.00000  Uiso   1.00
H248   H     0.81599   0.40178   0.02744   0.00000  Uiso   1.00
H249   H     0.85973   0.45145   0.02571   0.00000  Uiso   1.00
C250   C     0.85593   0.38398   0.28218   0.00000  Uiso   1.00
H251   H     0.89100   0.39007   0.27055   0.00000  Uiso   1.00
H252   H     0.83358   0.40319   0.25324   0.00000  Uiso   1.00
H253   H     0.84636   0.34097   0.27132   0.00000  Uiso   1.00
O254   O     0.62128   0.59636   0.18009   0.00000  Uiso   1.00
C255   C     0.61107   0.61666   0.12699   0.00000  Uiso   1.00
H256   H     0.62332   0.65883   0.13844   0.00000  Uiso   1.00
H257   H     0.57450   0.61583   0.11395   0.00000  Uiso   1.00
C258   C     0.63457   0.58793   0.07109   0.00000  Uiso   1.00
H259   H     0.67112   0.58966   0.08341   0.00000  Uiso   1.00
H260   H     0.62179   0.54591   0.05728   0.00000  Uiso   1.00
C261   C     0.62641   0.61312   0.01609   0.00000  Uiso   1.00
H262   H     0.58999   0.61092   0.00165   0.00000  Uiso   1.00
H263   H     0.64419   0.59166   0.31006   0.00000  Uiso   1.00
H264   H     0.63935   0.65512   0.02815   0.00000  Uiso   1.00
C265   C     0.24864   0.73322   0.15106   0.00000  Uiso   1.00
C266   C     0.25120   0.93344   0.18227   0.00000  Uiso   1.00
C267   C     0.02004   0.73804   0.14873   0.00000  Uiso   1.00
C268   C     0.48059   0.92939   0.20196   0.00000  Uiso   1.00
C269   C     0.24809   0.67725   0.14226   0.00000  Uiso   1.00
C270   C     0.25141   0.98939   0.19105   0.00000  Uiso   1.00
C271   C     0.16460   0.83437   0.16776   0.00000  Uiso   1.00
C272   C     0.33541   0.83261   0.16551   0.00000  Uiso   1.00
C273   C     0.40865   0.88011   0.18343   0.00000  Uiso   1.00
C274   C     0.09179   0.78733   0.16170   0.00000  Uiso   1.00
C275   C     0.38347   0.83221   0.16333   0.00000  Uiso   1.00
C276   C     0.11654   0.83533   0.16988   0.00000  Uiso   1.00
C277   C     0.40403   0.78434   0.14406   0.00000  Uiso   1.00
C278   C     0.09549   0.88336   0.17712   0.00000  Uiso   1.00
C279   C     0.45117   0.78438   0.15259   0.00000  Uiso   1.00
C280   C     0.04894   0.88319   0.18362   0.00000  Uiso   1.00
C281   C     0.47664   0.83326   0.16992   0.00000  Uiso   1.00
C282   C     0.02365   0.83426   0.17173   0.00000  Uiso   1.00
C283   C     0.45518   0.88121   0.18483   0.00000  Uiso   1.00
C284   C     0.04526   0.78627   0.16057   0.00000  Uiso   1.00
C285   C     0.47338   0.73703   0.14469   0.00000  Uiso   1.00
C286   C     0.02711   0.93042   0.20123   0.00000  Uiso   1.00
Cu287  Cu    0.25501   0.83913   0.22813   0.00000  Uiso   1.00
Cu288  Cu    0.24500   0.82754   0.10521   0.00000  Uiso   1.00
H289   H     0.39179   0.91656   0.19719   0.00000  Uiso   1.00
H290   H     0.10888   0.75080   0.15449   0.00000  Uiso   1.00
H291   H     0.45481   0.69907   0.13499   0.00000  Uiso   1.00
H292   H     0.04588   0.96828   0.21415   0.00000  Uiso   1.00
H293   H     0.03638   0.70105   0.14135   0.00000  Uiso   1.00
H294   H     0.46442   0.96634   0.21484   0.00000  Uiso   1.00
H295   H     0.24507   0.98671   0.09524   0.00000  Uiso   1.00
H296   H     0.25436   0.67993   0.23807   0.00000  Uiso   1.00
H297   H     0.21496   0.79265   0.31620   0.00000  Uiso   1.00
H298   H     0.28507   0.87398   0.01713   0.00000  Uiso   1.00
N299   N     0.23745   0.81881   0.01284   0.00000  Uiso   1.00
N300   N     0.26256   0.84786   0.32049   0.00000  Uiso   1.00
O301   O     0.25326   0.76204   0.20659   0.00000  Uiso   1.00
O302   O     0.24675   0.90462   0.12674   0.00000  Uiso   1.00
O303   O     0.24480   0.75226   0.10279   0.00000  Uiso   1.00
O304   O     0.25520   0.91441   0.23055   0.00000  Uiso   1.00
O305   O     0.18936   0.83821   0.21857   0.00000  Uiso   1.00
O306   O     0.31065   0.82845   0.11476   0.00000  Uiso   1.00
O307   O     0.18090   0.82843   0.11477   0.00000  Uiso   1.00
O308   O     0.31910   0.83824   0.21857   0.00000  Uiso   1.00
O309   O     0.37740   0.73793   0.12208   0.00000  Uiso   1.00
C310   C     0.38271   0.71713   0.05851   0.00000  Uiso   1.00
H311   H     0.37405   0.67394   0.04861   0.00000  Uiso   1.00
H312   H     0.41774   0.72170   0.04573   0.00000  Uiso   1.00
C313   C     0.35128   0.74163   0.01700   0.00000  Uiso   1.00
H314   H     0.31599   0.73512   0.02744   0.00000  Uiso   1.00
H315   H     0.35973   0.78478   0.02571   0.00000  Uiso   1.00
C316   C     0.35593   0.71731   0.28218   0.00000  Uiso   1.00
H317   H     0.39100   0.72340   0.27055   0.00000  Uiso   1.00
H318   H     0.33358   0.73652   0.25324   0.00000  Uiso   1.00
H319   H     0.34636   0.67430   0.27132   0.00000  Uiso   1.00
O320   O     0.12128   0.92970   0.18009   0.00000  Uiso   1.00
C321   C     0.11107   0.94999   0.12699   0.00000  Uiso   1.00
H322   H     0.12332   0.99216   0.13844   0.00000  Uiso   1.00
H323   H     0.07450   0.94916   0.11395   0.00000  Uiso   1.00
C324   C     0.13457   0.92126   0.07109   0.00000  Uiso   1.00
H325   H     0.17112   0.92299   0.08341   0.00000  Uiso   1.00
H326   H     0.12179   0.87924   0.05728   0.00000  Uiso   1.00
C327   C     0.12641   0.94646   0.01609   0.00000  Uiso   1.00
H328   H     0.08999   0.94425   0.00165   0.00000  Uiso   1.00
H329   H     0.14419   0.92499   0.31006   0.00000  Uiso   1.00
H330   H     0.13935   0.98846   0.02815   0.00000  Uiso   1.00
C331   C     0.74864   0.73322   0.15106   0.00000  Uiso   1.00
C332   C     0.75120   0.93344   0.18227   0.00000  Uiso   1.00
C333   C     0.52004   0.73804   0.14873   0.00000  Uiso   1.00
C334   C     0.98059   0.92939   0.20196   0.00000  Uiso   1.00
C335   C     0.74809   0.67725   0.14226   0.00000  Uiso   1.00
C336   C     0.75141   0.98939   0.19105   0.00000  Uiso   1.00
C337   C     0.66460   0.83437   0.16776   0.00000  Uiso   1.00
C338   C     0.83541   0.83261   0.16551   0.00000  Uiso   1.00
C339   C     0.90865   0.88011   0.18343   0.00000  Uiso   1.00
C340   C     0.59179   0.78733   0.16170   0.00000  Uiso   1.00
C341   C     0.88347   0.83221   0.16333   0.00000  Uiso   1.00
C342   C     0.61654   0.83533   0.16988   0.00000  Uiso   1.00
C343   C     0.90403   0.78434   0.14406   0.00000  Uiso   1.00
C344   C     0.59549   0.88336   0.17712   0.00000  Uiso   1.00
C345   C     0.95117   0.78438   0.15259   0.00000  Uiso   1.00
C346   C     0.54894   0.88319   0.18362   0.00000  Uiso   1.00
C347   C     0.97664   0.83326   0.16992   0.00000  Uiso   1.00
C348   C     0.52365   0.83426   0.17173   0.00000  Uiso   1.00
C349   C     0.95518   0.88121   0.18483   0.00000  Uiso   1.00
C350   C     0.54526   0.78627   0.16057   0.00000  Uiso   1.00
C351   C     0.97338   0.73703   0.14469   0.00000  Uiso   1.00
C352   C     0.52711   0.93042   0.20123   0.00000  Uiso   1.00
Cu353  Cu    0.75501   0.83913   0.22813   0.00000  Uiso   1.00
Cu354  Cu    0.74500   0.82754   0.10521   0.00000  Uiso   1.00
H355   H     0.89179   0.91656   0.19719   0.00000  Uiso   1.00
H356   H     0.60888   0.75080   0.15449   0.00000  Uiso   1.00
H357   H     0.95481   0.69907   0.13499   0.00000  Uiso   1.00
H358   H     0.54588   0.96828   0.21415   0.00000  Uiso   1.00
H359   H     0.53638   0.70105   0.14135   0.00000  Uiso   1.00
H360   H     0.96442   0.96634   0.21484   0.00000  Uiso   1.00
H361   H     0.74507   0.98671   0.09524   0.00000  Uiso   1.00
H362   H     0.75436   0.67993   0.23807   0.00000  Uiso   1.00
H363   H     0.71496   0.79265   0.31620   0.00000  Uiso   1.00
H364   H     0.78507   0.87398   0.01713   0.00000  Uiso   1.00
N365   N     0.73745   0.81881   0.01284   0.00000  Uiso   1.00
N366   N     0.76256   0.84786   0.32049   0.00000  Uiso   1.00
O367   O     0.75326   0.76204   0.20659   0.00000  Uiso   1.00
O368   O     0.74675   0.90462   0.12674   0.00000  Uiso   1.00
O369   O     0.74480   0.75226   0.10279   0.00000  Uiso   1.00
O370   O     0.75520   0.91441   0.23055   0.00000  Uiso   1.00
O371   O     0.68936   0.83821   0.21857   0.00000  Uiso   1.00
O372   O     0.81065   0.82845   0.11476   0.00000  Uiso   1.00
O373   O     0.68090   0.82843   0.11477   0.00000  Uiso   1.00
O374   O     0.81910   0.83824   0.21857   0.00000  Uiso   1.00
O375   O     0.87740   0.73793   0.12208   0.00000  Uiso   1.00
C376   C     0.88271   0.71713   0.05851   0.00000  Uiso   1.00
H377   H     0.87405   0.67394   0.04861   0.00000  Uiso   1.00
H378   H     0.91774   0.72170   0.04573   0.00000  Uiso   1.00
C379   C     0.85128   0.74163   0.01700   0.00000  Uiso   1.00
H380   H     0.81599   0.73512   0.02744   0.00000  Uiso   1.00
H381   H     0.85973   0.78478   0.02571   0.00000  Uiso   1.00
C382   C     0.85593   0.71731   0.28218   0.00000  Uiso   1.00
H383   H     0.89100   0.72340   0.27055   0.00000  Uiso   1.00
H384   H     0.83358   0.73652   0.25324   0.00000  Uiso   1.00
H385   H     0.84636   0.67430   0.27132   0.00000  Uiso   1.00
O386   O     0.62128   0.92970   0.18009   0.00000  Uiso   1.00
C387   C     0.61107   0.94999   0.12699   0.00000  Uiso   1.00
H388   H     0.62332   0.99216   0.13844   0.00000  Uiso   1.00
H389   H     0.57450   0.94916   0.11395   0.00000  Uiso   1.00
C390   C     0.63457   0.92126   0.07109   0.00000  Uiso   1.00
H391   H     0.67112   0.92299   0.08341   0.00000  Uiso   1.00
H392   H     0.62179   0.87924   0.05728   0.00000  Uiso   1.00
C393   C     0.62641   0.94646   0.01609   0.00000  Uiso   1.00
H394   H     0.58999   0.94425   0.00165   0.00000  Uiso   1.00
H395   H     0.64419   0.92499   0.31006   0.00000  Uiso   1.00
H396   H     0.63935   0.98846   0.02815   0.00000  Uiso   1.00
C397   C     0.24864   0.06655   0.48439   0.00000  Uiso   1.00
C398   C     0.25120   0.26677   0.51561   0.00000  Uiso   1.00
C399   C     0.02004   0.07137   0.48207   0.00000  Uiso   1.00
C400   C     0.48059   0.26272   0.53529   0.00000  Uiso   1.00
C401   C     0.24809   0.01058   0.47559   0.00000  Uiso   1.00
C402   C     0.25141   0.32273   0.52439   0.00000  Uiso   1.00
C403   C     0.16460   0.16770   0.50109   0.00000  Uiso   1.00
C404   C     0.33541   0.16594   0.49884   0.00000  Uiso   1.00
C405   C     0.40865   0.21345   0.51676   0.00000  Uiso   1.00
C406   C     0.09179   0.12067   0.49503   0.00000  Uiso   1.00
C407   C     0.38347   0.16554   0.49666   0.00000  Uiso   1.00
C408   C     0.11654   0.16867   0.50322   0.00000  Uiso   1.00
C409   C     0.40403   0.11767   0.47739   0.00000  Uiso   1.00
C410   C     0.09549   0.21669   0.51045   0.00000  Uiso   1.00
C411   C     0.45117   0.11771   0.48592   0.00000  Uiso   1.00
C412   C     0.04894   0.21653   0.51695   0.00000  Uiso   1.00
C413   C     0.47664   0.16660   0.50325   0.00000  Uiso   1.00
C414   C     0.02365   0.16759   0.50506   0.00000  Uiso   1.00
C415   C     0.45518   0.21455   0.51816   0.00000  Uiso   1.00
C416   C     0.04526   0.11961   0.49390   0.00000  Uiso   1.00
C417   C     0.47338   0.07037   0.47802   0.00000  Uiso   1.00
C418   C     0.02711   0.26375   0.53456   0.00000  Uiso   1.00
Cu419  Cu    0.25501   0.17246   0.56146   0.00000  Uiso   1.00
Cu420  Cu    0.24500   0.16087   0.43854   0.00000  Uiso   1.00
H421   H     0.39179   0.24989   0.53053   0.00000  Uiso   1.00
H422   H     0.10888   0.08413   0.48782   0.00000  Uiso   1.00
H423   H     0.45481   0.03240   0.46832   0.00000  Uiso   1.00
H424   H     0.04588   0.30161   0.54748   0.00000  Uiso   1.00
H425   H     0.03638   0.03438   0.47468   0.00000  Uiso   1.00
H426   H     0.46442   0.29968   0.54818   0.00000  Uiso   1.00
H427   H     0.24507   0.32005   0.42857   0.00000  Uiso   1.00
H428   H     0.25436   0.01327   0.57140   0.00000  Uiso   1.00
H429   H     0.21496   0.12599   0.64954   0.00000  Uiso   1.00
H430   H     0.28507   0.20731   0.35046   0.00000  Uiso   1.00
N431   N     0.23745   0.15214   0.34617   0.00000  Uiso   1.00
N432   N     0.26256   0.18119   0.65383   0.00000  Uiso   1.00
O433   O     0.25326   0.09538   0.53992   0.00000  Uiso   1.00
O434   O     0.24675   0.23796   0.46008   0.00000  Uiso   1.00
O435   O     0.24480   0.08559   0.43612   0.00000  Uiso   1.00
O436   O     0.25520   0.24774   0.56388   0.00000  Uiso   1.00
O437   O     0.18936   0.17155   0.55191   0.00000  Uiso   1.00
O438   O     0.31065   0.16179   0.44809   0.00000  Uiso   1.00
O439   O     0.18090   0.16176   0.44810   0.00000  Uiso   1.00
O440   O     0.31910   0.17157   0.55190   0.00000  Uiso   1.00
O441   O     0.37740   0.07127   0.45541   0.00000  Uiso   1.00
C442   C     0.38271   0.05046   0.39185   0.00000  Uiso   1.00
H443   H     0.37405   0.00728   0.38194   0.00000  Uiso   1.00
H444   H     0.41774   0.05504   0.37906   0.00000  Uiso   1.00
C445   C     0.35128   0.07496   0.35033   0.00000  Uiso   1.00
H446   H     0.31599   0.06845   0.36078   0.00000  Uiso   1.00
H447   H     0.35973   0.11812   0.35905   0.00000  Uiso   1.00
C448   C     0.35593   0.05064   0.61552   0.00000  Uiso   1.00
H449   H     0.39100   0.05674   0.60389   0.00000  Uiso   1.00
H450   H     0.33358   0.06986   0.58657   0.00000  Uiso   1.00
H451   H     0.34636   0.00764   0.60465   0.00000  Uiso   1.00
O452   O     0.12128   0.26303   0.51342   0.00000  Uiso   1.00
C453   C     0.11107   0.28332   0.46032   0.00000  Uiso   1.00
H454   H     0.12332   0.32550   0.47177   0.00000  Uiso   1.00
H455   H     0.07450   0.28249   0.44728   0.00000  Uiso   1.00
C456   C     0.13457   0.25460   0.40442   0.00000  Uiso   1.00
H457   H     0.17112   0.25633   0.41674   0.00000  Uiso   1.00
H458   H     0.12179   0.21258   0.39061   0.00000  Uiso   1.00
C459   C     0.12641   0.27979   0.34942   0.00000  Uiso   1.00
H460   H     0.08999   0.27759   0.33498   0.00000  Uiso   1.00
H461   H     0.14419   0.25832   0.64340   0.00000  Uiso   1.00
H462   H     0.13935   0.32179   0.36148   0.00000  Uiso   1.00
C463   C     0.74864   0.06655   0.48439   0.00000  Uiso   1.00
C464   C     0.75120   0.26677   0.51561   0.00000  Uiso   1.00
C465   C     0.52004   0.07137   0.48207   0.00000  Uiso   1.00
C466   C     0.98059   0.26272   0.53529   0.00000  Uiso   1.00
C467   C     0.74809   0.01058   0.47559   0.00000  Uiso   1.00
C468   C     0.75141   0.32273   0.52439   0.00000  Uiso   1.00
C469   C     0.66460   0.16770   0.50109   0.00000  Uiso   1.00
C470   C     0.83541   0.16594   0.49884   0.00000  Uiso   1.00
C471   C     0.90865   0.21345   0.51676   0.00000  Uiso   1.00
C472   C     0.59179   0.12067   0.49503   0.00000  Uiso   1.00
C473   C     0.88347   0.16554   0.49666   0.00000  Uiso   1.00
C474   C     0.61654   0.16867   0.50322   0.00000  Uiso   1.00
C475   C     0.90403   0.11767   0.47739   0.00000  Uiso   1.00
C476   C     0.59549   0.21669   0.51045   0.00000  Uiso   1.00
C477   C     0.95117   0.11771   0.48592   0.00000  Uiso   1.00
C478   C     0.54894   0.21653   0.51695   0.00000  Uiso   1.00
C479   C     0.97664   0.16660   0.50325   0.00000  Uiso   1.00
C480   C     0.52365   0.16759   0.50506   0.00000  Uiso   1.00
C481   C     0.95518   0.21455   0.51816   0.00000  Uiso   1.00
C482   C     0.54526   0.11961   0.49390   0.00000  Uiso   1.00
C483   C     0.97338   0.07037   0.47802   0.00000  Uiso   1.00
C484   C     0.52711   0.26375   0.53456   0.00000  Uiso   1.00
Cu485  Cu    0.75501   0.17246   0.56146   0.00000  Uiso   1.00
Cu486  Cu    0.74500   0.16087   0.43854   0.00000  Uiso   1.00
H487   H     0.89179   0.24989   0.53053   0.00000  Uiso   1.00
H488   H     0.60888   0.08413   0.48782   0.00000  Uiso   1.00
H489   H     0.95481   0.03240   0.46832   0.00000  Uiso   1.00
H490   H     0.54588   0.30161   0.54748   0.00000  Uiso   1.00
H491   H     0.53638   0.03438   0.47468   0.00000  Uiso   1.00
H492   H     0.96442   0.29968   0.54818   0.00000  Uiso   1.00
H493   H     0.74507   0.32005   0.42857   0.00000  Uiso   1.00
H494   H     0.75436   0.01327   0.57140   0.00000  Uiso   1.00
H495   H     0.71496   0.12599   0.64954   0.00000  Uiso   1.00
H496   H     0.78507   0.20731   0.35046   0.00000  Uiso   1.00
N497   N     0.73745   0.15214   0.34617   0.00000  Uiso   1.00
N498   N     0.76256   0.18119   0.65383   0.00000  Uiso   1.00
O499   O     0.75326   0.09538   0.53992   0.00000  Uiso   1.00
O500   O     0.74675   0.23796   0.46008   0.00000  Uiso   1.00
O501   O     0.74480   0.08559   0.43612   0.00000  Uiso   1.00
O502   O     0.75520   0.24774   0.56388   0.00000  Uiso   1.00
O503   O     0.68936   0.17155   0.55191   0.00000  Uiso   1.00
O504   O     0.81065   0.16179   0.44809   0.00000  Uiso   1.00
O505   O     0.68090   0.16176   0.44810   0.00000  Uiso   1.00
O506   O     0.81910   0.17157   0.55190   0.00000  Uiso   1.00
O507   O     0.87740   0.07127   0.45541   0.00000  Uiso   1.00
C508   C     0.88271   0.05046   0.39185   0.00000  Uiso   1.00
H509   H     0.87405   0.00728   0.38194   0.00000  Uiso   1.00
H510   H     0.91774   0.05504   0.37906   0.00000  Uiso   1.00
C511   C     0.85128   0.07496   0.35033   0.00000  Uiso   1.00
H512   H     0.81599   0.06845   0.36078   0.00000  Uiso   1.00
H513   H     0.85973   0.11812   0.35905   0.00000  Uiso   1.00
C514   C     0.85593   0.05064   0.61552   0.00000  Uiso   1.00
H515   H     0.89100   0.05674   0.60389   0.00000  Uiso   1.00
H516   H     0.83358   0.06986   0.58657   0.00000  Uiso   1.00
H517   H     0.84636   0.00764   0.60465   0.00000  Uiso   1.00
O518   O     0.62128   0.26303   0.51342   0.00000  Uiso   1.00
C519   C     0.61107   0.28332   0.46032   0.00000  Uiso   1.00
H520   H     0.62332   0.32550   0.47177   0.00000  Uiso   1.00
H521   H     0.57450   0.28249   0.44728   0.00000  Uiso   1.00
C522   C     0.63457   0.25460   0.40442   0.00000  Uiso   1.00
H523   H     0.67112   0.25633   0.41674   0.00000  Uiso   1.00
H524   H     0.62179   0.21258   0.39061   0.00000  Uiso   1.00
C525   C     0.62641   0.27979   0.34942   0.00000  Uiso   1.00
H526   H     0.58999   0.27759   0.33498   0.00000  Uiso   1.00
H527   H     0.64419   0.25832   0.64340   0.00000  Uiso   1.00
H528   H     0.63935   0.32179   0.36148   0.00000  Uiso   1.00
C529   C     0.24864   0.39989   0.48439   0.00000  Uiso   1.00
C530   C     0.25120   0.60011   0.51561   0.00000  Uiso   1.00
C531   C     0.02004   0.40471   0.48207   0.00000  Uiso   1.00
C532   C     0.48059   0.59606   0.53529   0.00000  Uiso   1.00
C533   C     0.24809   0.34391   0.47559   0.00000  Uiso   1.00
C534   C     0.25141   0.65606   0.52439   0.00000  Uiso   1.00
C535   C     0.16460   0.50104   0.50109   0.00000  Uiso   1.00
C536   C     0.33541   0.49928   0.49884   0.00000  Uiso   1.00
C537   C     0.40865   0.54678   0.51676   0.00000  Uiso   1.00
C538   C     0.09179   0.45400   0.49503   0.00000  Uiso   1.00
C539   C     0.38347   0.49887   0.49666   0.00000  Uiso   1.00
C540   C     0.11654   0.50200   0.50322   0.00000  Uiso   1.00
C541   C     0.40403   0.45100   0.47739   0.00000  Uiso   1.00
C542   C     0.09549   0.55003   0.51045   0.00000  Uiso   1.00
C543   C     0.45117   0.45104   0.48592   0.00000  Uiso   1.00
C544   C     0.04894   0.54986   0.51695   0.00000  Uiso   1.00
C545   C     0.47664   0.49993   0.50325   0.00000  Uiso   1.00
C546   C     0.02365   0.50092   0.50506   0.00000  Uiso   1.00
C547   C     0.45518   0.54788   0.51816   0.00000  Uiso   1.00
C548   C     0.04526   0.45294   0.49390   0.00000  Uiso   1.00
C549   C     0.47338   0.40370   0.47802   0.00000  Uiso   1.00
C550   C     0.02711   0.59708   0.53456   0.00000  Uiso   1.00
Cu551  Cu    0.25501   0.50579   0.56146   0.00000  Uiso   1.00
Cu552  Cu    0.24500   0.49421   0.43854   0.00000  Uiso   1.00
H553   H     0.39179   0.58322   0.53053   0.00000  Uiso   1.00
H554   H     0.10888   0.41747   0.48782   0.00000  Uiso   1.00
H555   H     0.45481   0.36573   0.46832   0.00000  Uiso   1.00
H556   H     0.04588   0.63495   0.54748   0.00000  Uiso   1.00
H557   H     0.03638   0.36771   0.47468   0.00000  Uiso   1.00
H558   H     0.46442   0.63301   0.54818   0.00000  Uiso   1.00
H559   H     0.24507   0.65338   0.42857   0.00000  Uiso   1.00
H560   H     0.25436   0.34660   0.57140   0.00000  Uiso   1.00
H561   H     0.21496   0.45932   0.64954   0.00000  Uiso   1.00
H562   H     0.28507   0.54064   0.35046   0.00000  Uiso   1.00
N563   N     0.23745   0.48547   0.34617   0.00000  Uiso   1.00
N564   N     0.26256   0.51453   0.65383   0.00000  Uiso   1.00
O565   O     0.25326   0.42871   0.53992   0.00000  Uiso   1.00
O566   O     0.24675   0.57129   0.46008   0.00000  Uiso   1.00
O567   O     0.24480   0.41892   0.43612   0.00000  Uiso   1.00
O568   O     0.25520   0.58108   0.56388   0.00000  Uiso   1.00
O569   O     0.18936   0.50488   0.55191   0.00000  Uiso   1.00
O570   O     0.31065   0.49512   0.44809   0.00000  Uiso   1.00
O571   O     0.18090   0.49510   0.44810   0.00000  Uiso   1.00
O572   O     0.31910   0.50490   0.55190   0.00000  Uiso   1.00
O573   O     0.37740   0.40460   0.45541   0.00000  Uiso   1.00
C574   C     0.38271   0.38380   0.39185   0.00000  Uiso   1.00
H575   H     0.37405   0.34061   0.38194   0.00000  Uiso   1.00
H576   H     0.41774   0.38837   0.37906   0.00000  Uiso   1.00
C577   C     0.35128   0.40829   0.35033   0.00000  Uiso   1.00
H578   H     0.31599   0.40178   0.36078   0.00000  Uiso   1.00
H579   H     0.35973   0.45145   0.35905   0.00000  Uiso   1.00
C580   C     0.35593   0.38398   0.61552   0.00000  Uiso   1.00
H581   H     0.39100   0.39007   0.60389   0.00000  Uiso   1.00
H582   H     0.33358   0.40319   0.58657   0.00000  Uiso   1.00
H583   H     0.34636   0.34097   0.60465   0.00000  Uiso   1.00
O584   O     0.12128   0.59636   0.51342   0.00000  Uiso   1.00
C585   C     0.11107   0.61666   0.46032   0.00000  Uiso   1.00
H586   H     0.12332   0.65883   0.47177   0.00000  Uiso   1.00
H587   H     0.07450   0.61583   0.44728   0.00000  Uiso   1.00
C588   C     0.13457   0.58793   0.40442   0.00000  Uiso   1.00
H589   H     0.17112   0.58966   0.41674   0.00000  Uiso   1.00
H590   H     0.12179   0.54591   0.39061   0.00000  Uiso   1.00
C591   C     0.12641   0.61312   0.34942   0.00000  Uiso   1.00
H592   H     0.08999   0.61092   0.33498   0.00000  Uiso   1.00
H593   H     0.14419   0.59166   0.64340   0.00000  Uiso   1.00
H594   H     0.13935   0.65512   0.36148   0.00000  Uiso   1.00
C595   C     0.74864   0.39989   0.48439   0.00000  Uiso   1.00
C596   C     0.75120   0.60011   0.51561   0.00000  Uiso   1.00
C597   C     0.52004   0.40471   0.48207   0.00000  Uiso   1.00
C598   C     0.98059   0.59606   0.53529   0.00000  Uiso   1.00
C599   C     0.74809   0.34391   0.47559   0.00000  Uiso   1.00
C600   C     0.75141   0.65606   0.52439   0.00000  Uiso   1.00
C601   C     0.66460   0.50104   0.50109   0.00000  Uiso   1.00
C602   C     0.83541   0.49928   0.49884   0.00000  Uiso   1.00
C603   C     0.90865   0.54678   0.51676   0.00000  Uiso   1.00
C604   C     0.59179   0.45400   0.49503   0.00000  Uiso   1.00
C605   C     0.88347   0.49887   0.49666   0.00000  Uiso   1.00
C606   C     0.61654   0.50200   0.50322   0.00000  Uiso   1.00
C607   C     0.90403   0.45100   0.47739   0.00000  Uiso   1.00
C608   C     0.59549   0.55003   0.51045   0.00000  Uiso   1.00
C609   C     0.95117   0.45104   0.48592   0.00000  Uiso   1.00
C610   C     0.54894   0.54986   0.51695   0.00000  Uiso   1.00
C611   C     0.97664   0.49993   0.50325   0.00000  Uiso   1.00
C612   C     0.52365   0.50092   0.50506   0.00000  Uiso   1.00
C613   C     0.95518   0.54788   0.51816   0.00000  Uiso   1.00
C614   C     0.54526   0.45294   0.49390   0.00000  Uiso   1.00
C615   C     0.97338   0.40370   0.47802   0.00000  Uiso   1.00
C616   C     0.52711   0.59708   0.53456   0.00000  Uiso   1.00
Cu617  Cu    0.75501   0.50579   0.56146   0.00000  Uiso   1.00
Cu618  Cu    0.74500   0.49421   0.43854   0.00000  Uiso   1.00
H619   H     0.89179   0.58322   0.53053   0.00000  Uiso   1.00
H620   H     0.60888   0.41747   0.48782   0.00000  Uiso   1.00
H621   H     0.95481   0.36573   0.46832   0.00000  Uiso   1.00
H622   H     0.54588   0.63495   0.54748   0.00000  Uiso   1.00
H623   H     0.53638   0.36771   0.47468   0.00000  Uiso   1.00
H624   H     0.96442   0.63301   0.54818   0.00000  Uiso   1.00
H625   H     0.74507   0.65338   0.42857   0.00000  Uiso   1.00
H626   H     0.75436   0.34660   0.57140   0.00000  Uiso   1.00
H627   H     0.71496   0.45932   0.64954   0.00000  Uiso   1.00
H628   H     0.78507   0.54064   0.35046   0.00000  Uiso   1.00
N629   N     0.73745   0.48547   0.34617   0.00000  Uiso   1.00
N630   N     0.76256   0.51453   0.65383   0.00000  Uiso   1.00
O631   O     0.75326   0.42871   0.53992   0.00000  Uiso   1.00
O632   O     0.74675   0.57129   0.46008   0.00000  Uiso   1.00
O633   O     0.74480   0.41892   0.43612   0.00000  Uiso   1.00
O634   O     0.75520   0.58108   0.56388   0.00000  Uiso   1.00
O635   O     0.68936   0.50488   0.55191   0.00000  Uiso   1.00
O636   O     0.81065   0.49512   0.44809   0.00000  Uiso   1.00
O637   O     0.68090   0.49510   0.44810   0.00000  Uiso   1.00
O638   O     0.81910   0.50490   0.55190   0.00000  Uiso   1.00
O639   O     0.87740   0.40460   0.45541   0.00000  Uiso   1.00
C640   C     0.88271   0.38380   0.39185   0.00000  Uiso   1.00
H641   H     0.87405   0.34061   0.38194   0.00000  Uiso   1.00
H642   H     0.91774   0.38837   0.37906   0.00000  Uiso   1.00
C643   C     0.85128   0.40829   0.35033   0.00000  Uiso   1.00
H644   H     0.81599   0.40178   0.36078   0.00000  Uiso   1.00
H645   H     0.85973   0.45145   0.35905   0.00000  Uiso   1.00
C646   C     0.85593   0.38398   0.61552   0.00000  Uiso   1.00
H647   H     0.89100   0.39007   0.60389   0.00000  Uiso   1.00
H648   H     0.83358   0.40319   0.58657   0.00000  Uiso   1.00
H649   H     0.84636   0.34097   0.60465   0.00000  Uiso   1.00
O650   O     0.62128   0.59636   0.51342   0.00000  Uiso   1.00
C651   C     0.61107   0.61666   0.46032   0.00000  Uiso   1.00
H652   H     0.62332   0.65883   0.47177   0.00000  Uiso   1.00
H653   H     0.57450   0.61583   0.44728   0.00000  Uiso   1.00
C654   C     0.63457   0.58793   0.40442   0.00000  Uiso   1.00
H655   H     0.67112   0.58966   0.41674   0.00000  Uiso   1.00
H656   H     0.62179   0.54591   0.39061   0.00000  Uiso   1.00
C657   C     0.62641   0.61312   0.34942   0.00000  Uiso   1.00
H658   H     0.58999   0.61092   0.33498   0.00000  Uiso   1.00
H659   H     0.64419   0.59166   0.64340   0.00000  Uiso   1.00
H660   H     0.63935   0.65512   0.36148   0.00000  Uiso   1.00
C661   C     0.24864   0.73322   0.48439   0.00000  Uiso   1.00
C662   C     0.25120   0.93344   0.51561   0.00000  Uiso   1.00
C663   C     0.02004   0.73804   0.48207   0.00000  Uiso   1.00
C664   C     0.48059   0.92939   0.53529   0.00000  Uiso   1.00
C665   C     0.24809   0.67725   0.47559   0.00000  Uiso   1.00
C666   C     0.25141   0.98939   0.52439   0.00000  Uiso   1.00
C667   C     0.16460   0.83437   0.50109   0.00000  Uiso   1.00
C668   C     0.33541   0.83261   0.49884   0.00000  Uiso   1.00
C669   C     0.40865   0.88011   0.51676   0.00000  Uiso   1.00
C670   C     0.09179   0.78733   0.49503   0.00000  Uiso   1.00
C671   C     0.38347   0.83221   0.49666   0.00000  Uiso   1.00
C672   C     0.11654   0.83533   0.50322   0.00000  Uiso   1.00
C673   C     0.40403   0.78434   0.47739   0.00000  Uiso   1.00
C674   C     0.09549   0.88336   0.51045   0.00000  Uiso   1.00
C675   C     0.45117   0.78438   0.48592   0.00000  Uiso   1.00
C676   C     0.04894   0.88319   0.51695   0.00000  Uiso   1.00
C677   C     0.47664   0.83326   0.50325   0.00000  Uiso   1.00
C678   C     0.02365   0.83426   0.50506   0.00000  Uiso   1.00
C679   C     0.45518   0.88121   0.51816   0.00000  Uiso   1.00
C680   C     0.04526   0.78627   0.49390   0.00000  Uiso   1.00
C681   C     0.47338   0.73703   0.47802   0.00000  Uiso   1.00
C682   C     0.02711   0.93042   0.53456   0.00000  Uiso   1.00
Cu683  Cu    0.25501   0.83913   0.56146   0.00000  Uiso   1.00
Cu684  Cu    0.24500   0.82754   0.43854   0.00000  Uiso   1.00
H685   H     0.39179   0.91656   0.53053   0.00000  Uiso   1.00
H686   H     0.10888   0.75080   0.48782   0.00000  Uiso   1.00
H687   H     0.45481   0.69907   0.46832   0.00000  Uiso   1.00
H688   H     0.04588   0.96828   0.54748   0.00000  Uiso   1.00
H689   H     0.03638   0.70105   0.47468   0.00000  Uiso   1.00
H690   H     0.46442   0.96634   0.54818   0.00000  Uiso   1.00
H691   H     0.24507   0.98671   0.42857   0.00000  Uiso   1.00
H692   H     0.25436   0.67993   0.57140   0.00000  Uiso   1.00
H693   H     0.21496   0.79265   0.64954   0.00000  Uiso   1.00
H694   H     0.28507   0.87398   0.35046   0.00000  Uiso   1.00
N695   N     0.23745   0.81881   0.34617   0.00000  Uiso   1.00
N696   N     0.26256   0.84786   0.65383   0.00000  Uiso   1.00
O697   O     0.25326   0.76204   0.53992   0.00000  Uiso   1.00
O698   O     0.24675   0.90462   0.46008   0.00000  Uiso   1.00
O699   O     0.24480   0.75226   0.43612   0.00000  Uiso   1.00
O700   O     0.25520   0.91441   0.56388   0.00000  Uiso   1.00
O701   O     0.18936   0.83821   0.55191   0.00000  Uiso   1.00
O702   O     0.31065   0.82845   0.44809   0.00000  Uiso   1.00
O703   O     0.18090   0.82843   0.44810   0.00000  Uiso   1.00
O704   O     0.31910   0.83824   0.55190   0.00000  Uiso   1.00
O705   O     0.37740   0.73793   0.45541   0.00000  Uiso   1.00
C706   C     0.38271   0.71713   0.39185   0.00000  Uiso   1.00
H707   H     0.37405   0.67394   0.38194   0.00000  Uiso   1.00
H708   H     0.41774   0.72170   0.37906   0.00000  Uiso   1.00
C709   C     0.35128   0.74163   0.35033   0.00000  Uiso   1.00
H710   H     0.31599   0.73512   0.36078   0.00000  Uiso   1.00
H711   H     0.35973   0.78478   0.35905   0.00000  Uiso   1.00
C712   C     0.35593   0.71731   0.61552   0.00000  Uiso   1.00
H713   H     0.39100   0.72340   0.60389   0.00000  Uiso   1.00
H714   H     0.33358   0.73652   0.58657   0.00000  Uiso   1.00
H715   H     0.34636   0.67430   0.60465   0.00000  Uiso   1.00
O716   O     0.12128   0.92970   0.51342   0.00000  Uiso   1.00
C717   C     0.11107   0.94999   0.46032   0.00000  Uiso   1.00
H718   H     0.12332   0.99216   0.47177   0.00000  Uiso   1.00
H719   H     0.07450   0.94916   0.44728   0.00000  Uiso   1.00
C720   C     0.13457   0.92126   0.40442   0.00000  Uiso   1.00
H721   H     0.17112   0.92299   0.41674   0.00000  Uiso   1.00
H722   H     0.12179   0.87924   0.39061   0.00000  Uiso   1.00
C723   C     0.12641   0.94646   0.34942   0.00000  Uiso   1.00
H724   H     0.08999   0.94425   0.33498   0.00000  Uiso   1.00
H725   H     0.14419   0.92499   0.64340   0.00000  Uiso   1.00
H726   H     0.13935   0.98846   0.36148   0.00000  Uiso   1.00
C727   C     0.74864   0.73322   0.48439   0.00000  Uiso   1.00
C728   C     0.75120   0.93344   0.51561   0.00000  Uiso   1.00
C729   C     0.52004   0.73804   0.48207   0.00000  Uiso   1.00
C730   C     0.98059   0.92939   0.53529   0.00000  Uiso   1.00
C731   C     0.74809   0.67725   0.47559   0.00000  Uiso   1.00
C732   C     0.75141   0.98939   0.52439   0.00000  Uiso   1.00
C733   C     0.66460   0.83437   0.50109   0.00000  Uiso   1.00
C734   C     0.83541   0.83261   0.49884   0.00000  Uiso   1.00
C735   C     0.90865   0.88011   0.51676   0.00000  Uiso   1.00
C736   C     0.59179   0.78733   0.49503   0.00000  Uiso   1.00
C737   C     0.88347   0.83221   0.49666   0.00000  Uiso   1.00
C738   C     0.61654   0.83533   0.50322   0.00000  Uiso   1.00
C739   C     0.90403   0.78434   0.47739   0.00000  Uiso   1.00
C740   C     0.59549   0.88336   0.51045   0.00000  Uiso   1.00
C741   C     0.95117   0.78438   0.48592   0.00000  Uiso   1.00
C742   C     0.54894   0.88319   0.51695   0.00000  Uiso   1.00
C743   C     0.97664   0.83326   0.50325   0.00000  Uiso   1.00
C744   C     0.52365   0.83426   0.50506   0.00000  Uiso   1.00
C745   C     0.95518   0.88121   0.51816   0.00000  Uiso   1.00
C746   C     0.54526   0.78627   0.49390   0.00000  Uiso   1.00
C747   C     0.97338   0.73703   0.47802   0.00000  Uiso   1.00
C748   C     0.52711   0.93042   0.53456   0.00000  Uiso   1.00
Cu749  Cu    0.75501   0.83913   0.56146   0.00000  Uiso   1.00
Cu750  Cu    0.74500   0.82754   0.43854   0.00000  Uiso   1.00
H751   H     0.89179   0.91656   0.53053   0.00000  Uiso   1.00
H752   H     0.60888   0.75080   0.48782   0.00000  Uiso   1.00
H753   H     0.95481   0.69907   0.46832   0.00000  Uiso   1.00
H754   H     0.54588   0.96828   0.54748   0.00000  Uiso   1.00
H755   H     0.53638   0.70105   0.47468   0.00000  Uiso   1.00
H756   H     0.96442   0.96634   0.54818   0.00000  Uiso   1.00
H757   H     0.74507   0.98671   0.42857   0.00000  Uiso   1.00
H758   H     0.75436   0.67993   0.57140   0.00000  Uiso   1.00
H759   H     0.71496   0.79265   0.64954   0.00000  Uiso   1.00
H760   H     0.78507   0.87398   0.35046   0.00000  Uiso   1.00
N761   N     0.73745   0.81881   0.34617   0.00000  Uiso   1.00
N762   N     0.76256   0.84786   0.65383   0.00000  Uiso   1.00
O763   O     0.75326   0.76204   0.53992   0.00000  Uiso   1.00
O764   O     0.74675   0.90462   0.46008   0.00000  Uiso   1.00
O765   O     0.74480   0.75226   0.43612   0.00000  Uiso   1.00
O766   O     0.75520   0.91441   0.56388   0.00000  Uiso   1.00
O767   O     0.68936   0.83821   0.55191   0.00000  Uiso   1.00
O768   O     0.81065   0.82845   0.44809   0.00000  Uiso   1.00
O769   O     0.68090   0.82843   0.44810   0.00000  Uiso   1.00
O770   O     0.81910   0.83824   0.55190   0.00000  Uiso   1.00
O771   O     0.87740   0.73793   0.45541   0.00000  Uiso   1.00
C772   C     0.88271   0.71713   0.39185   0.00000  Uiso   1.00
H773   H     0.87405   0.67394   0.38194   0.00000  Uiso   1.00
H774   H     0.91774   0.72170   0.37906   0.00000  Uiso   1.00
C775   C     0.85128   0.74163   0.35033   0.00000  Uiso   1.00
H776   H     0.81599   0.73512   0.36078   0.00000  Uiso   1.00
H777   H     0.85973   0.78478   0.35905   0.00000  Uiso   1.00
C778   C     0.85593   0.71731   0.61552   0.00000  Uiso   1.00
H779   H     0.89100   0.72340   0.60389   0.00000  Uiso   1.00
H780   H     0.83358   0.73652   0.58657   0.00000  Uiso   1.00
H781   H     0.84636   0.67430   0.60465   0.00000  Uiso   1.00
O782   O     0.62128   0.92970   0.51342   0.00000  Uiso   1.00
C783   C     0.61107   0.94999   0.46032   0.00000  Uiso   1.00
H784   H     0.62332   0.99216   0.47177   0.00000  Uiso   1.00
H785   H     0.57450   0.94916   0.44728   0.00000  Uiso   1.00
C786   C     0.63457   0.92126   0.40442   0.00000  Uiso   1.00
H787   H     0.67112   0.92299   0.41674   0.00000  Uiso   1.00
H788   H     0.62179   0.87924   0.39061   0.00000  Uiso   1.00
C789   C     0.62641   0.94646   0.34942   0.00000  Uiso   1.00
H790   H     0.58999   0.94425   0.33498   0.00000  Uiso   1.00
H791   H     0.64419   0.92499   0.64340   0.00000  Uiso   1.00
H792   H     0.63935   0.98846   0.36148   0.00000  Uiso   1.00
C793   C     0.24864   0.06655   0.81773   0.00000  Uiso   1.00
C794   C     0.25120   0.26677   0.84894   0.00000  Uiso   1.00
C795   C     0.02004   0.07137   0.81540   0.00000  Uiso   1.00
C796   C     0.48059   0.26272   0.86863   0.00000  Uiso   1.00
C797   C     0.24809   0.01058   0.80892   0.00000  Uiso   1.00
C798   C     0.25141   0.32273   0.85772   0.00000  Uiso   1.00
C799   C     0.16460   0.16770   0.83443   0.00000  Uiso   1.00
C800   C     0.33541   0.16594   0.83217   0.00000  Uiso   1.00
C801   C     0.40865   0.21345   0.85010   0.00000  Uiso   1.00
C802   C     0.09179   0.12067   0.82837   0.00000  Uiso   1.00
C803   C     0.38347   0.16554   0.83000   0.00000  Uiso   1.00
C804   C     0.11654   0.16867   0.83655   0.00000  Uiso   1.00
C805   C     0.40403   0.11767   0.81072   0.00000  Uiso   1.00
C806   C     0.09549   0.21669   0.84378   0.00000  Uiso   1.00
C807   C     0.45117   0.11771   0.81926   0.00000  Uiso   1.00
C808   C     0.04894   0.21653   0.85029   0.00000  Uiso   1.00
C809   C     0.47664   0.16660   0.83658   0.00000  Uiso   1.00
C810   C     0.02365   0.16759   0.83839   0.00000  Uiso   1.00
C811   C     0.45518   0.21455   0.85150   0.00000  Uiso   1.00
C812   C     0.04526   0.11961   0.82723   0.00000  Uiso   1.00
C813   C     0.47338   0.07037   0.81135   0.00000  Uiso   1.00
C814   C     0.02711   0.26375   0.86789   0.00000  Uiso   1.00
Cu815  Cu    0.25501   0.17246   0.89479   0.00000  Uiso   1.00
Cu816  Cu    0.24500   0.16087   0.77187   0.00000  Uiso   1.00
H817   H     0.39179   0.24989   0.86386   0.00000  Uiso   1.00
H818   H     0.10888   0.08413   0.82116   0.00000  Uiso   1.00
H819   H     0.45481   0.03240   0.80165   0.00000  Uiso   1.00
H820   H     0.04588   0.30161   0.88082   0.00000  Uiso   1.00
H821   H     0.03638   0.03438   0.80801   0.00000  Uiso   1.00
H822   H     0.46442   0.29968   0.88151   0.00000  Uiso   1.00
H823   H     0.24507   0.32005   0.76191   0.00000  Uiso   1.00
H824   H     0.25436   0.01327   0.90473   0.00000  Uiso   1.00
H825   H     0.21496   0.12599   0.98287   0.00000  Uiso   1.00
H826   H     0.28507   0.20731   0.68380   0.00000  Uiso   1.00
N827   N     0.23745   0.15214   0.67951   0.00000  Uiso   1.00
N828   N     0.26256   0.18119   0.98716   0.00000  Uiso   1.00
O829   O     0.25326   0.09538   0.87326   0.00000  Uiso   1.00
O830   O     0.24675   0.23796   0.79341   0.00000  Uiso   1.00
O831   O     0.24480   0.08559   0.76945   0.00000  Uiso   1.00
O832   O     0.25520   0.24774   0.89721   0.00000  Uiso   1.00
O833   O     0.18936   0.17155   0.88524   0.00000  Uiso   1.00
O834   O     0.31065   0.16179   0.78143   0.00000  Uiso   1.00
O835   O     0.18090   0.16176   0.78143   0.00000  Uiso   1.00
O836   O     0.31910   0.17157   0.88523   0.00000  Uiso   1.00
O837   O     0.37740   0.07127   0.78875   0.00000  Uiso   1.00
C838   C     0.38271   0.05046   0.72518   0.00000  Uiso   1.00
H839   H     0.37405   0.00728   0.71528   0.00000  Uiso   1.00
H840   H     0.41774   0.05504   0.71239   0.00000  Uiso   1.00
C841   C     0.35128   0.07496   0.68366   0.00000  Uiso   1.00
H842   H     0.31599   0.06845   0.69411   0.00000  Uiso   1.00
H843   H     0.35973   0.11812   0.69238   0.00000  Uiso   1.00
C844   C     0.35593   0.05064   0.94885   0.00000  Uiso   1.00
H845   H     0.39100   0.05674   0.93722   0.00000  Uiso   1.00
H846   H     0.33358   0.06986   0.91991   0.00000  Uiso   1.00
H847   H     0.34636   0.00764   0.93799   0.00000  Uiso   1.00
O848   O     0.12128   0.26303   0.84676   0.00000  Uiso   1.00
C849   C     0.11107   0.28332   0.79365   0.00000  Uiso   1.00
H850   H     0.12332   0.32550   0.80511   0.00000  Uiso   1.00
H851   H     0.07450   0.28249   0.78061   0.00000  Uiso   1.00
C852   C     0.13457   0.25460   0.73776   0.00000  Uiso   1.00
H853   H     0.17112   0.25633   0.75007   0.00000  Uiso   1.00
H854   H     0.12179   0.21258   0.72394   0.00000  Uiso   1.00
C855   C     0.12641   0.27979   0.68276   0.00000  Uiso   1.00
H856   H     0.08999   0.27759   0.66832   0.00000  Uiso   1.00
H857   H     0.14419   0.25832   0.97673   0.00000  Uiso   1.00
H858   H     0.13935   0.32179   0.69481   0.00000  Uiso   1.00
C859   C     0.74864   0.06655   0.81773   0.00000  Uiso   1.00
C860   C     0.75120   0.26677   0.84894   0.00000  Uiso   1.00
C861   C     0.52004   0.07137   0.81540   0.00000  Uiso   1.00
C862   C     0.98059   0.26272   0.86863   0.00000  Uiso   1.00
C863   C     0.74809   0.01058   0.80892   0.00000  Uiso   1.00
C864   C     0.75141   0.32273   0.85772   0.00000  Uiso   1.00
C865   C     0.66460   0.16770   0.83443   0.00000  Uiso   1.00
C866   C     0.83541   0.16594   0.83217   0.00000  Uiso   1.00
C867   C     0.90865   0.21345   0.85010   0.00000  Uiso   1.00
C868   C     0.59179   0.12067   0.82837   0.00000  Uiso   1.00
C869   C     0.88347   0.16554   0.83000   0.00000  Uiso   1.00
C870   C     0.61654   0.16867   0.83655   0.00000  Uiso   1.00
C871   C     0.90403   0.11767   0.81072   0.00000  Uiso   1.00
C872   C     0.59549   0.21669   0.84378   0.00000  Uiso   1.00
C873   C     0.95117   0.11771   0.81926   0.00000  Uiso   1.00
C874   C     0.54894   0.21653   0.85029   0.00000  Uiso   1.00
C875   C     0.97664   0.16660   0.83658   0.00000  Uiso   1.00
C876   C     0.52365   0.16759   0.83839   0.00000  Uiso   1.00
C877   C     0.95518   0.21455   0.85150   0.00000  Uiso   1.00
C878   C     0.54526   0.11961   0.82723   0.00000  Uiso   1.00
C879   C     0.97338   0.07037   0.81135   0.00000  Uiso   1.00
C880   C     0.52711   0.26375   0.86789   0.00000  Uiso   1.00
Cu881  Cu    0.75501   0.17246   0.89479   0.00000  Uiso   1.00
Cu882  Cu    0.74500   0.16087   0.77187   0.00000  Uiso   1.00
H883   H     0.89179   0.24989   0.86386   0.00000  Uiso   1.00
H884   H     0.60888   0.08413   0.82116   0.00000  Uiso   1.00
H885   H     0.95481   0.03240   0.80165   0.00000  Uiso   1.00
H886   H     0.54588   0.30161   0.88082   0.00000  Uiso   1.00
H887   H     0.53638   0.03438   0.80801   0.00000  Uiso   1.00
H888   H     0.96442   0.29968   0.88151   0.00000  Uiso   1.00
H889   H     0.74507   0.32005   0.76191   0.00000  Uiso   1.00
H890   H     0.75436   0.01327   0.90473   0.00000  Uiso   1.00
H891   H     0.71496   0.12599   0.98287   0.00000  Uiso   1.00
H892   H     0.78507   0.20731   0.68380   0.00000  Uiso   1.00
N893   N     0.73745   0.15214   0.67951   0.00000  Uiso   1.00
N894   N     0.76256   0.18119   0.98716   0.00000  Uiso   1.00
O895   O     0.75326   0.09538   0.87326   0.00000  Uiso   1.00
O896   O     0.74675   0.23796   0.79341   0.00000  Uiso   1.00
O897   O     0.74480   0.08559   0.76945   0.00000  Uiso   1.00
O898   O     0.75520   0.24774   0.89721   0.00000  Uiso   1.00
O899   O     0.68936   0.17155   0.88524   0.00000  Uiso   1.00
O900   O     0.81065   0.16179   0.78143   0.00000  Uiso   1.00
O901   O     0.68090   0.16176   0.78143   0.00000  Uiso   1.00
O902   O     0.81910   0.17157   0.88523   0.00000  Uiso   1.00
O903   O     0.87740   0.07127   0.78875   0.00000  Uiso   1.00
C904   C     0.88271   0.05046   0.72518   0.00000  Uiso   1.00
H905   H     0.87405   0.00728   0.71528   0.00000  Uiso   1.00
H906   H     0.91774   0.05504   0.71239   0.00000  Uiso   1.00
C907   C     0.85128   0.07496   0.68366   0.00000  Uiso   1.00
H908   H     0.81599   0.06845   0.69411   0.00000  Uiso   1.00
H909   H     0.85973   0.11812   0.69238   0.00000  Uiso   1.00
C910   C     0.85593   0.05064   0.94885   0.00000  Uiso   1.00
H911   H     0.89100   0.05674   0.93722   0.00000  Uiso   1.00
H912   H     0.83358   0.06986   0.91991   0.00000  Uiso   1.00
H913   H     0.84636   0.00764   0.93799   0.00000  Uiso   1.00
O914   O     0.62128   0.26303   0.84676   0.00000  Uiso   1.00
C915   C     0.61107   0.28332   0.79365   0.00000  Uiso   1.00
H916   H     0.62332   0.32550   0.80511   0.00000  Uiso   1.00
H917   H     0.57450   0.28249   0.78061   0.00000  Uiso   1.00
C918   C     0.63457   0.25460   0.73776   0.00000  Uiso   1.00
H919   H     0.67112   0.25633   0.75007   0.00000  Uiso   1.00
H920   H     0.62179   0.21258   0.72394   0.00000  Uiso   1.00
C921   C     0.62641   0.27979   0.68276   0.00000  Uiso   1.00
H922   H     0.58999   0.27759   0.66832   0.00000  Uiso   1.00
H923   H     0.64419   0.25832   0.97673   0.00000  Uiso   1.00
H924   H     0.63935   0.32179   0.69481   0.00000  Uiso   1.00
C925   C     0.24864   0.39989   0.81773   0.00000  Uiso   1.00
C926   C     0.25120   0.60011   0.84894   0.00000  Uiso   1.00
C927   C     0.02004   0.40471   0.81540   0.00000  Uiso   1.00
C928   C     0.48059   0.59606   0.86863   0.00000  Uiso   1.00
C929   C     0.24809   0.34391   0.80892   0.00000  Uiso   1.00
C930   C     0.25141   0.65606   0.85772   0.00000  Uiso   1.00
C931   C     0.16460   0.50104   0.83443   0.00000  Uiso   1.00
C932   C     0.33541   0.49928   0.83217   0.00000  Uiso   1.00
C933   C     0.40865   0.54678   0.85010   0.00000  Uiso   1.00
C934   C     0.09179   0.45400   0.82837   0.00000  Uiso   1.00
C935   C     0.38347   0.49887   0.83000   0.00000  Uiso   1.00
C936   C     0.11654   0.50200   0.83655   0.00000  Uiso   1.00
C937   C     0.40403   0.45100   0.81072   0.00000  Uiso   1.00
C938   C     0.09549   0.55003   0.84378   0.00000  Uiso   1.00
C939   C     0.45117   0.45104   0.81926   0.00000  Uiso   1.00
C940   C     0.04894   0.54986   0.85029   0.00000  Uiso   1.00
C941   C     0.47664   0.49993   0.83658   0.00000  Uiso   1.00
C942   C     0.02365   0.50092   0.83839   0.00000  Uiso   1.00
C943   C     0.45518   0.54788   0.85150   0.00000  Uiso   1.00
C944   C     0.04526   0.45294   0.82723   0.00000  Uiso   1.00
C945   C     0.47338   0.40370   0.81135   0.00000  Uiso   1.00
C946   C     0.02711   0.59708   0.86789   0.00000  Uiso   1.00
Cu947  Cu    0.25501   0.50579   0.89479   0.00000  Uiso   1.00
Cu948  Cu    0.24500   0.49421   0.77187   0.00000  Uiso   1.00
H949   H     0.39179   0.58322   0.86386   0.00000  Uiso   1.00
H950   H     0.10888   0.41747   0.82116   0.00000  Uiso   1.00
H951   H     0.45481   0.36573   0.80165   0.00000  Uiso   1.00
H952   H     0.04588   0.63495   0.88082   0.00000  Uiso   1.00
H953   H     0.03638   0.36771   0.80801   0.00000  Uiso   1.00
H954   H     0.46442   0.63301   0.88151   0.00000  Uiso   1.00
H955   H     0.24507   0.65338   0.76191   0.00000  Uiso   1.00
H956   H     0.25436   0.34660   0.90473   0.00000  Uiso   1.00
H957   H     0.21496   0.45932   0.98287   0.00000  Uiso   1.00
H958   H     0.28507   0.54064   0.68380   0.00000  Uiso   1.00
N959   N     0.23745   0.48547   0.67951   0.00000  Uiso   1.00
N960   N     0.26256   0.51453   0.98716   0.00000  Uiso   1.00
O961   O     0.25326   0.42871   0.87326   0.00000  Uiso   1.00
O962   O     0.24675   0.57129   0.79341   0.00000  Uiso   1.00
O963   O     0.24480   0.41892   0.76945   0.00000  Uiso   1.00
O964   O     0.25520   0.58108   0.89721   0.00000  Uiso   1.00
O965   O     0.18936   0.50488   0.88524   0.00000  Uiso   1.00
O966   O     0.31065   0.49512   0.78143   0.00000  Uiso   1.00
O967   O     0.18090   0.49510   0.78143   0.00000  Uiso   1.00
O968   O     0.31910   0.50490   0.88523   0.00000  Uiso   1.00
O969   O     0.37740   0.40460   0.78875   0.00000  Uiso   1.00
C970   C     0.38271   0.38380   0.72518   0.00000  Uiso   1.00
H971   H     0.37405   0.34061   0.71528   0.00000  Uiso   1.00
H972   H     0.41774   0.38837   0.71239   0.00000  Uiso   1.00
C973   C     0.35128   0.40829   0.68366   0.00000  Uiso   1.00
H974   H     0.31599   0.40178   0.69411   0.00000  Uiso   1.00
H975   H     0.35973   0.45145   0.69238   0.00000  Uiso   1.00
C976   C     0.35593   0.38398   0.94885   0.00000  Uiso   1.00
H977   H     0.39100   0.39007   0.93722   0.00000  Uiso   1.00
H978   H     0.33358   0.40319   0.91991   0.00000  Uiso   1.00
H979   H     0.34636   0.34097   0.93799   0.00000  Uiso   1.00
O980   O     0.12128   0.59636   0.84676   0.00000  Uiso   1.00
C981   C     0.11107   0.61666   0.79365   0.00000  Uiso   1.00
H982   H     0.12332   0.65883   0.80511   0.00000  Uiso   1.00
H983   H     0.07450   0.61583   0.78061   0.00000  Uiso   1.00
C984   C     0.13457   0.58793   0.73776   0.00000  Uiso   1.00
H985   H     0.17112   0.58966   0.75007   0.00000  Uiso   1.00
H986   H     0.12179   0.54591   0.72394   0.00000  Uiso   1.00
C987   C     0.12641   0.61312   0.68276   0.00000  Uiso   1.00
H988   H     0.08999   0.61092   0.66832   0.00000  Uiso   1.00
H989   H     0.14419   0.59166   0.97673   0.00000  Uiso   1.00
H990   H     0.13935   0.65512   0.69481   0.00000  Uiso   1.00
C991   C     0.74864   0.39989   0.81773   0.00000  Uiso   1.00
C992   C     0.75120   0.60011   0.84894   0.00000  Uiso   1.00
C993   C     0.52004   0.40471   0.81540   0.00000  Uiso   1.00
C994   C     0.98059   0.59606   0.86863   0.00000  Uiso   1.00
C995   C     0.74809   0.34391   0.80892   0.00000  Uiso   1.00
C996   C     0.75141   0.65606   0.85772   0.00000  Uiso   1.00
C997   C     0.66460   0.50104   0.83443   0.00000  Uiso   1.00
C998   C     0.83541   0.49928   0.83217   0.00000  Uiso   1.00
C999   C     0.90865   0.54678   0.85010   0.00000  Uiso   1.00
C1000  C     0.59179   0.45400   0.82837   0.00000  Uiso   1.00
C1001  C     0.88347   0.49887   0.83000   0.00000  Uiso   1.00
C1002  C     0.61654   0.50200   0.83655   0.00000  Uiso   1.00
C1003  C     0.90403   0.45100   0.81072   0.00000  Uiso   1.00
C1004  C     0.59549   0.55003   0.84378   0.00000  Uiso   1.00
C1005  C     0.95117   0.45104   0.81926   0.00000  Uiso   1.00
C1006  C     0.54894   0.54986   0.85029   0.00000  Uiso   1.00
C1007  C     0.97664   0.49993   0.83658   0.00000  Uiso   1.00
C1008  C     0.52365   0.50092   0.83839   0.00000  Uiso   1.00
C1009  C     0.95518   0.54788   0.85150   0.00000  Uiso   1.00
C1010  C     0.54526   0.45294   0.82723   0.00000  Uiso   1.00
C1011  C     0.97338   0.40370   0.81135   0.00000  Uiso   1.00
C1012  C     0.52711   0.59708   0.86789   0.00000  Uiso   1.00
Cu1013 Cu    0.75501   0.50579   0.89479   0.00000  Uiso   1.00
Cu1014 Cu    0.74500   0.49421   0.77187   0.00000  Uiso   1.00
H1015  H     0.89179   0.58322   0.86386   0.00000  Uiso   1.00
H1016  H     0.60888   0.41747   0.82116   0.00000  Uiso   1.00
H1017  H     0.95481   0.36573   0.80165   0.00000  Uiso   1.00
H1018  H     0.54588   0.63495   0.88082   0.00000  Uiso   1.00
H1019  H     0.53638   0.36771   0.80801   0.00000  Uiso   1.00
H1020  H     0.96442   0.63301   0.88151   0.00000  Uiso   1.00
H1021  H     0.74507   0.65338   0.76191   0.00000  Uiso   1.00
H1022  H     0.75436   0.34660   0.90473   0.00000  Uiso   1.00
H1023  H     0.71496   0.45932   0.98287   0.00000  Uiso   1.00
H1024  H     0.78507   0.54064   0.68380   0.00000  Uiso   1.00
N1025  N     0.73745   0.48547   0.67951   0.00000  Uiso   1.00
N1026  N     0.76256   0.51453   0.98716   0.00000  Uiso   1.00
O1027  O     0.75326   0.42871   0.87326   0.00000  Uiso   1.00
O1028  O     0.74675   0.57129   0.79341   0.00000  Uiso   1.00
O1029  O     0.74480   0.41892   0.76945   0.00000  Uiso   1.00
O1030  O     0.75520   0.58108   0.89721   0.00000  Uiso   1.00
O1031  O     0.68936   0.50488   0.88524   0.00000  Uiso   1.00
O1032  O     0.81065   0.49512   0.78143   0.00000  Uiso   1.00
O1033  O     0.68090   0.49510   0.78143   0.00000  Uiso   1.00
O1034  O     0.81910   0.50490   0.88523   0.00000  Uiso   1.00
O1035  O     0.87740   0.40460   0.78875   0.00000  Uiso   1.00
C1036  C     0.88271   0.38380   0.72518   0.00000  Uiso   1.00
H1037  H     0.87405   0.34061   0.71528   0.00000  Uiso   1.00
H1038  H     0.91774   0.38837   0.71239   0.00000  Uiso   1.00
C1039  C     0.85128   0.40829   0.68366   0.00000  Uiso   1.00
H1040  H     0.81599   0.40178   0.69411   0.00000  Uiso   1.00
H1041  H     0.85973   0.45145   0.69238   0.00000  Uiso   1.00
C1042  C     0.85593   0.38398   0.94885   0.00000  Uiso   1.00
H1043  H     0.89100   0.39007   0.93722   0.00000  Uiso   1.00
H1044  H     0.83358   0.40319   0.91991   0.00000  Uiso   1.00
H1045  H     0.84636   0.34097   0.93799   0.00000  Uiso   1.00
O1046  O     0.62128   0.59636   0.84676   0.00000  Uiso   1.00
C1047  C     0.61107   0.61666   0.79365   0.00000  Uiso   1.00
H1048  H     0.62332   0.65883   0.80511   0.00000  Uiso   1.00
H1049  H     0.57450   0.61583   0.78061   0.00000  Uiso   1.00
C1050  C     0.63457   0.58793   0.73776   0.00000  Uiso   1.00
H1051  H     0.67112   0.58966   0.75007   0.00000  Uiso   1.00
H1052  H     0.62179   0.54591   0.72394   0.00000  Uiso   1.00
C1053  C     0.62641   0.61312   0.68276   0.00000  Uiso   1.00
H1054  H     0.58999   0.61092   0.66832   0.00000  Uiso   1.00
H1055  H     0.64419   0.59166   0.97673   0.00000  Uiso   1.00
H1056  H     0.63935   0.65512   0.69481   0.00000  Uiso   1.00
C1057  C     0.24864   0.73322   0.81773   0.00000  Uiso   1.00
C1058  C     0.25120   0.93344   0.84894   0.00000  Uiso   1.00
C1059  C     0.02004   0.73804   0.81540   0.00000  Uiso   1.00
C1060  C     0.48059   0.92939   0.86863   0.00000  Uiso   1.00
C1061  C     0.24809   0.67725   0.80892   0.00000  Uiso   1.00
C1062  C     0.25141   0.98939   0.85772   0.00000  Uiso   1.00
C1063  C     0.16460   0.83437   0.83443   0.00000  Uiso   1.00
C1064  C     0.33541   0.83261   0.83217   0.00000  Uiso   1.00
C1065  C     0.40865   0.88011   0.85010   0.00000  Uiso   1.00
C1066  C     0.09179   0.78733   0.82837   0.00000  Uiso   1.00
C1067  C     0.38347   0.83221   0.83000   0.00000  Uiso   1.00
C1068  C     0.11654   0.83533   0.83655   0.00000  Uiso   1.00
C1069  C     0.40403   0.78434   0.81072   0.00000  Uiso   1.00
C1070  C     0.09549   0.88336   0.84378   0.00000  Uiso   1.00
C1071  C     0.45117   0.78438   0.81926   0.00000  Uiso   1.00
C1072  C     0.04894   0.88319   0.85029   0.00000  Uiso   1.00
C1073  C     0.47664   0.83326   0.83658   0.00000  Uiso   1.00
C1074  C     0.02365   0.83426   0.83839   0.00000  Uiso   1.00
C1075  C     0.45518   0.88121   0.85150   0.00000  Uiso   1.00
C1076  C     0.04526   0.78627   0.82723   0.00000  Uiso   1.00
C1077  C     0.47338   0.73703   0.81135   0.00000  Uiso   1.00
C1078  C     0.02711   0.93042   0.86789   0.00000  Uiso   1.00
Cu1079 Cu    0.25501   0.83913   0.89479   0.00000  Uiso   1.00
Cu1080 Cu    0.24500   0.82754   0.77187   0.00000  Uiso   1.00
H1081  H     0.39179   0.91656   0.86386   0.00000  Uiso   1.00
H1082  H     0.10888   0.75080   0.82116   0.00000  Uiso   1.00
H1083  H     0.45481   0.69907   0.80165   0.00000  Uiso   1.00
H1084  H     0.04588   0.96828   0.88082   0.00000  Uiso   1.00
H1085  H     0.03638   0.70105   0.80801   0.00000  Uiso   1.00
H1086  H     0.46442   0.96634   0.88151   0.00000  Uiso   1.00
H1087  H     0.24507   0.98671   0.76191   0.00000  Uiso   1.00
H1088  H     0.25436   0.67993   0.90473   0.00000  Uiso   1.00
H1089  H     0.21496   0.79265   0.98287   0.00000  Uiso   1.00
H1090  H     0.28507   0.87398   0.68380   0.00000  Uiso   1.00
N1091  N     0.23745   0.81881   0.67951   0.00000  Uiso   1.00
N1092  N     0.26256   0.84786   0.98716   0.00000  Uiso   1.00
O1093  O     0.25326   0.76204   0.87326   0.00000  Uiso   1.00
O1094  O     0.24675   0.90462   0.79341   0.00000  Uiso   1.00
O1095  O     0.24480   0.75226   0.76945   0.00000  Uiso   1.00
O1096  O     0.25520   0.91441   0.89721   0.00000  Uiso   1.00
O1097  O     0.18936   0.83821   0.88524   0.00000  Uiso   1.00
O1098  O     0.31065   0.82845   0.78143   0.00000  Uiso   1.00
O1099  O     0.18090   0.82843   0.78143   0.00000  Uiso   1.00
O1100  O     0.31910   0.83824   0.88523   0.00000  Uiso   1.00
O1101  O     0.37740   0.73793   0.78875   0.00000  Uiso   1.00
C1102  C     0.38271   0.71713   0.72518   0.00000  Uiso   1.00
H1103  H     0.37405   0.67394   0.71528   0.00000  Uiso   1.00
H1104  H     0.41774   0.72170   0.71239   0.00000  Uiso   1.00
C1105  C     0.35128   0.74163   0.68366   0.00000  Uiso   1.00
H1106  H     0.31599   0.73512   0.69411   0.00000  Uiso   1.00
H1107  H     0.35973   0.78478   0.69238   0.00000  Uiso   1.00
C1108  C     0.35593   0.71731   0.94885   0.00000  Uiso   1.00
H1109  H     0.39100   0.72340   0.93722   0.00000  Uiso   1.00
H1110  H     0.33358   0.73652   0.91991   0.00000  Uiso   1.00
H1111  H     0.34636   0.67430   0.93799   0.00000  Uiso   1.00
O1112  O     0.12128   0.92970   0.84676   0.00000  Uiso   1.00
C1113  C     0.11107   0.94999   0.79365   0.00000  Uiso   1.00
H1114  H     0.12332   0.99216   0.80511   0.00000  Uiso   1.00
H1115  H     0.07450   0.94916   0.78061   0.00000  Uiso   1.00
C1116  C     0.13457   0.92126   0.73776   0.00000  Uiso   1.00
H1117  H     0.17112   0.92299   0.75007   0.00000  Uiso   1.00
H1118  H     0.12179   0.87924   0.72394   0.00000  Uiso   1.00
C1119  C     0.12641   0.94646   0.68276   0.00000  Uiso   1.00
H1120  H     0.08999   0.94425   0.66832   0.00000  Uiso   1.00
H1121  H     0.14419   0.92499   0.97673   0.00000  Uiso   1.00
H1122  H     0.13935   0.98846   0.69481   0.00000  Uiso   1.00
C1123  C     0.74864   0.73322   0.81773   0.00000  Uiso   1.00
C1124  C     0.75120   0.93344   0.84894   0.00000  Uiso   1.00
C1125  C     0.52004   0.73804   0.81540   0.00000  Uiso   1.00
C1126  C     0.98059   0.92939   0.86863   0.00000  Uiso   1.00
C1127  C     0.74809   0.67725   0.80892   0.00000  Uiso   1.00
C1128  C     0.75141   0.98939   0.85772   0.00000  Uiso   1.00
C1129  C     0.66460   0.83437   0.83443   0.00000  Uiso   1.00
C1130  C     0.83541   0.83261   0.83217   0.00000  Uiso   1.00
C1131  C     0.90865   0.88011   0.85010   0.00000  Uiso   1.00
C1132  C     0.59179   0.78733   0.82837   0.00000  Uiso   1.00
C1133  C     0.88347   0.83221   0.83000   0.00000  Uiso   1.00
C1134  C     0.61654   0.83533   0.83655   0.00000  Uiso   1.00
C1135  C     0.90403   0.78434   0.81072   0.00000  Uiso   1.00
C1136  C     0.59549   0.88336   0.84378   0.00000  Uiso   1.00
C1137  C     0.95117   0.78438   0.81926   0.00000  Uiso   1.00
C1138  C     0.54894   0.88319   0.85029   0.00000  Uiso   1.00
C1139  C     0.97664   0.83326   0.83658   0.00000  Uiso   1.00
C1140  C     0.52365   0.83426   0.83839   0.00000  Uiso   1.00
C1141  C     0.95518   0.88121   0.85150   0.00000  Uiso   1.00
C1142  C     0.54526   0.78627   0.82723   0.00000  Uiso   1.00
C1143  C     0.97338   0.73703   0.81135   0.00000  Uiso   1.00
C1144  C     0.52711   0.93042   0.86789   0.00000  Uiso   1.00
Cu1145 Cu    0.75501   0.83913   0.89479   0.00000  Uiso   1.00
Cu1146 Cu    0.74500   0.82754   0.77187   0.00000  Uiso   1.00
H1147  H     0.89179   0.91656   0.86386   0.00000  Uiso   1.00
H1148  H     0.60888   0.75080   0.82116   0.00000  Uiso   1.00
H1149  H     0.95481   0.69907   0.80165   0.00000  Uiso   1.00
H1150  H     0.54588   0.96828   0.88082   0.00000  Uiso   1.00
H1151  H     0.53638   0.70105   0.80801   0.00000  Uiso   1.00
H1152  H     0.96442   0.96634   0.88151   0.00000  Uiso   1.00
H1153  H     0.74507   0.98671   0.76191   0.00000  Uiso   1.00
H1154  H     0.75436   0.67993   0.90473   0.00000  Uiso   1.00
H1155  H     0.71496   0.79265   0.98287   0.00000  Uiso   1.00
H1156  H     0.78507   0.87398   0.68380   0.00000  Uiso   1.00
N1157  N     0.73745   0.81881   0.67951   0.00000  Uiso   1.00
N1158  N     0.76256   0.84786   0.98716   0.00000  Uiso   1.00
O1159  O     0.75326   0.76204   0.87326   0.00000  Uiso   1.00
O1160  O     0.74675   0.90462   0.79341   0.00000  Uiso   1.00
O1161  O     0.74480   0.75226   0.76945   0.00000  Uiso   1.00
O1162  O     0.75520   0.91441   0.89721   0.00000  Uiso   1.00
O1163  O     0.68936   0.83821   0.88524   0.00000  Uiso   1.00
O1164  O     0.81065   0.82845   0.78143   0.00000  Uiso   1.00
O1165  O     0.68090   0.82843   0.78143   0.00000  Uiso   1.00
O1166  O     0.81910   0.83824   0.88523   0.00000  Uiso   1.00
O1167  O     0.87740   0.73793   0.78875   0.00000  Uiso   1.00
C1168  C     0.88271   0.71713   0.72518   0.00000  Uiso   1.00
H1169  H     0.87405   0.67394   0.71528   0.00000  Uiso   1.00
H1170  H     0.91774   0.72170   0.71239   0.00000  Uiso   1.00
C1171  C     0.85128   0.74163   0.68366   0.00000  Uiso   1.00
H1172  H     0.81599   0.73512   0.69411   0.00000  Uiso   1.00
H1173  H     0.85973   0.78478   0.69238   0.00000  Uiso   1.00
C1174  C     0.85593   0.71731   0.94885   0.00000  Uiso   1.00
H1175  H     0.89100   0.72340   0.93722   0.00000  Uiso   1.00
H1176  H     0.83358   0.73652   0.91991   0.00000  Uiso   1.00
H1177  H     0.84636   0.67430   0.93799   0.00000  Uiso   1.00
O1178  O     0.62128   0.92970   0.84676   0.00000  Uiso   1.00
C1179  C     0.61107   0.94999   0.79365   0.00000  Uiso   1.00
H1180  H     0.62332   0.99216   0.80511   0.00000  Uiso   1.00
H1181  H     0.57450   0.94916   0.78061   0.00000  Uiso   1.00
C1182  C     0.63457   0.92126   0.73776   0.00000  Uiso   1.00
H1183  H     0.67112   0.92299   0.75007   0.00000  Uiso   1.00
H1184  H     0.62179   0.87924   0.72394   0.00000  Uiso   1.00
C1185  C     0.62641   0.94646   0.68276   0.00000  Uiso   1.00
H1186  H     0.58999   0.94425   0.66832   0.00000  Uiso   1.00
H1187  H     0.64419   0.92499   0.97673   0.00000  Uiso   1.00
H1188  H     0.63935   0.98846   0.69481   0.00000  Uiso   1.00
loop_
_geom_bond_atom_site_label_1
_geom_bond_atom_site_label_2
_geom_bond_distance
_geom_bond_site_symmetry_2
_ccdc_geom_bond_type
C1     O37     1.291   .     A
C1     C5      1.424   .     S
C1     O39     1.283   .     A
C2     O38     1.291   .     A
C2     C6      1.424   .     S
C2     O40     1.283   .     A
C3     C20     1.399   .     A
C3     H29     1.083   .     S
C3     C87     1.392   1_455 S
C4     C19     1.400   .     A
C4     H30     1.084   .     S
C4     C88     1.392   .     S
C5     C270    1.326   1_545 S
C5     H295    1.088   1_545 S
C6     C137    1.326   .     S
C6     H164    1.088   .     S
C7     O43     1.289   .     A
C7     O41     1.294   .     A
C7     C12     1.443   .     S
C8     O44     1.291   .     A
C8     C11     1.443   .     S
C8     O42     1.292   .     A
C9     C11     1.395   .     A
C9     H25     1.086   .     S
C9     C19     1.390   .     A
C10    H26     1.084   .     S
C10    C12     1.394   .     A
C10    C20     1.390   .     A
C11    C13     1.405   .     A
C12    C14     1.405   .     A
C13    O45     1.390   .     S
C13    C15     1.411   .     A
C14    O56     1.390   .     S
C14    C16     1.410   .     A
C15    C17     1.416   .     A
C15    C21     1.406   .     A
C16    C18     1.415   .     A
C16    C22     1.406   .     A
C17    C19     1.411   .     A
C17    C84     1.404   .     S
C18    C20     1.410   .     A
C18    C83     1.404   1_455 S
C21    H27     1.083   .     S
C21    C69     1.392   .     S
C22    H28     1.083   .     S
C22    C70     1.392   1_455 S
Cu23   Cu24    2.685   .     S
Cu23   O41     1.961   .     S
Cu23   O40     1.947   .     S
Cu23   N36     2.018   .     S
Cu23   O37     1.952   .     S
Cu23   O44     1.945   .     S
Cu24   O38     1.952   .     S
Cu24   N35     2.018   .     S
Cu24   O39     1.947   .     S
Cu24   O42     1.961   .     S
Cu24   O43     1.945   .     S
H31    C137    1.088   .     S
H32    C270    1.088   1_545 S
H33    N431    1.029   .     S
H34    N828    1.029   1_554 S
N35    H825    1.029   1_554 S
N35    N828    1.292   1_554 S
N36    N431    1.292   .     S
N36    H430    1.029   .     S
O45    C46     1.422   .     S
C46    C49     1.533   .     S
C46    H48     1.113   .     S
C46    H47     1.111   .     S
C49    H51     1.111   .     S
C49    H50     1.111   .     S
C49    C844    1.528   1_554 S
C52    H55     1.111   .     S
C52    H54     1.109   .     S
C52    H53     1.111   .     S
C52    C445    1.528   .     S
O56    C57     1.422   .     S
C57    H58     1.110   .     S
C57    H59     1.112   .     S
C57    C60     1.533   .     S
C60    H62     1.111   .     S
C60    C63     1.527   .     S
C60    H61     1.106   .     S
C63    H66     1.111   .     S
C63    H64     1.111   .     S
C63    H857    1.110   1_554 S
H65    C459    1.110   .     S
C67    O103    1.291   .     A
C67    C71     1.424   .     S
C67    O105    1.283   .     A
C68    O104    1.291   .     A
C68    C72     1.424   .     S
C68    O106    1.283   .     A
C69    C86     1.399   .     A
C69    H95     1.083   .     S
C70    C85     1.400   .     A
C70    H96     1.084   .     S
C70    C22     1.392   1_655 S
C71    C336    1.326   1_545 S
C71    H361    1.088   1_545 S
C72    C203    1.326   .     S
C72    H230    1.088   .     S
C73    O109    1.289   .     A
C73    O107    1.294   .     A
C73    C78     1.443   .     S
C74    O110    1.291   .     A
C74    C77     1.443   .     S
C74    O108    1.292   .     A
C75    C77     1.395   .     A
C75    H91     1.086   .     S
C75    C85     1.390   .     A
C76    H92     1.084   .     S
C76    C78     1.394   .     A
C76    C86     1.390   .     A
C77    C79     1.405   .     A
C78    C80     1.405   .     A
C79    O111    1.390   .     S
C79    C81     1.411   .     A
C80    O122    1.390   .     S
C80    C82     1.410   .     A
C81    C83     1.416   .     A
C81    C87     1.406   .     A
C82    C84     1.415   .     A
C82    C88     1.406   .     A
C83    C85     1.411   .     A
C83    C18     1.404   1_655 S
C84    C86     1.410   .     A
C87    H93     1.083   .     S
C87    C3      1.392   1_655 S
C88    H94     1.083   .     S
Cu89   Cu90    2.685   .     S
Cu89   O107    1.961   .     S
Cu89   O106    1.947   .     S
Cu89   N102    2.018   .     S
Cu89   O103    1.952   .     S
Cu89   O110    1.945   .     S
Cu90   O104    1.952   .     S
Cu90   N101    2.018   .     S
Cu90   O105    1.947   .     S
Cu90   O108    1.961   .     S
Cu90   O109    1.945   .     S
H97    C203    1.088   .     S
H98    C336    1.088   1_545 S
H99    N497    1.029   .     S
H100   N894    1.029   1_554 S
N101   H891    1.029   1_554 S
N101   N894    1.292   1_554 S
N102   N497    1.292   .     S
N102   H496    1.029   .     S
O111   C112    1.422   .     S
C112   C115    1.533   .     S
C112   H114    1.113   .     S
C112   H113    1.111   .     S
C115   H117    1.111   .     S
C115   H116    1.111   .     S
C115   C910    1.528   1_554 S
C118   H121    1.111   .     S
C118   H120    1.109   .     S
C118   H119    1.111   .     S
C118   C511    1.528   .     S
O122   C123    1.422   .     S
C123   H124    1.110   .     S
C123   H125    1.112   .     S
C123   C126    1.533   .     S
C126   H128    1.111   .     S
C126   C129    1.527   .     S
C126   H127    1.106   .     S
C129   H132    1.111   .     S
C129   H130    1.111   .     S
C129   H923    1.110   1_554 S
H131   C525    1.110   .     S
C133   O169    1.291   .     A
C133   C137    1.424   .     S
C133   O171    1.283   .     A
C134   O170    1.291   .     A
C134   C138    1.424   .     S
C134   O172    1.283   .     A
C135   C152    1.399   .     A
C135   H161    1.083   .     S
C135   C219    1.392   1_455 S
C136   C151    1.400   .     A
C136   H162    1.084   .     S
C136   C220    1.392   .     S
C138   C269    1.326   .     S
C138   H296    1.088   .     S
C139   O175    1.289   .     A
C139   O173    1.294   .     A
C139   C144    1.443   .     S
C140   O176    1.291   .     A
C140   C143    1.443   .     S
C140   O174    1.292   .     A
C141   C143    1.395   .     A
C141   H157    1.086   .     S
C141   C151    1.390   .     A
C142   H158    1.084   .     S
C142   C144    1.394   .     A
C142   C152    1.390   .     A
C143   C145    1.405   .     A
C144   C146    1.405   .     A
C145   O177    1.390   .     S
C145   C147    1.411   .     A
C146   O188    1.390   .     S
C146   C148    1.410   .     A
C147   C149    1.416   .     A
C147   C153    1.406   .     A
C148   C150    1.415   .     A
C148   C154    1.406   .     A
C149   C151    1.411   .     A
C149   C216    1.404   .     S
C150   C152    1.410   .     A
C150   C215    1.404   1_455 S
C153   H159    1.083   .     S
C153   C201    1.392   .     S
C154   H160    1.083   .     S
C154   C202    1.392   1_455 S
Cu155  Cu156   2.685   .     S
Cu155  O173    1.961   .     S
Cu155  O172    1.947   .     S
Cu155  N168    2.018   .     S
Cu155  O169    1.952   .     S
Cu155  O176    1.945   .     S
Cu156  O170    1.952   .     S
Cu156  N167    2.018   .     S
Cu156  O171    1.947   .     S
Cu156  O174    1.961   .     S
Cu156  O175    1.945   .     S
H163   C269    1.088   .     S
H165   N563    1.029   .     S
H166   N960    1.029   1_554 S
N167   H957    1.029   1_554 S
N167   N960    1.292   1_554 S
N168   N563    1.292   .     S
N168   H562    1.029   .     S
O177   C178    1.422   .     S
C178   C181    1.533   .     S
C178   H180    1.113   .     S
C178   H179    1.111   .     S
C181   H183    1.111   .     S
C181   H182    1.111   .     S
C181   C976    1.528   1_554 S
C184   H187    1.111   .     S
C184   H186    1.109   .     S
C184   H185    1.111   .     S
C184   C577    1.528   .     S
O188   C189    1.422   .     S
C189   H190    1.110   .     S
C189   H191    1.112   .     S
C189   C192    1.533   .     S
C192   H194    1.111   .     S
C192   C195    1.527   .     S
C192   H193    1.106   .     S
C195   H198    1.111   .     S
C195   H196    1.111   .     S
C195   H989    1.110   1_554 S
H197   C591    1.110   .     S
C199   O235    1.291   .     A
C199   C203    1.424   .     S
C199   O237    1.283   .     A
C200   O236    1.291   .     A
C200   C204    1.424   .     S
C200   O238    1.283   .     A
C201   C218    1.399   .     A
C201   H227    1.083   .     S
C202   C217    1.400   .     A
C202   H228    1.084   .     S
C202   C154    1.392   1_655 S
C204   C335    1.326   .     S
C204   H362    1.088   .     S
C205   O241    1.289   .     A
C205   O239    1.294   .     A
C205   C210    1.443   .     S
C206   O242    1.291   .     A
C206   C209    1.443   .     S
C206   O240    1.292   .     A
C207   C209    1.395   .     A
C207   H223    1.086   .     S
C207   C217    1.390   .     A
C208   H224    1.084   .     S
C208   C210    1.394   .     A
C208   C218    1.390   .     A
C209   C211    1.405   .     A
C210   C212    1.405   .     A
C211   O243    1.390   .     S
C211   C213    1.411   .     A
C212   O254    1.390   .     S
C212   C214    1.410   .     A
C213   C215    1.416   .     A
C213   C219    1.406   .     A
C214   C216    1.415   .     A
C214   C220    1.406   .     A
C215   C217    1.411   .     A
C215   C150    1.404   1_655 S
C216   C218    1.410   .     A
C219   H225    1.083   .     S
C219   C135    1.392   1_655 S
C220   H226    1.083   .     S
Cu221  Cu222   2.685   .     S
Cu221  O239    1.961   .     S
Cu221  O238    1.947   .     S
Cu221  N234    2.018   .     S
Cu221  O235    1.952   .     S
Cu221  O242    1.945   .     S
Cu222  O236    1.952   .     S
Cu222  N233    2.018   .     S
Cu222  O237    1.947   .     S
Cu222  O240    1.961   .     S
Cu222  O241    1.945   .     S
H229   C335    1.088   .     S
H231   N629    1.029   .     S
H232   N1026   1.029   1_554 S
N233   H1023   1.029   1_554 S
N233   N1026   1.292   1_554 S
N234   N629    1.292   .     S
N234   H628    1.029   .     S
O243   C244    1.422   .     S
C244   C247    1.533   .     S
C244   H246    1.113   .     S
C244   H245    1.111   .     S
C247   H249    1.111   .     S
C247   H248    1.111   .     S
C247   C1042   1.528   1_554 S
C250   H253    1.111   .     S
C250   H252    1.109   .     S
C250   H251    1.111   .     S
C250   C643    1.528   .     S
O254   C255    1.422   .     S
C255   H256    1.110   .     S
C255   H257    1.112   .     S
C255   C258    1.533   .     S
C258   H260    1.111   .     S
C258   C261    1.527   .     S
C258   H259    1.106   .     S
C261   H264    1.111   .     S
C261   H262    1.111   .     S
C261   H1055   1.110   1_554 S
H263   C657    1.110   .     S
C265   O301    1.291   .     A
C265   C269    1.424   .     S
C265   O303    1.283   .     A
C266   O302    1.291   .     A
C266   C270    1.424   .     S
C266   O304    1.283   .     A
C267   C284    1.399   .     A
C267   H293    1.083   .     S
C267   C351    1.392   1_455 S
C268   C283    1.400   .     A
C268   H294    1.084   .     S
C268   C352    1.392   .     S
C270   C5      1.326   1_565 S
C270   H32     1.088   1_565 S
C271   O307    1.289   .     A
C271   O305    1.294   .     A
C271   C276    1.443   .     S
C272   O308    1.291   .     A
C272   C275    1.443   .     S
C272   O306    1.292   .     A
C273   C275    1.395   .     A
C273   H289    1.086   .     S
C273   C283    1.390   .     A
C274   H290    1.084   .     S
C274   C276    1.394   .     A
C274   C284    1.390   .     A
C275   C277    1.405   .     A
C276   C278    1.405   .     A
C277   O309    1.390   .     S
C277   C279    1.411   .     A
C278   O320    1.390   .     S
C278   C280    1.410   .     A
C279   C281    1.416   .     A
C279   C285    1.406   .     A
C280   C282    1.415   .     A
C280   C286    1.406   .     A
C281   C283    1.411   .     A
C281   C348    1.404   .     S
C282   C284    1.410   .     A
C282   C347    1.404   1_455 S
C285   H291    1.083   .     S
C285   C333    1.392   .     S
C286   H292    1.083   .     S
C286   C334    1.392   1_455 S
Cu287  Cu288   2.685   .     S
Cu287  O305    1.961   .     S
Cu287  O304    1.947   .     S
Cu287  N300    2.018   .     S
Cu287  O301    1.952   .     S
Cu287  O308    1.945   .     S
Cu288  O302    1.952   .     S
Cu288  N299    2.018   .     S
Cu288  O303    1.947   .     S
Cu288  O306    1.961   .     S
Cu288  O307    1.945   .     S
H295   C5      1.088   1_565 S
H297   N695    1.029   .     S
H298   N1092   1.029   1_554 S
N299   H1089   1.029   1_554 S
N299   N1092   1.292   1_554 S
N300   N695    1.292   .     S
N300   H694    1.029   .     S
O309   C310    1.422   .     S
C310   C313    1.533   .     S
C310   H312    1.113   .     S
C310   H311    1.111   .     S
C313   H315    1.111   .     S
C313   H314    1.111   .     S
C313   C1108   1.528   1_554 S
C316   H319    1.111   .     S
C316   H318    1.109   .     S
C316   H317    1.111   .     S
C316   C709    1.528   .     S
O320   C321    1.422   .     S
C321   H322    1.110   .     S
C321   H323    1.112   .     S
C321   C324    1.533   .     S
C324   H326    1.111   .     S
C324   C327    1.527   .     S
C324   H325    1.106   .     S
C327   H330    1.111   .     S
C327   H328    1.111   .     S
C327   H1121   1.110   1_554 S
H329   C723    1.110   .     S
C331   O367    1.291   .     A
C331   C335    1.424   .     S
C331   O369    1.283   .     A
C332   O368    1.291   .     A
C332   C336    1.424   .     S
C332   O370    1.283   .     A
C333   C350    1.399   .     A
C333   H359    1.083   .     S
C334   C349    1.400   .     A
C334   H360    1.084   .     S
C334   C286    1.392   1_655 S
C336   C71     1.326   1_565 S
C336   H98     1.088   1_565 S
C337   O373    1.289   .     A
C337   O371    1.294   .     A
C337   C342    1.443   .     S
C338   O374    1.291   .     A
C338   C341    1.443   .     S
C338   O372    1.292   .     A
C339   C341    1.395   .     A
C339   H355    1.086   .     S
C339   C349    1.390   .     A
C340   H356    1.084   .     S
C340   C342    1.394   .     A
C340   C350    1.390   .     A
C341   C343    1.405   .     A
C342   C344    1.405   .     A
C343   O375    1.390   .     S
C343   C345    1.411   .     A
C344   O386    1.390   .     S
C344   C346    1.410   .     A
C345   C347    1.416   .     A
C345   C351    1.406   .     A
C346   C348    1.415   .     A
C346   C352    1.406   .     A
C347   C349    1.411   .     A
C347   C282    1.404   1_655 S
C348   C350    1.410   .     A
C351   H357    1.083   .     S
C351   C267    1.392   1_655 S
C352   H358    1.083   .     S
Cu353  Cu354   2.685   .     S
Cu353  O371    1.961   .     S
Cu353  O370    1.947   .     S
Cu353  N366    2.018   .     S
Cu353  O367    1.952   .     S
Cu353  O374    1.945   .     S
Cu354  O368    1.952   .     S
Cu354  N365    2.018   .     S
Cu354  O369    1.947   .     S
Cu354  O372    1.961   .     S
Cu354  O373    1.945   .     S
H361   C71     1.088   1_565 S
H363   N761    1.029   .     S
H364   N1158   1.029   1_554 S
N365   H1155   1.029   1_554 S
N365   N1158   1.292   1_554 S
N366   N761    1.292   .     S
N366   H760    1.029   .     S
O375   C376    1.422   .     S
C376   C379    1.533   .     S
C376   H378    1.113   .     S
C376   H377    1.111   .     S
C379   H381    1.111   .     S
C379   H380    1.111   .     S
C379   C1174   1.528   1_554 S
C382   H385    1.111   .     S
C382   H384    1.109   .     S
C382   H383    1.111   .     S
C382   C775    1.528   .     S
O386   C387    1.422   .     S
C387   H388    1.110   .     S
C387   H389    1.112   .     S
C387   C390    1.533   .     S
C390   H392    1.111   .     S
C390   C393    1.527   .     S
C390   H391    1.106   .     S
C393   H396    1.111   .     S
C393   H394    1.111   .     S
C393   H1187   1.110   1_554 S
H395   C789    1.110   .     S
C397   O433    1.291   .     A
C397   C401    1.424   .     S
C397   O435    1.283   .     A
C398   O434    1.291   .     A
C398   C402    1.424   .     S
C398   O436    1.283   .     A
C399   C416    1.399   .     A
C399   H425    1.083   .     S
C399   C483    1.392   1_455 S
C400   C415    1.400   .     A
C400   H426    1.084   .     S
C400   C484    1.392   .     S
C401   C666    1.326   1_545 S
C401   H691    1.088   1_545 S
C402   C533    1.326   .     S
C402   H560    1.088   .     S
C403   O439    1.289   .     A
C403   O437    1.294   .     A
C403   C408    1.443   .     S
C404   O440    1.291   .     A
C404   C407    1.443   .     S
C404   O438    1.292   .     A
C405   C407    1.395   .     A
C405   H421    1.086   .     S
C405   C415    1.390   .     A
C406   H422    1.084   .     S
C406   C408    1.394   .     A
C406   C416    1.390   .     A
C407   C409    1.405   .     A
C408   C410    1.405   .     A
C409   O441    1.390   .     S
C409   C411    1.411   .     A
C410   O452    1.390   .     S
C410   C412    1.410   .     A
C411   C413    1.416   .     A
C411   C417    1.406   .     A
C412   C414    1.415   .     A
C412   C418    1.406   .     A
C413   C415    1.411   .     A
C413   C480    1.404   .     S
C414   C416    1.410   .     A
C414   C479    1.404   1_455 S
C417   H423    1.083   .     S
C417   C465    1.392   .     S
C418   H424    1.083   .     S
C418   C466    1.392   1_455 S
Cu419  Cu420   2.685   .     S
Cu419  O437    1.961   .     S
Cu419  O436    1.947   .     S
Cu419  N432    2.018   .     S
Cu419  O433    1.952   .     S
Cu419  O440    1.945   .     S
Cu420  O434    1.952   .     S
Cu420  N431    2.018   .     S
Cu420  O435    1.947   .     S
Cu420  O438    1.961   .     S
Cu420  O439    1.945   .     S
H427   C533    1.088   .     S
H428   C666    1.088   1_545 S
H429   N827    1.029   .     S
N432   N827    1.292   .     S
N432   H826    1.029   .     S
O441   C442    1.422   .     S
C442   C445    1.533   .     S
C442   H444    1.113   .     S
C442   H443    1.111   .     S
C445   H447    1.111   .     S
C445   H446    1.111   .     S
C448   H451    1.111   .     S
C448   H450    1.109   .     S
C448   H449    1.111   .     S
C448   C841    1.528   .     S
O452   C453    1.422   .     S
C453   H454    1.110   .     S
C453   H455    1.112   .     S
C453   C456    1.533   .     S
C456   H458    1.111   .     S
C456   C459    1.527   .     S
C456   H457    1.106   .     S
C459   H462    1.111   .     S
C459   H460    1.111   .     S
H461   C855    1.110   .     S
C463   O499    1.291   .     A
C463   C467    1.424   .     S
C463   O501    1.283   .     A
C464   O500    1.291   .     A
C464   C468    1.424   .     S
C464   O502    1.283   .     A
C465   C482    1.399   .     A
C465   H491    1.083   .     S
C466   C481    1.400   .     A
C466   H492    1.084   .     S
C466   C418    1.392   1_655 S
C467   C732    1.326   1_545 S
C467   H757    1.088   1_545 S
C468   C599    1.326   .     S
C468   H626    1.088   .     S
C469   O505    1.289   .     A
C469   O503    1.294   .     A
C469   C474    1.443   .     S
C470   O506    1.291   .     A
C470   C473    1.443   .     S
C470   O504    1.292   .     A
C471   C473    1.395   .     A
C471   H487    1.086   .     S
C471   C481    1.390   .     A
C472   H488    1.084   .     S
C472   C474    1.394   .     A
C472   C482    1.390   .     A
C473   C475    1.405   .     A
C474   C476    1.405   .     A
C475   O507    1.390   .     S
C475   C477    1.411   .     A
C476   O518    1.390   .     S
C476   C478    1.410   .     A
C477   C479    1.416   .     A
C477   C483    1.406   .     A
C478   C480    1.415   .     A
C478   C484    1.406   .     A
C479   C481    1.411   .     A
C479   C414    1.404   1_655 S
C480   C482    1.410   .     A
C483   H489    1.083   .     S
C483   C399    1.392   1_655 S
C484   H490    1.083   .     S
Cu485  Cu486   2.685   .     S
Cu485  O503    1.961   .     S
Cu485  O502    1.947   .     S
Cu485  N498    2.018   .     S
Cu485  O499    1.952   .     S
Cu485  O506    1.945   .     S
Cu486  O500    1.952   .     S
Cu486  N497    2.018   .     S
Cu486  O501    1.947   .     S
Cu486  O504    1.961   .     S
Cu486  O505    1.945   .     S
H493   C599    1.088   .     S
H494   C732    1.088   1_545 S
H495   N893    1.029   .     S
N498   N893    1.292   .     S
N498   H892    1.029   .     S
O507   C508    1.422   .     S
C508   C511    1.533   .     S
C508   H510    1.113   .     S
C508   H509    1.111   .     S
C511   H513    1.111   .     S
C511   H512    1.111   .     S
C514   H517    1.111   .     S
C514   H516    1.109   .     S
C514   H515    1.111   .     S
C514   C907    1.528   .     S
O518   C519    1.422   .     S
C519   H520    1.110   .     S
C519   H521    1.112   .     S
C519   C522    1.533   .     S
C522   H524    1.111   .     S
C522   C525    1.527   .     S
C522   H523    1.106   .     S
C525   H528    1.111   .     S
C525   H526    1.111   .     S
H527   C921    1.110   .     S
C529   O565    1.291   .     A
C529   C533    1.424   .     S
C529   O567    1.283   .     A
C530   O566    1.291   .     A
C530   C534    1.424   .     S
C530   O568    1.283   .     A
C531   C548    1.399   .     A
C531   H557    1.083   .     S
C531   C615    1.392   1_455 S
C532   C547    1.400   .     A
C532   H558    1.084   .     S
C532   C616    1.392   .     S
C534   C665    1.326   .     S
C534   H692    1.088   .     S
C535   O571    1.289   .     A
C535   O569    1.294   .     A
C535   C540    1.443   .     S
C536   O572    1.291   .     A
C536   C539    1.443   .     S
C536   O570    1.292   .     A
C537   C539    1.395   .     A
C537   H553    1.086   .     S
C537   C547    1.390   .     A
C538   H554    1.084   .     S
C538   C540    1.394   .     A
C538   C548    1.390   .     A
C539   C541    1.405   .     A
C540   C542    1.405   .     A
C541   O573    1.390   .     S
C541   C543    1.411   .     A
C542   O584    1.390   .     S
C542   C544    1.410   .     A
C543   C545    1.416   .     A
C543   C549    1.406   .     A
C544   C546    1.415   .     A
C544   C550    1.406   .     A
C545   C547    1.411   .     A
C545   C612    1.404   .     S
C546   C548    1.410   .     A
C546   C611    1.404   1_455 S
C549   H555    1.083   .     S
C549   C597    1.392   .     S
C550   H556    1.083   .     S
C550   C598    1.392   1_455 S
Cu551  Cu552   2.685   .     S
Cu551  O569    1.961   .     S
Cu551  O568    1.947   .     S
Cu551  N564    2.018   .     S
Cu551  O565    1.952   .     S
Cu551  O572    1.945   .     S
Cu552  O566    1.952   .     S
Cu552  N563    2.018   .     S
Cu552  O567    1.947   .     S
Cu552  O570    1.961   .     S
Cu552  O571    1.945   .     S
H559   C665    1.088   .     S
H561   N959    1.029   .     S
N564   N959    1.292   .     S
N564   H958    1.029   .     S
O573   C574    1.422   .     S
C574   C577    1.533   .     S
C574   H576    1.113   .     S
C574   H575    1.111   .     S
C577   H579    1.111   .     S
C577   H578    1.111   .     S
C580   H583    1.111   .     S
C580   H582    1.109   .     S
C580   H581    1.111   .     S
C580   C973    1.528   .     S
O584   C585    1.422   .     S
C585   H586    1.110   .     S
C585   H587    1.112   .     S
C585   C588    1.533   .     S
C588   H590    1.111   .     S
C588   C591    1.527   .     S
C588   H589    1.106   .     S
C591   H594    1.111   .     S
C591   H592    1.111   .     S
H593   C987    1.110   .     S
C595   O631    1.291   .     A
C595   C599    1.424   .     S
C595   O633    1.283   .     A
C596   O632    1.291   .     A
C596   C600    1.424   .     S
C596   O634    1.283   .     A
C597   C614    1.399   .     A
C597   H623    1.083   .     S
C598   C613    1.400   .     A
C598   H624    1.084   .     S
C598   C550    1.392   1_655 S
C600   C731    1.326   .     S
C600   H758    1.088   .     S
C601   O637    1.289   .     A
C601   O635    1.294   .     A
C601   C606    1.443   .     S
C602   O638    1.291   .     A
C602   C605    1.443   .     S
C602   O636    1.292   .     A
C603   C605    1.395   .     A
C603   H619    1.086   .     S
C603   C613    1.390   .     A
C604   H620    1.084   .     S
C604   C606    1.394   .     A
C604   C614    1.390   .     A
C605   C607    1.405   .     A
C606   C608    1.405   .     A
C607   O639    1.390   .     S
C607   C609    1.411   .     A
C608   O650    1.390   .     S
C608   C610    1.410   .     A
C609   C611    1.416   .     A
C609   C615    1.406   .     A
C610   C612    1.415   .     A
C610   C616    1.406   .     A
C611   C613    1.411   .     A
C611   C546    1.404   1_655 S
C612   C614    1.410   .     A
C615   H621    1.083   .     S
C615   C531    1.392   1_655 S
C616   H622    1.083   .     S
Cu617  Cu618   2.685   .     S
Cu617  O635    1.961   .     S
Cu617  O634    1.947   .     S
Cu617  N630    2.018   .     S
Cu617  O631    1.952   .     S
Cu617  O638    1.945   .     S
Cu618  O632    1.952   .     S
Cu618  N629    2.018   .     S
Cu618  O633    1.947   .     S
Cu618  O636    1.961   .     S
Cu618  O637    1.945   .     S
H625   C731    1.088   .     S
H627   N1025   1.029   .     S
N630   N1025   1.292   .     S
N630   H1024   1.029   .     S
O639   C640    1.422   .     S
C640   C643    1.533   .     S
C640   H642    1.113   .     S
C640   H641    1.111   .     S
C643   H645    1.111   .     S
C643   H644    1.111   .     S
C646   H649    1.111   .     S
C646   H648    1.109   .     S
C646   H647    1.111   .     S
C646   C1039   1.528   .     S
O650   C651    1.422   .     S
C651   H652    1.110   .     S
C651   H653    1.112   .     S
C651   C654    1.533   .     S
C654   H656    1.111   .     S
C654   C657    1.527   .     S
C654   H655    1.106   .     S
C657   H660    1.111   .     S
C657   H658    1.111   .     S
H659   C1053   1.110   .     S
C661   O697    1.291   .     A
C661   C665    1.424   .     S
C661   O699    1.283   .     A
C662   O698    1.291   .     A
C662   C666    1.424   .     S
C662   O700    1.283   .     A
C663   C680    1.399   .     A
C663   H689    1.083   .     S
C663   C747    1.392   1_455 S
C664   C679    1.400   .     A
C664   H690    1.084   .     S
C664   C748    1.392   .     S
C666   C401    1.326   1_565 S
C666   H428    1.088   1_565 S
C667   O703    1.289   .     A
C667   O701    1.294   .     A
C667   C672    1.443   .     S
C668   O704    1.291   .     A
C668   C671    1.443   .     S
C668   O702    1.292   .     A
C669   C671    1.395   .     A
C669   H685    1.086   .     S
C669   C679    1.390   .     A
C670   H686    1.084   .     S
C670   C672    1.394   .     A
C670   C680    1.390   .     A
C671   C673    1.405   .     A
C672   C674    1.405   .     A
C673   O705    1.390   .     S
C673   C675    1.411   .     A
C674   O716    1.390   .     S
C674   C676    1.410   .     A
C675   C677    1.416   .     A
C675   C681    1.406   .     A
C676   C678    1.415   .     A
C676   C682    1.406   .     A
C677   C679    1.411   .     A
C677   C744    1.404   .     S
C678   C680    1.410   .     A
C678   C743    1.404   1_455 S
C681   H687    1.083   .     S
C681   C729    1.392   .     S
C682   H688    1.083   .     S
C682   C730    1.392   1_455 S
Cu683  Cu684   2.685   .     S
Cu683  O701    1.961   .     S
Cu683  O700    1.947   .     S
Cu683  N696    2.018   .     S
Cu683  O697    1.952   .     S
Cu683  O704    1.945   .     S
Cu684  O698    1.952   .     S
Cu684  N695    2.018   .     S
Cu684  O699    1.947   .     S
Cu684  O702    1.961   .     S
Cu684  O703    1.945   .     S
H691   C401    1.088   1_565 S
H693   N1091   1.029   .     S
N696   N1091   1.292   .     S
N696   H1090   1.029   .     S
O705   C706    1.422   .     S
C706   C709    1.533   .     S
C706   H708    1.113   .     S
C706   H707    1.111   .     S
C709   H711    1.111   .     S
C709   H710    1.111   .     S
C712   H715    1.111   .     S
C712   H714    1.109   .     S
C712   H713    1.111   .     S
C712   C1105   1.528   .     S
O716   C717    1.422   .     S
C717   H718    1.110   .     S
C717   H719    1.112   .     S
C717   C720    1.533   .     S
C720   H722    1.111   .     S
C720   C723    1.527   .     S
C720   H721    1.106   .     S
C723   H726    1.111   .     S
C723   H724    1.111   .     S
H725   C1119   1.110   .     S
C727   O763    1.291   .     A
C727   C731    1.424   .     S
C727   O765    1.283   .     A
C728   O764    1.291   .     A
C728   C732    1.424   .     S
C728   O766    1.283   .     A
C729   C746    1.399   .     A
C729   H755    1.083   .     S
C730   C745    1.400   .     A
C730   H756    1.084   .     S
C730   C682    1.392   1_655 S
C732   C467    1.326   1_565 S
C732   H494    1.088   1_565 S
C733   O769    1.289   .     A
C733   O767    1.294   .     A
C733   C738    1.443   .     S
C734   O770    1.291   .     A
C734   C737    1.443   .     S
C734   O768    1.292   .     A
C735   C737    1.395   .     A
C735   H751    1.086   .     S
C735   C745    1.390   .     A
C736   H752    1.084   .     S
C736   C738    1.394   .     A
C736   C746    1.390   .     A
C737   C739    1.405   .     A
C738   C740    1.405   .     A
C739   O771    1.390   .     S
C739   C741    1.411   .     A
C740   O782    1.390   .     S
C740   C742    1.410   .     A
C741   C743    1.416   .     A
C741   C747    1.406   .     A
C742   C744    1.415   .     A
C742   C748    1.406   .     A
C743   C745    1.411   .     A
C743   C678    1.404   1_655 S
C744   C746    1.410   .     A
C747   H753    1.083   .     S
C747   C663    1.392   1_655 S
C748   H754    1.083   .     S
Cu749  Cu750   2.685   .     S
Cu749  O767    1.961   .     S
Cu749  O766    1.947   .     S
Cu749  N762    2.018   .     S
Cu749  O763    1.952   .     S
Cu749  O770    1.945   .     S
Cu750  O764    1.952   .     S
Cu750  N761    2.018   .     S
Cu750  O765    1.947   .     S
Cu750  O768    1.961   .     S
Cu750  O769    1.945   .     S
H757   C467    1.088   1_565 S
H759   N1157   1.029   .     S
N762   N1157   1.292   .     S
N762   H1156   1.029   .     S
O771   C772    1.422   .     S
C772   C775    1.533   .     S
C772   H774    1.113   .     S
C772   H773    1.111   .     S
C775   H777    1.111   .     S
C775   H776    1.111   .     S
C778   H781    1.111   .     S
C778   H780    1.109   .     S
C778   H779    1.111   .     S
C778   C1171   1.528   .     S
O782   C783    1.422   .     S
C783   H784    1.110   .     S
C783   H785    1.112   .     S
C783   C786    1.533   .     S
C786   H788    1.111   .     S
C786   C789    1.527   .     S
C786   H787    1.106   .     S
C789   H792    1.111   .     S
C789   H790    1.111   .     S
H791   C1185   1.110   .     S
C793   O829    1.291   .     A
C793   C797    1.424   .     S
C793   O831    1.283   .     A
C794   O830    1.291   .     A
C794   C798    1.424   .     S
C794   O832    1.283   .     A
C795   C812    1.399   .     A
C795   H821    1.083   .     S
C795   C879    1.392   1_455 S
C796   C811    1.400   .     A
C796   H822    1.084   .     S
C796   C880    1.392   .     S
C797   C1062   1.326   1_545 S
C797   H1087   1.088   1_545 S
C798   C929    1.326   .     S
C798   H956    1.088   .     S
C799   O835    1.289   .     A
C799   O833    1.294   .     A
C799   C804    1.443   .     S
C800   O836    1.291   .     A
C800   C803    1.443   .     S
C800   O834    1.292   .     A
C801   C803    1.395   .     A
C801   H817    1.086   .     S
C801   C811    1.390   .     A
C802   H818    1.084   .     S
C802   C804    1.394   .     A
C802   C812    1.390   .     A
C803   C805    1.405   .     A
C804   C806    1.405   .     A
C805   O837    1.390   .     S
C805   C807    1.411   .     A
C806   O848    1.390   .     S
C806   C808    1.410   .     A
C807   C809    1.416   .     A
C807   C813    1.406   .     A
C808   C810    1.415   .     A
C808   C814    1.406   .     A
C809   C811    1.411   .     A
C809   C876    1.404   .     S
C810   C812    1.410   .     A
C810   C875    1.404   1_455 S
C813   H819    1.083   .     S
C813   C861    1.392   .     S
C814   H820    1.083   .     S
C814   C862    1.392   1_455 S
Cu815  Cu816   2.685   .     S
Cu815  O833    1.961   .     S
Cu815  O832    1.947   .     S
Cu815  N828    2.018   .     S
Cu815  O829    1.952   .     S
Cu815  O836    1.945   .     S
Cu816  O830    1.952   .     S
Cu816  N827    2.018   .     S
Cu816  O831    1.947   .     S
Cu816  O834    1.961   .     S
Cu816  O835    1.945   .     S
H823   C929    1.088   .     S
H824   C1062   1.088   1_545 S
H825   N35     1.029   1_556 S
N828   N35     1.292   1_556 S
N828   H34     1.029   1_556 S
O837   C838    1.422   .     S
C838   C841    1.533   .     S
C838   H840    1.113   .     S
C838   H839    1.111   .     S
C841   H843    1.111   .     S
C841   H842    1.111   .     S
C844   H847    1.111   .     S
C844   H846    1.109   .     S
C844   H845    1.111   .     S
C844   C49     1.528   1_556 S
O848   C849    1.422   .     S
C849   H850    1.110   .     S
C849   H851    1.112   .     S
C849   C852    1.533   .     S
C852   H854    1.111   .     S
C852   C855    1.527   .     S
C852   H853    1.106   .     S
C855   H858    1.111   .     S
C855   H856    1.111   .     S
H857   C63     1.110   1_556 S
C859   O895    1.291   .     A
C859   C863    1.424   .     S
C859   O897    1.283   .     A
C860   O896    1.291   .     A
C860   C864    1.424   .     S
C860   O898    1.283   .     A
C861   C878    1.399   .     A
C861   H887    1.083   .     S
C862   C877    1.400   .     A
C862   H888    1.084   .     S
C862   C814    1.392   1_655 S
C863   C1128   1.326   1_545 S
C863   H1153   1.088   1_545 S
C864   C995    1.326   .     S
C864   H1022   1.088   .     S
C865   O901    1.289   .     A
C865   O899    1.294   .     A
C865   C870    1.443   .     S
C866   O902    1.291   .     A
C866   C869    1.443   .     S
C866   O900    1.292   .     A
C867   C869    1.395   .     A
C867   H883    1.086   .     S
C867   C877    1.390   .     A
C868   H884    1.084   .     S
C868   C870    1.394   .     A
C868   C878    1.390   .     A
C869   C871    1.405   .     A
C870   C872    1.405   .     A
C871   O903    1.390   .     S
C871   C873    1.411   .     A
C872   O914    1.390   .     S
C872   C874    1.410   .     A
C873   C875    1.416   .     A
C873   C879    1.406   .     A
C874   C876    1.415   .     A
C874   C880    1.406   .     A
C875   C877    1.411   .     A
C875   C810    1.404   1_655 S
C876   C878    1.410   .     A
C879   H885    1.083   .     S
C879   C795    1.392   1_655 S
C880   H886    1.083   .     S
Cu881  Cu882   2.685   .     S
Cu881  O899    1.961   .     S
Cu881  O898    1.947   .     S
Cu881  N894    2.018   .     S
Cu881  O895    1.952   .     S
Cu881  O902    1.945   .     S
Cu882  O896    1.952   .     S
Cu882  N893    2.018   .     S
Cu882  O897    1.947   .     S
Cu882  O900    1.961   .     S
Cu882  O901    1.945   .     S
H889   C995    1.088   .     S
H890   C1128   1.088   1_545 S
H891   N101    1.029   1_556 S
N894   N101    1.292   1_556 S
N894   H100    1.029   1_556 S
O903   C904    1.422   .     S
C904   C907    1.533   .     S
C904   H906    1.113   .     S
C904   H905    1.111   .     S
C907   H909    1.111   .     S
C907   H908    1.111   .     S
C910   H913    1.111   .     S
C910   H912    1.109   .     S
C910   H911    1.111   .     S
C910   C115    1.528   1_556 S
O914   C915    1.422   .     S
C915   H916    1.110   .     S
C915   H917    1.112   .     S
C915   C918    1.533   .     S
C918   H920    1.111   .     S
C918   C921    1.527   .     S
C918   H919    1.106   .     S
C921   H924    1.111   .     S
C921   H922    1.111   .     S
H923   C129    1.110   1_556 S
C925   O961    1.291   .     A
C925   C929    1.424   .     S
C925   O963    1.283   .     A
C926   O962    1.291   .     A
C926   C930    1.424   .     S
C926   O964    1.283   .     A
C927   C944    1.399   .     A
C927   H953    1.083   .     S
C927   C1011   1.392   1_455 S
C928   C943    1.400   .     A
C928   H954    1.084   .     S
C928   C1012   1.392   .     S
C930   C1061   1.326   .     S
C930   H1088   1.088   .     S
C931   O967    1.289   .     A
C931   O965    1.294   .     A
C931   C936    1.443   .     S
C932   O968    1.291   .     A
C932   C935    1.443   .     S
C932   O966    1.292   .     A
C933   C935    1.395   .     A
C933   H949    1.086   .     S
C933   C943    1.390   .     A
C934   H950    1.084   .     S
C934   C936    1.394   .     A
C934   C944    1.390   .     A
C935   C937    1.405   .     A
C936   C938    1.405   .     A
C937   O969    1.390   .     S
C937   C939    1.411   .     A
C938   O980    1.390   .     S
C938   C940    1.410   .     A
C939   C941    1.416   .     A
C939   C945    1.406   .     A
C940   C942    1.415   .     A
C940   C946    1.406   .     A
C941   C943    1.411   .     A
C941   C1008   1.404   .     S
C942   C944    1.410   .     A
C942   C1007   1.404   1_455 S
C945   H951    1.083   .     S
C945   C993    1.392   .     S
C946   H952    1.083   .     S
C946   C994    1.392   1_455 S
Cu947  Cu948   2.685   .     S
Cu947  O965    1.961   .     S
Cu947  O964    1.947   .     S
Cu947  N960    2.018   .     S
Cu947  O961    1.952   .     S
Cu947  O968    1.945   .     S
Cu948  O962    1.952   .     S
Cu948  N959    2.018   .     S
Cu948  O963    1.947   .     S
Cu948  O966    1.961   .     S
Cu948  O967    1.945   .     S
H955   C1061   1.088   .     S
H957   N167    1.029   1_556 S
N960   N167    1.292   1_556 S
N960   H166    1.029   1_556 S
O969   C970    1.422   .     S
C970   C973    1.533   .     S
C970   H972    1.113   .     S
C970   H971    1.111   .     S
C973   H975    1.111   .     S
C973   H974    1.111   .     S
C976   H979    1.111   .     S
C976   H978    1.109   .     S
C976   H977    1.111   .     S
C976   C181    1.528   1_556 S
O980   C981    1.422   .     S
C981   H982    1.110   .     S
C981   H983    1.112   .     S
C981   C984    1.533   .     S
C984   H986    1.111   .     S
C984   C987    1.527   .     S
C984   H985    1.106   .     S
C987   H990    1.111   .     S
C987   H988    1.111   .     S
H989   C195    1.110   1_556 S
C991   O1027   1.291   .     A
C991   C995    1.424   .     S
C991   O1029   1.283   .     A
C992   O1028   1.291   .     A
C992   C996    1.424   .     S
C992   O1030   1.283   .     A
C993   C1010   1.399   .     A
C993   H1019   1.083   .     S
C994   C1009   1.400   .     A
C994   H1020   1.084   .     S
C994   C946    1.392   1_655 S
C996   C1127   1.326   .     S
C996   H1154   1.088   .     S
C997   O1033   1.289   .     A
C997   O1031   1.294   .     A
C997   C1002   1.443   .     S
C998   O1034   1.291   .     A
C998   C1001   1.443   .     S
C998   O1032   1.292   .     A
C999   C1001   1.395   .     A
C999   H1015   1.086   .     S
C999   C1009   1.390   .     A
C1000  H1016   1.084   .     S
C1000  C1002   1.394   .     A
C1000  C1010   1.390   .     A
C1001  C1003   1.405   .     A
C1002  C1004   1.405   .     A
C1003  O1035   1.390   .     S
C1003  C1005   1.411   .     A
C1004  O1046   1.390   .     S
C1004  C1006   1.410   .     A
C1005  C1007   1.416   .     A
C1005  C1011   1.406   .     A
C1006  C1008   1.415   .     A
C1006  C1012   1.406   .     A
C1007  C1009   1.411   .     A
C1007  C942    1.404   1_655 S
C1008  C1010   1.410   .     A
C1011  H1017   1.083   .     S
C1011  C927    1.392   1_655 S
C1012  H1018   1.083   .     S
Cu1013 Cu1014  2.685   .     S
Cu1013 O1031   1.961   .     S
Cu1013 O1030   1.947   .     S
Cu1013 N1026   2.018   .     S
Cu1013 O1027   1.952   .     S
Cu1013 O1034   1.945   .     S
Cu1014 O1028   1.952   .     S
Cu1014 N1025   2.018   .     S
Cu1014 O1029   1.947   .     S
Cu1014 O1032   1.961   .     S
Cu1014 O1033   1.945   .     S
H1021  C1127   1.088   .     S
H1023  N233    1.029   1_556 S
N1026  N233    1.292   1_556 S
N1026  H232    1.029   1_556 S
O1035  C1036   1.422   .     S
C1036  C1039   1.533   .     S
C1036  H1038   1.113   .     S
C1036  H1037   1.111   .     S
C1039  H1041   1.111   .     S
C1039  H1040   1.111   .     S
C1042  H1045   1.111   .     S
C1042  H1044   1.109   .     S
C1042  H1043   1.111   .     S
C1042  C247    1.528   1_556 S
O1046  C1047   1.422   .     S
C1047  H1048   1.110   .     S
C1047  H1049   1.112   .     S
C1047  C1050   1.533   .     S
C1050  H1052   1.111   .     S
C1050  C1053   1.527   .     S
C1050  H1051   1.106   .     S
C1053  H1056   1.111   .     S
C1053  H1054   1.111   .     S
H1055  C261    1.110   1_556 S
C1057  O1093   1.291   .     A
C1057  C1061   1.424   .     S
C1057  O1095   1.283   .     A
C1058  O1094   1.291   .     A
C1058  C1062   1.424   .     S
C1058  O1096   1.283   .     A
C1059  C1076   1.399   .     A
C1059  H1085   1.083   .     S
C1059  C1143   1.392   1_455 S
C1060  C1075   1.400   .     A
C1060  H1086   1.084   .     S
C1060  C1144   1.392   .     S
C1062  C797    1.326   1_565 S
C1062  H824    1.088   1_565 S
C1063  O1099   1.289   .     A
C1063  O1097   1.294   .     A
C1063  C1068   1.443   .     S
C1064  O1100   1.291   .     A
C1064  C1067   1.443   .     S
C1064  O1098   1.292   .     A
C1065  C1067   1.395   .     A
C1065  H1081   1.086   .     S
C1065  C1075   1.390   .     A
C1066  H1082   1.084   .     S
C1066  C1068   1.394   .     A
C1066  C1076   1.390   .     A
C1067  C1069   1.405   .     A
C1068  C1070   1.405   .     A
C1069  O1101   1.390   .     S
C1069  C1071   1.411   .     A
C1070  O1112   1.390   .     S
C1070  C1072   1.410   .     A
C1071  C1073   1.416   .     A
C1071  C1077   1.406   .     A
C1072  C1074   1.415   .     A
C1072  C1078   1.406   .     A
C1073  C1075   1.411   .     A
C1073  C1140   1.404   .     S
C1074  C1076   1.410   .     A
C1074  C1139   1.404   1_455 S
C1077  H1083   1.083   .     S
C1077  C1125   1.392   .     S
C1078  H1084   1.083   .     S
C1078  C1126   1.392   1_455 S
Cu1079 Cu1080  2.685   .     S
Cu1079 O1097   1.961   .     S
Cu1079 O1096   1.947   .     S
Cu1079 N1092   2.018   .     S
Cu1079 O1093   1.952   .     S
Cu1079 O1100   1.945   .     S
Cu1080 O1094   1.952   .     S
Cu1080 N1091   2.018   .     S
Cu1080 O1095   1.947   .     S
Cu1080 O1098   1.961   .     S
Cu1080 O1099   1.945   .     S
H1087  C797    1.088   1_565 S
H1089  N299    1.029   1_556 S
N1092  N299    1.292   1_556 S
N1092  H298    1.029   1_556 S
O1101  C1102   1.422   .     S
C1102  C1105   1.533   .     S
C1102  H1104   1.113   .     S
C1102  H1103   1.111   .     S
C1105  H1107   1.111   .     S
C1105  H1106   1.111   .     S
C1108  H1111   1.111   .     S
C1108  H1110   1.109   .     S
C1108  H1109   1.111   .     S
C1108  C313    1.528   1_556 S
O1112  C1113   1.422   .     S
C1113  H1114   1.110   .     S
C1113  H1115   1.112   .     S
C1113  C1116   1.533   .     S
C1116  H1118   1.111   .     S
C1116  C1119   1.527   .     S
C1116  H1117   1.106   .     S
C1119  H1122   1.111   .     S
C1119  H1120   1.111   .     S
H1121  C327    1.110   1_556 S
C1123  O1159   1.291   .     A
C1123  C1127   1.424   .     S
C1123  O1161   1.283   .     A
C1124  O1160   1.291   .     A
C1124  C1128   1.424   .     S
C1124  O1162   1.283   .     A
C1125  C1142   1.399   .     A
C1125  H1151   1.083   .     S
C1126  C1141   1.400   .     A
C1126  H1152   1.084   .     S
C1126  C1078   1.392   1_655 S
C1128  C863    1.326   1_565 S
C1128  H890    1.088   1_565 S
C1129  O1165   1.289   .     A
C1129  O1163   1.294   .     A
C1129  C1134   1.443   .     S
C1130  O1166   1.291   .     A
C1130  C1133   1.443   .     S
C1130  O1164   1.292   .     A
C1131  C1133   1.395   .     A
C1131  H1147   1.086   .     S
C1131  C1141   1.390   .     A
C1132  H1148   1.084   .     S
C1132  C1134   1.394   .     A
C1132  C1142   1.390   .     A
C1133  C1135   1.405   .     A
C1134  C1136   1.405   .     A
C1135  O1167   1.390   .     S
C1135  C1137   1.411   .     A
C1136  O1178   1.390   .     S
C1136  C1138   1.410   .     A
C1137  C1139   1.416   .     A
C1137  C1143   1.406   .     A
C1138  C1140   1.415   .     A
C1138  C1144   1.406   .     A
C1139  C1141   1.411   .     A
C1139  C1074   1.404   1_655 S
C1140  C1142   1.410   .     A
C1143  H1149   1.083   .     S
C1143  C1059   1.392   1_655 S
C1144  H1150   1.083   .     S
Cu1145 Cu1146  2.685   .     S
Cu1145 O1163   1.961   .     S
Cu1145 O1162   1.947   .     S
Cu1145 N1158   2.018   .     S
Cu1145 O1159   1.952   .     S
Cu1145 O1166   1.945   .     S
Cu1146 O1160   1.952   .     S
Cu1146 N1157   2.018   .     S
Cu1146 O1161   1.947   .     S
Cu1146 O1164   1.961   .     S
Cu1146 O1165   1.945   .     S
H1153  C863    1.088   1_565 S
H1155  N365    1.029   1_556 S
N1158  N365    1.292   1_556 S
N1158  H364    1.029   1_556 S
O1167  C1168   1.422   .     S
C1168  C1171   1.533   .     S
C1168  H1170   1.113   .     S
C1168  H1169   1.111   .     S
C1171  H1173   1.111   .     S
C1171  H1172   1.111   .     S
C1174  H1177   1.111   .     S
C1174  H1176   1.109   .     S
C1174  H1175   1.111   .     S
C1174  C379    1.528   1_556 S
O1178  C1179   1.422   .     S
C1179  H1180   1.110   .     S
C1179  H1181   1.112   .     S
C1179  C1182   1.533   .     S
C1182  H1184   1.111   .     S
C1182  C1185   1.527   .     S
C1182  H1183   1.106   .     S
C1185  H1188   1.111   .     S
C1185  H1186   1.111   .     S
H1187  C393    1.110   1_556 S
