data_str_m1_o1_o2_pcu_sym.45
_audit_creation_date              2020-01-03
_audit_creation_method            'Materials Studio'
_symmetry_space_group_name_H-M    'P1'
_symmetry_Int_Tables_number       1
_symmetry_cell_setting            triclinic
loop_
_symmetry_equiv_pos_as_xyz
  x,y,z
_cell_length_a                    36.7496
_cell_length_b                    36.7495
_cell_length_c                    34.3510
_cell_angle_alpha                 90.0000
_cell_angle_beta                  90.0000
_cell_angle_gamma                 90.1250
loop_
_atom_site_label
_atom_site_type_symbol
_atom_site_fract_x
_atom_site_fract_y
_atom_site_fract_z
_atom_site_U_iso_or_equiv
_atom_site_adp_type
_atom_site_occupancy
C1     C     0.23318   0.47163   0.04130   0.00000  Uiso   1.00
C2     C     0.01387   0.22011   0.45832   0.00000  Uiso   1.00
C3     C     0.34799   0.40201   0.75000   0.00000  Uiso   1.00
C4     C     0.40205   0.15205   0.25000   0.00000  Uiso   1.00
C5     C     0.09829   0.34829   0.75000   0.00000  Uiso   1.00
C6     C     0.34827   0.40173   0.25000   0.00000  Uiso   1.00
C7     C     0.15201   0.09799   0.75000   0.00000  Uiso   1.00
C8     C     0.09827   0.15173   0.75000   0.00000  Uiso   1.00
C9     C     0.40201   0.34799   0.25000   0.00000  Uiso   1.00
C10    C     0.15205   0.40205   0.75000   0.00000  Uiso   1.00
C11    C     0.34829   0.09829   0.25000   0.00000  Uiso   1.00
C12    C     0.40173   0.34827   0.75000   0.00000  Uiso   1.00
C13    C     0.27989   0.48613   0.54167   0.00000  Uiso   1.00
C14    C     0.09799   0.15201   0.25000   0.00000  Uiso   1.00
C15    C     0.34795   0.09795   0.75000   0.00000  Uiso   1.00
C16    C     0.15171   0.40171   0.25000   0.00000  Uiso   1.00
C17    C     0.25000  -0.00000   0.10245   0.00000  Uiso   1.00
C18    C     0.25000  -0.00000   0.89731   0.00000  Uiso   1.00
C19    C     0.00000   0.25000   0.10269   0.00000  Uiso   1.00
C20    C     0.00000   0.25000   0.89755   0.00000  Uiso   1.00
C21    C     0.00000   0.25000   0.60245   0.00000  Uiso   1.00
C22    C     0.00000   0.25000   0.39731   0.00000  Uiso   1.00
C23    C     0.25000  -0.00000   0.60269   0.00000  Uiso   1.00
C24    C     0.27837   0.01682   0.45870   0.00000  Uiso   1.00
C25    C     0.25000  -0.00000   0.39755   0.00000  Uiso   1.00
C26    C     0.10908   0.44955   0.18699   0.00000  Uiso   1.00
C27    C     0.07433   0.44339   0.16328   0.00000  Uiso   1.00
C28    C     0.05228   0.47836   0.15954   0.00000  Uiso   1.00
C29    C     0.33111   0.10172   0.83781   0.00000  Uiso   1.00
C30    C     0.34316   0.13334   0.86394   0.00000  Uiso   1.00
C31    C     0.31183   0.14668   0.88933   0.00000  Uiso   1.00
C32    C     0.03658   0.09166   0.25325   0.00000  Uiso   1.00
C33    C     0.49820   0.08215   0.23955   0.00000  Uiso   1.00
C34    C     0.47582   0.06481   0.27205   0.00000  Uiso   1.00
C35    C     0.01682   0.27837   0.54130   0.00000  Uiso   1.00
C36    C     0.43573   0.37860   0.82862   0.00000  Uiso   1.00
C37    C     0.42028   0.40978   0.85325   0.00000  Uiso   1.00
C38    C     0.42379   0.40180   0.89667   0.00000  Uiso   1.00
C39    C     0.39092   0.05045   0.18699   0.00000  Uiso   1.00
C40    C     0.42567   0.05661   0.16327   0.00000  Uiso   1.00
C41    C     0.44772   0.02165   0.15953   0.00000  Uiso   1.00
C42    C     0.16889   0.39828   0.83781   0.00000  Uiso   1.00
C43    C     0.15684   0.36666   0.86394   0.00000  Uiso   1.00
C44    C     0.18817   0.35332   0.88933   0.00000  Uiso   1.00
C45    C     0.46342   0.40833   0.25326   0.00000  Uiso   1.00
C46    C     0.48613   0.27989   0.45832   0.00000  Uiso   1.00
C47    C     0.00179   0.41788   0.23954   0.00000  Uiso   1.00
C48    C     0.02417   0.43521   0.27205   0.00000  Uiso   1.00
C49    C     0.06427   0.12140   0.82862   0.00000  Uiso   1.00
C50    C     0.07972   0.09022   0.85325   0.00000  Uiso   1.00
C51    C     0.07621   0.09820   0.89667   0.00000  Uiso   1.00
C52    C     0.09166   0.03658   0.74675   0.00000  Uiso   1.00
C53    C     0.08215   0.49820   0.76045   0.00000  Uiso   1.00
C54    C     0.06481   0.47582   0.72794   0.00000  Uiso   1.00
C55    C     0.37860   0.43573   0.17138   0.00000  Uiso   1.00
C56    C     0.40978   0.42028   0.14675   0.00000  Uiso   1.00
C57    C     0.22011   0.01387   0.54167   0.00000  Uiso   1.00
C58    C     0.40180   0.42379   0.10333   0.00000  Uiso   1.00
C59    C     0.05045   0.39092   0.81301   0.00000  Uiso   1.00
C60    C     0.05661   0.42567   0.83673   0.00000  Uiso   1.00
C61    C     0.02165   0.44772   0.84046   0.00000  Uiso   1.00
C62    C     0.39828   0.16889   0.16219   0.00000  Uiso   1.00
C63    C     0.36666   0.15685   0.13606   0.00000  Uiso   1.00
C64    C     0.35332   0.18817   0.11067   0.00000  Uiso   1.00
C65    C     0.40834   0.46342   0.74675   0.00000  Uiso   1.00
C66    C     0.41785   0.00180   0.76045   0.00000  Uiso   1.00
C67    C     0.43519   0.02418   0.72794   0.00000  Uiso   1.00
C68    C     0.22163   0.48318   0.45870   0.00000  Uiso   1.00
C69    C     0.12140   0.06427   0.17138   0.00000  Uiso   1.00
C70    C     0.09022   0.07973   0.14675   0.00000  Uiso   1.00
C71    C     0.09821   0.07622   0.10332   0.00000  Uiso   1.00
C72    C     0.44955   0.10908   0.81301   0.00000  Uiso   1.00
C73    C     0.44339   0.07433   0.83673   0.00000  Uiso   1.00
C74    C     0.47835   0.05228   0.84046   0.00000  Uiso   1.00
C75    C     0.10172   0.33111   0.16219   0.00000  Uiso   1.00
C76    C     0.13333   0.34316   0.13606   0.00000  Uiso   1.00
C77    C     0.14667   0.31183   0.11067   0.00000  Uiso   1.00
C78    C     0.35908   0.19955   0.68699   0.00000  Uiso   1.00
C79    C     0.23292   0.47124   0.08190   0.00000  Uiso   1.00
C80    C     0.32433   0.19339   0.66327   0.00000  Uiso   1.00
C81    C     0.30228   0.22835   0.65953   0.00000  Uiso   1.00
C82    C     0.08111   0.35171   0.33781   0.00000  Uiso   1.00
C83    C     0.09315   0.38334   0.36393   0.00000  Uiso   1.00
C84    C     0.06182   0.39667   0.38932   0.00000  Uiso   1.00
C85    C     0.28658   0.34166   0.75325   0.00000  Uiso   1.00
C86    C     0.24820   0.33215   0.73955   0.00000  Uiso   1.00
C87    C     0.22582   0.31481   0.77206   0.00000  Uiso   1.00
C88    C     0.18573   0.12860   0.32862   0.00000  Uiso   1.00
C89    C     0.17028   0.15978   0.35325   0.00000  Uiso   1.00
C90    C     0.26412   0.46975   0.91773   0.00000  Uiso   1.00
C91    C     0.17379   0.15180   0.39667   0.00000  Uiso   1.00
C92    C     0.14092   0.30045   0.68699   0.00000  Uiso   1.00
C93    C     0.17567   0.30661   0.66327   0.00000  Uiso   1.00
C94    C     0.19772   0.27165   0.65954   0.00000  Uiso   1.00
C95    C     0.41889   0.14828   0.33781   0.00000  Uiso   1.00
C96    C     0.40685   0.11666   0.36394   0.00000  Uiso   1.00
C97    C     0.43817   0.10332   0.38933   0.00000  Uiso   1.00
C98    C     0.21342   0.15834   0.75325   0.00000  Uiso   1.00
C99    C     0.25180   0.16785   0.73955   0.00000  Uiso   1.00
C100   C     0.27418   0.18519   0.77206   0.00000  Uiso   1.00
C101   C     0.03025   0.23588   0.08227   0.00000  Uiso   1.00
C102   C     0.31427   0.37140   0.32862   0.00000  Uiso   1.00
C103   C     0.32972   0.34022   0.35325   0.00000  Uiso   1.00
C104   C     0.32622   0.34821   0.39667   0.00000  Uiso   1.00
C105   C     0.34166   0.28658   0.24675   0.00000  Uiso   1.00
C106   C     0.33215   0.24820   0.26046   0.00000  Uiso   1.00
C107   C     0.31481   0.22582   0.22795   0.00000  Uiso   1.00
C108   C     0.12860   0.18573   0.67138   0.00000  Uiso   1.00
C109   C     0.15978   0.17028   0.64675   0.00000  Uiso   1.00
C110   C     0.15180   0.17379   0.60333   0.00000  Uiso   1.00
C111   C     0.30045   0.14092   0.31301   0.00000  Uiso   1.00
C112   C     0.26387   0.47011   0.95832   0.00000  Uiso   1.00
C113   C     0.02876   0.26708   0.91810   0.00000  Uiso   1.00
C114   C     0.30661   0.17567   0.33673   0.00000  Uiso   1.00
C115   C     0.27165   0.19772   0.34047   0.00000  Uiso   1.00
C116   C     0.14828   0.41889   0.66219   0.00000  Uiso   1.00
C117   C     0.11666   0.40684   0.63606   0.00000  Uiso   1.00
C118   C     0.10332   0.43817   0.61067   0.00000  Uiso   1.00
C119   C     0.15834   0.21342   0.24675   0.00000  Uiso   1.00
C120   C     0.16785   0.25180   0.26045   0.00000  Uiso   1.00
C121   C     0.18519   0.27418   0.22794   0.00000  Uiso   1.00
C122   C     0.37140   0.31427   0.67138   0.00000  Uiso   1.00
C123   C     0.34022   0.32972   0.64675   0.00000  Uiso   1.00
C124   C     0.26708   0.02876   0.08190   0.00000  Uiso   1.00
C125   C     0.34820   0.32621   0.60333   0.00000  Uiso   1.00
C126   C     0.19955   0.35908   0.31300   0.00000  Uiso   1.00
C127   C     0.19339   0.32433   0.33673   0.00000  Uiso   1.00
C128   C     0.22836   0.30228   0.34046   0.00000  Uiso   1.00
C129   C     0.35172   0.08111   0.66219   0.00000  Uiso   1.00
C130   C     0.38334   0.09316   0.63606   0.00000  Uiso   1.00
C131   C     0.39668   0.06183   0.61067   0.00000  Uiso   1.00
C132   C     0.23588   0.03025   0.91773   0.00000  Uiso   1.00
C133   C     0.46975   0.26412   0.08227   0.00000  Uiso   1.00
C134   C     0.47124   0.23292   0.91810   0.00000  Uiso   1.00
C135   C     0.48292   0.22124   0.58190   0.00000  Uiso   1.00
C136   C     0.01412   0.21975   0.41773   0.00000  Uiso   1.00
C137   C     0.28025   0.48588   0.58227   0.00000  Uiso   1.00
C138   C     0.27876   0.01708   0.41810   0.00000  Uiso   1.00
C139   C     0.01708   0.27875   0.58190   0.00000  Uiso   1.00
C140   C     0.02989   0.23613   0.04167   0.00000  Uiso   1.00
C141   C     0.48588   0.28025   0.41773   0.00000  Uiso   1.00
C142   C     0.21975   0.01412   0.58227   0.00000  Uiso   1.00
C143   C     0.22124   0.48292   0.41810   0.00000  Uiso   1.00
C144   C     0.25000  -0.00000   0.02109   0.00000  Uiso   1.00
C145   C     0.25000  -0.00000   0.97854   0.00000  Uiso   1.00
C146   C     0.00000   0.25000   0.02145   0.00000  Uiso   1.00
C147   C     0.00000   0.25000   0.97891   0.00000  Uiso   1.00
C148   C     0.00000   0.25000   0.52109   0.00000  Uiso   1.00
C149   C     0.00000   0.25000   0.47854   0.00000  Uiso   1.00
C150   C     0.25000  -0.00000   0.52145   0.00000  Uiso   1.00
C151   C     0.02837   0.26682   0.95870   0.00000  Uiso   1.00
C152   C     0.25000  -0.00000   0.47891   0.00000  Uiso   1.00
C153   C     0.25000  -0.00000   0.35512   0.00000  Uiso   1.00
C154   C     0.25000  -0.00000   0.64497   0.00000  Uiso   1.00
C155   C     0.00000   0.25000   0.35503   0.00000  Uiso   1.00
C156   C     0.00000   0.25000   0.64488   0.00000  Uiso   1.00
C157   C     0.00000   0.25000   0.85512   0.00000  Uiso   1.00
C158   C     0.00000   0.25000   0.14497   0.00000  Uiso   1.00
C159   C     0.25000  -0.00000   0.85503   0.00000  Uiso   1.00
C160   C     0.25000  -0.00000   0.14488   0.00000  Uiso   1.00
C161   C     0.17988   0.07012   0.25000   0.00000  Uiso   1.00
C162   C     0.26682   0.02837   0.04130   0.00000  Uiso   1.00
C163   C     0.32001   0.42999   0.75000   0.00000  Uiso   1.00
C164   C     0.43002   0.18002   0.25000   0.00000  Uiso   1.00
C165   C     0.07012   0.32011   0.75000   0.00000  Uiso   1.00
C166   C     0.32012   0.42988   0.25000   0.00000  Uiso   1.00
C167   C     0.17999   0.07001   0.75000   0.00000  Uiso   1.00
C168   C     0.06999   0.31998   0.25000   0.00000  Uiso   1.00
C169   C     0.42989   0.17989   0.75000   0.00000  Uiso   1.00
C170   C     0.18002   0.43001   0.75000   0.00000  Uiso   1.00
C171   C     0.32012   0.07012   0.25000   0.00000  Uiso   1.00
C172   C     0.42988   0.32012   0.75000   0.00000  Uiso   1.00
C173   C     0.23613   0.02989   0.95832   0.00000  Uiso   1.00
C174   C     0.07001   0.17999   0.25000   0.00000  Uiso   1.00
C175   C     0.31999   0.06999   0.75000   0.00000  Uiso   1.00
C176   C     0.17989   0.42988   0.25000   0.00000  Uiso   1.00
C177   C     0.07012   0.17988   0.75000   0.00000  Uiso   1.00
C178   C     0.42999   0.32001   0.25000   0.00000  Uiso   1.00
C179   C     0.12873   0.39744   0.21728   0.00000  Uiso   1.00
C180   C     0.36817   0.10467   0.78406   0.00000  Uiso   1.00
C181   C     0.09018   0.11723   0.23511   0.00000  Uiso   1.00
C182   C     0.40796   0.38187   0.76904   0.00000  Uiso   1.00
C183   C     0.37127   0.10257   0.21728   0.00000  Uiso   1.00
C184   C     0.47011   0.26387   0.04167   0.00000  Uiso   1.00
C185   C     0.13183   0.39533   0.78406   0.00000  Uiso   1.00
C186   C     0.40982   0.38277   0.23511   0.00000  Uiso   1.00
C187   C     0.09204   0.11813   0.76904   0.00000  Uiso   1.00
C188   C     0.11723   0.09018   0.76489   0.00000  Uiso   1.00
C189   C     0.38187   0.40796   0.23095   0.00000  Uiso   1.00
C190   C     0.10257   0.37127   0.78272   0.00000  Uiso   1.00
C191   C     0.39533   0.13183   0.21594   0.00000  Uiso   1.00
C192   C     0.38277   0.40982   0.76489   0.00000  Uiso   1.00
C193   C     0.11813   0.09204   0.23095   0.00000  Uiso   1.00
C194   C     0.39743   0.12873   0.78272   0.00000  Uiso   1.00
C195   C     0.47163   0.23318   0.95870   0.00000  Uiso   1.00
C196   C     0.10467   0.36817   0.21594   0.00000  Uiso   1.00
C197   C     0.37873   0.14743   0.71728   0.00000  Uiso   1.00
C198   C     0.11817   0.35467   0.28406   0.00000  Uiso   1.00
C199   C     0.34018   0.36723   0.73511   0.00000  Uiso   1.00
C200   C     0.15796   0.13187   0.26904   0.00000  Uiso   1.00
C201   C     0.12127   0.35257   0.71728   0.00000  Uiso   1.00
C202   C     0.38183   0.14533   0.28406   0.00000  Uiso   1.00
C203   C     0.15982   0.13277   0.73511   0.00000  Uiso   1.00
C204   C     0.34204   0.36813   0.26904   0.00000  Uiso   1.00
C205   C     0.36723   0.34018   0.26489   0.00000  Uiso   1.00
C206   C     0.48318   0.22163   0.54130   0.00000  Uiso   1.00
C207   C     0.13187   0.15796   0.73095   0.00000  Uiso   1.00
C208   C     0.35257   0.12127   0.28272   0.00000  Uiso   1.00
C209   C     0.14533   0.38183   0.71594   0.00000  Uiso   1.00
C210   C     0.13277   0.15982   0.26489   0.00000  Uiso   1.00
C211   C     0.36813   0.34204   0.73095   0.00000  Uiso   1.00
C212   C     0.14744   0.37873   0.28272   0.00000  Uiso   1.00
C213   C     0.35467   0.11817   0.71594   0.00000  Uiso   1.00
C214   C     0.09795   0.34795   0.25000   0.00000  Uiso   1.00
C215   C     0.40171   0.15171   0.75000   0.00000  Uiso   1.00
C216   C     0.15173   0.09827   0.25000   0.00000  Uiso   1.00
H217   H     0.21990   0.45001   0.02520   0.00000  Uiso   1.00
H218   H     0.02484   0.19727   0.47440   0.00000  Uiso   1.00
H219   H     0.37551   0.19787   0.09128   0.00000  Uiso   1.00
H220   H     0.38942   0.46546   0.72146   0.00000  Uiso   1.00
H221   H     0.43387   0.44958   0.73743   0.00000  Uiso   1.00
H222   H     0.39272   0.01570   0.77049   0.00000  Uiso   1.00
H223   H     0.43711   0.00005   0.78532   0.00000  Uiso   1.00
H224   H     0.46134   0.01173   0.71876   0.00000  Uiso   1.00
H225   H     0.44060   0.05221   0.73849   0.00000  Uiso   1.00
H226   H     0.41662   0.02577   0.70252   0.00000  Uiso   1.00
H227   H     0.12839   0.03684   0.16016   0.00000  Uiso   1.00
H228   H     0.14639   0.08126   0.16758   0.00000  Uiso   1.00
H229   H     0.30273   0.47516   0.52560   0.00000  Uiso   1.00
H230   H     0.06452   0.06507   0.15356   0.00000  Uiso   1.00
H231   H     0.08650   0.10901   0.15361   0.00000  Uiso   1.00
H232   H     0.12369   0.09096   0.09586   0.00000  Uiso   1.00
H233   H     0.07546   0.08818   0.08637   0.00000  Uiso   1.00
H234   H     0.10101   0.04712   0.09510   0.00000  Uiso   1.00
H235   H     0.47306   0.12389   0.82570   0.00000  Uiso   1.00
H236   H     0.45750   0.10209   0.78253   0.00000  Uiso   1.00
H237   H     0.43340   0.08151   0.86629   0.00000  Uiso   1.00
H238   H     0.42263   0.05717   0.82221   0.00000  Uiso   1.00
H239   H     0.48960   0.04584   0.81124   0.00000  Uiso   1.00
H240   H     0.29999   0.03010   0.47480   0.00000  Uiso   1.00
H241   H     0.47256   0.02637   0.85592   0.00000  Uiso   1.00
H242   H     0.49883   0.06781   0.85746   0.00000  Uiso   1.00
H243   H     0.08015   0.31900   0.14355   0.00000  Uiso   1.00
H244   H     0.11075   0.30916   0.18239   0.00000  Uiso   1.00
H245   H     0.12433   0.36590   0.11704   0.00000  Uiso   1.00
H246   H     0.15631   0.35289   0.15435   0.00000  Uiso   1.00
H247   H     0.15610   0.28889   0.12911   0.00000  Uiso   1.00
H248   H     0.16974   0.32127   0.09237   0.00000  Uiso   1.00
H249   H     0.12448   0.30214   0.09128   0.00000  Uiso   1.00
H250   H     0.37389   0.22306   0.67430   0.00000  Uiso   1.00
H251   H     0.03010   0.29999   0.52520   0.00000  Uiso   1.00
H252   H     0.35209   0.20750   0.71747   0.00000  Uiso   1.00
H253   H     0.33151   0.18340   0.63371   0.00000  Uiso   1.00
H254   H     0.30717   0.17263   0.67780   0.00000  Uiso   1.00
H255   H     0.29584   0.23961   0.68876   0.00000  Uiso   1.00
H256   H     0.27637   0.22256   0.64408   0.00000  Uiso   1.00
H257   H     0.31781   0.24883   0.64254   0.00000  Uiso   1.00
H258   H     0.06900   0.33015   0.35645   0.00000  Uiso   1.00
H259   H     0.05916   0.36074   0.31760   0.00000  Uiso   1.00
H260   H     0.11589   0.37434   0.38295   0.00000  Uiso   1.00
H261   H     0.10288   0.40632   0.34564   0.00000  Uiso   1.00
H262   H     0.47516   0.30273   0.47440   0.00000  Uiso   1.00
H263   H     0.03888   0.40610   0.37087   0.00000  Uiso   1.00
H264   H     0.07126   0.41975   0.40761   0.00000  Uiso   1.00
H265   H     0.05213   0.37449   0.40872   0.00000  Uiso   1.00
H266   H     0.28454   0.36058   0.77854   0.00000  Uiso   1.00
H267   H     0.30042   0.31613   0.76258   0.00000  Uiso   1.00
H268   H     0.23430   0.35728   0.72951   0.00000  Uiso   1.00
H269   H     0.24995   0.31289   0.71468   0.00000  Uiso   1.00
H270   H     0.23827   0.28866   0.78124   0.00000  Uiso   1.00
H271   H     0.19780   0.30939   0.76151   0.00000  Uiso   1.00
H272   H     0.22423   0.33338   0.79748   0.00000  Uiso   1.00
H273   H     0.19727   0.02484   0.52560   0.00000  Uiso   1.00
H274   H     0.21316   0.12161   0.33984   0.00000  Uiso   1.00
H275   H     0.16874   0.10361   0.33242   0.00000  Uiso   1.00
H276   H     0.18494   0.18548   0.34643   0.00000  Uiso   1.00
H277   H     0.14100   0.16351   0.34639   0.00000  Uiso   1.00
H278   H     0.15904   0.12632   0.40414   0.00000  Uiso   1.00
H279   H     0.16182   0.17455   0.41363   0.00000  Uiso   1.00
H280   H     0.20288   0.14899   0.40490   0.00000  Uiso   1.00
H281   H     0.12611   0.27694   0.67430   0.00000  Uiso   1.00
H282   H     0.14791   0.29250   0.71747   0.00000  Uiso   1.00
H283   H     0.16849   0.31659   0.63371   0.00000  Uiso   1.00
H284   H     0.20001   0.46990   0.47479   0.00000  Uiso   1.00
H285   H     0.19283   0.32737   0.67779   0.00000  Uiso   1.00
H286   H     0.20416   0.26040   0.68876   0.00000  Uiso   1.00
H287   H     0.22363   0.27744   0.64408   0.00000  Uiso   1.00
H288   H     0.18219   0.25117   0.64254   0.00000  Uiso   1.00
H289   H     0.43101   0.16984   0.35644   0.00000  Uiso   1.00
H290   H     0.44084   0.13925   0.31760   0.00000  Uiso   1.00
H291   H     0.38411   0.12566   0.38296   0.00000  Uiso   1.00
H292   H     0.39712   0.09368   0.34565   0.00000  Uiso   1.00
H293   H     0.46111   0.09389   0.37088   0.00000  Uiso   1.00
H294   H     0.42874   0.08025   0.40762   0.00000  Uiso   1.00
H295   H     0.12389   0.47306   0.17430   0.00000  Uiso   1.00
H296   H     0.44787   0.12551   0.40872   0.00000  Uiso   1.00
H297   H     0.21546   0.13942   0.77854   0.00000  Uiso   1.00
H298   H     0.19958   0.18387   0.76258   0.00000  Uiso   1.00
H299   H     0.26570   0.14273   0.72950   0.00000  Uiso   1.00
H300   H     0.25005   0.18711   0.71468   0.00000  Uiso   1.00
H301   H     0.26172   0.21134   0.78125   0.00000  Uiso   1.00
H302   H     0.30220   0.19062   0.76150   0.00000  Uiso   1.00
H303   H     0.27578   0.16662   0.79747   0.00000  Uiso   1.00
H304   H     0.28684   0.37839   0.33984   0.00000  Uiso   1.00
H305   H     0.33126   0.39639   0.33242   0.00000  Uiso   1.00
H306   H     0.10209   0.45750   0.21747   0.00000  Uiso   1.00
H307   H     0.31507   0.31452   0.34644   0.00000  Uiso   1.00
H308   H     0.35901   0.33650   0.34639   0.00000  Uiso   1.00
H309   H     0.34096   0.37369   0.40414   0.00000  Uiso   1.00
H310   H     0.33818   0.32546   0.41363   0.00000  Uiso   1.00
H311   H     0.29712   0.35101   0.40490   0.00000  Uiso   1.00
H312   H     0.36059   0.28454   0.22147   0.00000  Uiso   1.00
H313   H     0.31613   0.30042   0.23742   0.00000  Uiso   1.00
H314   H     0.35728   0.23431   0.27050   0.00000  Uiso   1.00
H315   H     0.31289   0.24995   0.28532   0.00000  Uiso   1.00
H316   H     0.28867   0.23827   0.21876   0.00000  Uiso   1.00
H317   H     0.08151   0.43341   0.13372   0.00000  Uiso   1.00
H318   H     0.30940   0.19779   0.23850   0.00000  Uiso   1.00
H319   H     0.33339   0.22423   0.20253   0.00000  Uiso   1.00
H320   H     0.12161   0.21316   0.66016   0.00000  Uiso   1.00
H321   H     0.10361   0.16874   0.66758   0.00000  Uiso   1.00
H322   H     0.18548   0.18493   0.65357   0.00000  Uiso   1.00
H323   H     0.16351   0.14100   0.65361   0.00000  Uiso   1.00
H324   H     0.12631   0.15904   0.59586   0.00000  Uiso   1.00
H325   H     0.17454   0.16182   0.58637   0.00000  Uiso   1.00
H326   H     0.14899   0.20288   0.59510   0.00000  Uiso   1.00
H327   H     0.27694   0.12611   0.32570   0.00000  Uiso   1.00
H328   H     0.27484   0.44727   0.97440   0.00000  Uiso   1.00
H329   H     0.05716   0.42263   0.17780   0.00000  Uiso   1.00
H330   H     0.29250   0.14791   0.28253   0.00000  Uiso   1.00
H331   H     0.31660   0.16849   0.36629   0.00000  Uiso   1.00
H332   H     0.32737   0.19283   0.32221   0.00000  Uiso   1.00
H333   H     0.26040   0.20416   0.31124   0.00000  Uiso   1.00
H334   H     0.27744   0.22363   0.35592   0.00000  Uiso   1.00
H335   H     0.25117   0.18219   0.35746   0.00000  Uiso   1.00
H336   H     0.16984   0.43100   0.64355   0.00000  Uiso   1.00
H337   H     0.13925   0.44084   0.68240   0.00000  Uiso   1.00
H338   H     0.12566   0.38411   0.61704   0.00000  Uiso   1.00
H339   H     0.09368   0.39712   0.65435   0.00000  Uiso   1.00
H340   H     0.04584   0.48961   0.18876   0.00000  Uiso   1.00
H341   H     0.09389   0.46111   0.62912   0.00000  Uiso   1.00
H342   H     0.08025   0.42874   0.59237   0.00000  Uiso   1.00
H343   H     0.12551   0.44787   0.59128   0.00000  Uiso   1.00
H344   H     0.13941   0.21546   0.22146   0.00000  Uiso   1.00
H345   H     0.18387   0.19958   0.23742   0.00000  Uiso   1.00
H346   H     0.14273   0.26570   0.27049   0.00000  Uiso   1.00
H347   H     0.18711   0.25005   0.28531   0.00000  Uiso   1.00
H348   H     0.21133   0.26173   0.21875   0.00000  Uiso   1.00
H349   H     0.19061   0.30220   0.23849   0.00000  Uiso   1.00
H350   H     0.16661   0.27577   0.20252   0.00000  Uiso   1.00
H351   H     0.02637   0.47256   0.14409   0.00000  Uiso   1.00
H352   H     0.37839   0.28684   0.66016   0.00000  Uiso   1.00
H353   H     0.39639   0.33126   0.66758   0.00000  Uiso   1.00
H354   H     0.31452   0.31506   0.65357   0.00000  Uiso   1.00
H355   H     0.33649   0.35900   0.65361   0.00000  Uiso   1.00
H356   H     0.37369   0.34096   0.59586   0.00000  Uiso   1.00
H357   H     0.32546   0.33818   0.58637   0.00000  Uiso   1.00
H358   H     0.35101   0.29712   0.59510   0.00000  Uiso   1.00
H359   H     0.22306   0.37389   0.32570   0.00000  Uiso   1.00
H360   H     0.20750   0.35209   0.28253   0.00000  Uiso   1.00
H361   H     0.18341   0.33151   0.36628   0.00000  Uiso   1.00
H362   H     0.06782   0.49883   0.14254   0.00000  Uiso   1.00
H363   H     0.17263   0.30716   0.32220   0.00000  Uiso   1.00
H364   H     0.23961   0.29584   0.31124   0.00000  Uiso   1.00
H365   H     0.22256   0.27637   0.35592   0.00000  Uiso   1.00
H366   H     0.24883   0.31781   0.35746   0.00000  Uiso   1.00
H367   H     0.33016   0.06899   0.64355   0.00000  Uiso   1.00
H368   H     0.36075   0.05916   0.68240   0.00000  Uiso   1.00
H369   H     0.37434   0.11589   0.61704   0.00000  Uiso   1.00
H370   H     0.40632   0.10288   0.65435   0.00000  Uiso   1.00
H371   H     0.40611   0.03889   0.62912   0.00000  Uiso   1.00
H372   H     0.41975   0.07127   0.59237   0.00000  Uiso   1.00
H373   H     0.31900   0.08016   0.85645   0.00000  Uiso   1.00
H374   H     0.37449   0.05213   0.59128   0.00000  Uiso   1.00
H375   H     0.21698   0.40644   0.16064   0.00000  Uiso   1.00
H376   H     0.26883   0.39958   0.84230   0.00000  Uiso   1.00
H377   H     0.10042   0.23117   0.15770   0.00000  Uiso   1.00
H378   H     0.09356   0.28302   0.83936   0.00000  Uiso   1.00
H379   H     0.28302   0.09356   0.16064   0.00000  Uiso   1.00
H380   H     0.23117   0.10042   0.84230   0.00000  Uiso   1.00
H381   H     0.39958   0.26883   0.15770   0.00000  Uiso   1.00
H382   H     0.40645   0.21698   0.83936   0.00000  Uiso   1.00
H383   H     0.46698   0.15645   0.66064   0.00000  Uiso   1.00
H384   H     0.30916   0.11075   0.81760   0.00000  Uiso   1.00
H385   H     0.01883   0.14958   0.34230   0.00000  Uiso   1.00
H386   H     0.35042   0.48117   0.65770   0.00000  Uiso   1.00
H387   H     0.34356   0.03302   0.33936   0.00000  Uiso   1.00
H388   H     0.03302   0.34355   0.66064   0.00000  Uiso   1.00
H389   H     0.48117   0.35042   0.34231   0.00000  Uiso   1.00
H390   H     0.14958   0.01883   0.65770   0.00000  Uiso   1.00
H391   H     0.15644   0.46698   0.33936   0.00000  Uiso   1.00
H392   H     0.36589   0.12434   0.88296   0.00000  Uiso   1.00
H393   H     0.35288   0.15632   0.84565   0.00000  Uiso   1.00
H394   H     0.28889   0.15611   0.87088   0.00000  Uiso   1.00
H395   H     0.32126   0.16975   0.90762   0.00000  Uiso   1.00
H396   H     0.05273   0.22516   0.02560   0.00000  Uiso   1.00
H397   H     0.30213   0.12449   0.90872   0.00000  Uiso   1.00
H398   H     0.03454   0.11058   0.27854   0.00000  Uiso   1.00
H399   H     0.05042   0.06613   0.26258   0.00000  Uiso   1.00
H400   H     0.48431   0.10728   0.22951   0.00000  Uiso   1.00
H401   H     0.49995   0.06289   0.21468   0.00000  Uiso   1.00
H402   H     0.48827   0.03866   0.28124   0.00000  Uiso   1.00
H403   H     0.44780   0.05939   0.26150   0.00000  Uiso   1.00
H404   H     0.47423   0.08338   0.29748   0.00000  Uiso   1.00
H405   H     0.46316   0.37161   0.83984   0.00000  Uiso   1.00
H406   H     0.41874   0.35361   0.83242   0.00000  Uiso   1.00
H407   H     0.04999   0.28010   0.97480   0.00000  Uiso   1.00
H408   H     0.43493   0.43548   0.84643   0.00000  Uiso   1.00
H409   H     0.39100   0.41351   0.84639   0.00000  Uiso   1.00
H410   H     0.40904   0.37631   0.90414   0.00000  Uiso   1.00
H411   H     0.41182   0.42454   0.91363   0.00000  Uiso   1.00
H412   H     0.45288   0.39899   0.90490   0.00000  Uiso   1.00
H413   H     0.37611   0.02694   0.17430   0.00000  Uiso   1.00
H414   H     0.39791   0.04250   0.21747   0.00000  Uiso   1.00
H415   H     0.41849   0.06660   0.13371   0.00000  Uiso   1.00
H416   H     0.44283   0.07737   0.17779   0.00000  Uiso   1.00
H417   H     0.45416   0.01040   0.18876   0.00000  Uiso   1.00
H418   H     0.28010   0.04999   0.02520   0.00000  Uiso   1.00
H419   H     0.47363   0.02744   0.14408   0.00000  Uiso   1.00
H420   H     0.43219   0.00117   0.14254   0.00000  Uiso   1.00
H421   H     0.18101   0.41984   0.85644   0.00000  Uiso   1.00
H422   H     0.19084   0.38925   0.81760   0.00000  Uiso   1.00
H423   H     0.13411   0.37566   0.88296   0.00000  Uiso   1.00
H424   H     0.14712   0.34368   0.84565   0.00000  Uiso   1.00
H425   H     0.21111   0.34389   0.87088   0.00000  Uiso   1.00
H426   H     0.17874   0.33025   0.90762   0.00000  Uiso   1.00
H427   H     0.19787   0.37551   0.90872   0.00000  Uiso   1.00
H428   H     0.46549   0.38938   0.27852   0.00000  Uiso   1.00
H429   H     0.22516   0.05273   0.97440   0.00000  Uiso   1.00
H430   H     0.44957   0.43384   0.26262   0.00000  Uiso   1.00
H431   H     0.01570   0.39277   0.22946   0.00000  Uiso   1.00
H432   H     0.00001   0.43716   0.21470   0.00000  Uiso   1.00
H433   H     0.01168   0.46131   0.28130   0.00000  Uiso   1.00
H434   H     0.05218   0.44069   0.26148   0.00000  Uiso   1.00
H435   H     0.02582   0.41660   0.29744   0.00000  Uiso   1.00
H436   H     0.03684   0.12839   0.83984   0.00000  Uiso   1.00
H437   H     0.08126   0.14639   0.83242   0.00000  Uiso   1.00
H438   H     0.06507   0.06452   0.84643   0.00000  Uiso   1.00
H439   H     0.10900   0.08649   0.84639   0.00000  Uiso   1.00
H440   H     0.44727   0.27484   0.02560   0.00000  Uiso   1.00
H441   H     0.09096   0.12369   0.90414   0.00000  Uiso   1.00
H442   H     0.08818   0.07546   0.91363   0.00000  Uiso   1.00
H443   H     0.04712   0.10101   0.90490   0.00000  Uiso   1.00
H444   H     0.11058   0.03454   0.72146   0.00000  Uiso   1.00
H445   H     0.06613   0.05042   0.73742   0.00000  Uiso   1.00
H446   H     0.10728   0.48430   0.77049   0.00000  Uiso   1.00
H447   H     0.06289   0.49995   0.78532   0.00000  Uiso   1.00
H448   H     0.03867   0.48827   0.71876   0.00000  Uiso   1.00
H449   H     0.05939   0.44779   0.73849   0.00000  Uiso   1.00
H450   H     0.08338   0.47423   0.70252   0.00000  Uiso   1.00
H451   H     0.45001   0.21990   0.97480   0.00000  Uiso   1.00
H452   H     0.37161   0.46316   0.16016   0.00000  Uiso   1.00
H453   H     0.35361   0.41874   0.16758   0.00000  Uiso   1.00
H454   H     0.43548   0.43494   0.15357   0.00000  Uiso   1.00
H455   H     0.41351   0.39100   0.15361   0.00000  Uiso   1.00
H456   H     0.37631   0.40904   0.09586   0.00000  Uiso   1.00
H457   H     0.42454   0.41182   0.08637   0.00000  Uiso   1.00
H458   H     0.39899   0.45288   0.09510   0.00000  Uiso   1.00
H459   H     0.02694   0.37611   0.82570   0.00000  Uiso   1.00
H460   H     0.04250   0.39791   0.78253   0.00000  Uiso   1.00
H461   H     0.06660   0.41849   0.86629   0.00000  Uiso   1.00
H462   H     0.46990   0.20001   0.52520   0.00000  Uiso   1.00
H463   H     0.07737   0.44283   0.82221   0.00000  Uiso   1.00
H464   H     0.01040   0.45416   0.81124   0.00000  Uiso   1.00
H465   H     0.02744   0.47363   0.85592   0.00000  Uiso   1.00
H466   H     0.00117   0.43219   0.85746   0.00000  Uiso   1.00
H467   H     0.41984   0.18100   0.14355   0.00000  Uiso   1.00
H468   H     0.38925   0.19084   0.18240   0.00000  Uiso   1.00
H469   H     0.37566   0.13411   0.11704   0.00000  Uiso   1.00
H470   H     0.34368   0.14712   0.15435   0.00000  Uiso   1.00
H471   H     0.34389   0.21111   0.12912   0.00000  Uiso   1.00
H472   H     0.33025   0.17874   0.09238   0.00000  Uiso   1.00
O473   O     0.25000   0.00000   0.25000   0.00000  Uiso   1.00
O474   O     0.25000   0.46964   0.66317   0.00000  Uiso   1.00
O475   O     0.18012   0.05986   0.87939   0.00000  Uiso   1.00
O476   O     0.21589   0.10074   0.92084   0.00000  Uiso   1.00
O477   O     0.24399   0.08000   0.85513   0.00000  Uiso   1.00
O478   O     0.44014   0.31988   0.12061   0.00000  Uiso   1.00
O479   O     0.39926   0.28411   0.07916   0.00000  Uiso   1.00
O480   O     0.42001   0.25601   0.14487   0.00000  Uiso   1.00
O481   O     0.44690   0.17342   0.88242   0.00000  Uiso   1.00
O482   O     0.40255   0.20717   0.92132   0.00000  Uiso   1.00
O483   O     0.42168   0.23415   0.85452   0.00000  Uiso   1.00
O484   O     0.42342   0.19690   0.61758   0.00000  Uiso   1.00
O485   O     0.46964   0.25000   0.33683   0.00000  Uiso   1.00
O486   O     0.45717   0.15255   0.57868   0.00000  Uiso   1.00
O487   O     0.48415   0.17168   0.64547   0.00000  Uiso   1.00
O488   O     0.06988   0.19014   0.37939   0.00000  Uiso   1.00
O489   O     0.03411   0.14926   0.42084   0.00000  Uiso   1.00
O490   O     0.00601   0.17001   0.35513   0.00000  Uiso   1.00
O491   O     0.30986   0.43012   0.62061   0.00000  Uiso   1.00
O492   O     0.35074   0.46589   0.57916   0.00000  Uiso   1.00
O493   O     0.33000   0.49398   0.64487   0.00000  Uiso   1.00
O494   O     0.30310   0.07658   0.38242   0.00000  Uiso   1.00
O495   O     0.34745   0.04283   0.42132   0.00000  Uiso   1.00
O496   O     0.03036   0.25000   0.66317   0.00000  Uiso   1.00
O497   O     0.32832   0.01585   0.35452   0.00000  Uiso   1.00
O498   O     0.07658   0.30310   0.61758   0.00000  Uiso   1.00
O499   O     0.04284   0.34745   0.57868   0.00000  Uiso   1.00
O500   O     0.01585   0.32832   0.64547   0.00000  Uiso   1.00
O501   O     0.43012   0.30986   0.37939   0.00000  Uiso   1.00
O502   O     0.46589   0.35074   0.42084   0.00000  Uiso   1.00
O503   O     0.49399   0.33000   0.35514   0.00000  Uiso   1.00
O504   O     0.19014   0.06988   0.62061   0.00000  Uiso   1.00
O505   O     0.14926   0.03411   0.57916   0.00000  Uiso   1.00
O506   O     0.17001   0.00602   0.64487   0.00000  Uiso   1.00
O507   O     0.00000   0.21964   0.83683   0.00000  Uiso   1.00
O508   O     0.19690   0.42342   0.38241   0.00000  Uiso   1.00
O509   O     0.15255   0.45716   0.42132   0.00000  Uiso   1.00
O510   O     0.17168   0.48415   0.35452   0.00000  Uiso   1.00
O511   O     0.00000   0.28036   0.16317   0.00000  Uiso   1.00
O512   O     0.28036   0.00000   0.83683   0.00000  Uiso   1.00
O513   O     0.21964   0.00000   0.16317   0.00000  Uiso   1.00
O514   O     0.00000   0.28036   0.83683   0.00000  Uiso   1.00
O515   O     0.00000   0.21964   0.16317   0.00000  Uiso   1.00
O516   O     0.21964   0.00000   0.83683   0.00000  Uiso   1.00
O517   O     0.25000   0.00000   0.75000   0.00000  Uiso   1.00
O518   O     0.28036   0.00000   0.16317   0.00000  Uiso   1.00
O519   O     0.20726   0.07307   0.27282   0.00000  Uiso   1.00
O520   O     0.29275   0.42693   0.72718   0.00000  Uiso   1.00
O521   O     0.42693   0.20726   0.27282   0.00000  Uiso   1.00
O522   O     0.07307   0.29274   0.72718   0.00000  Uiso   1.00
O523   O     0.29275   0.42693   0.27282   0.00000  Uiso   1.00
O524   O     0.20726   0.07307   0.72718   0.00000  Uiso   1.00
O525   O     0.07307   0.29274   0.27282   0.00000  Uiso   1.00
O526   O     0.42693   0.20726   0.72718   0.00000  Uiso   1.00
O527   O     0.20726   0.42693   0.72718   0.00000  Uiso   1.00
O528   O     0.00000   0.25000   0.25000   0.00000  Uiso   1.00
O529   O     0.29275   0.07307   0.27282   0.00000  Uiso   1.00
O530   O     0.42693   0.29275   0.72718   0.00000  Uiso   1.00
O531   O     0.07307   0.20725   0.27282   0.00000  Uiso   1.00
O532   O     0.29275   0.07307   0.72718   0.00000  Uiso   1.00
O533   O     0.20726   0.42693   0.27282   0.00000  Uiso   1.00
O534   O     0.07307   0.20725   0.72718   0.00000  Uiso   1.00
O535   O     0.42693   0.29275   0.27282   0.00000  Uiso   1.00
O536   O     0.45726   0.32307   0.77282   0.00000  Uiso   1.00
O537   O     0.04275   0.17693   0.22718   0.00000  Uiso   1.00
O538   O     0.17693   0.45725   0.77282   0.00000  Uiso   1.00
O539   O     0.00000   0.25000   0.75000   0.00000  Uiso   1.00
O540   O     0.32307   0.04275   0.22718   0.00000  Uiso   1.00
O541   O     0.04275   0.17693   0.77282   0.00000  Uiso   1.00
O542   O     0.45726   0.32307   0.22718   0.00000  Uiso   1.00
O543   O     0.32307   0.04275   0.77282   0.00000  Uiso   1.00
O544   O     0.17693   0.45725   0.22718   0.00000  Uiso   1.00
O545   O     0.45726   0.17693   0.22718   0.00000  Uiso   1.00
O546   O     0.04275   0.32307   0.77282   0.00000  Uiso   1.00
O547   O     0.17693   0.04275   0.22718   0.00000  Uiso   1.00
O548   O     0.32307   0.45725   0.77282   0.00000  Uiso   1.00
O549   O     0.04275   0.32307   0.22718   0.00000  Uiso   1.00
O550   O     0.25000   0.46964   0.33683   0.00000  Uiso   1.00
O551   O     0.45726   0.17693   0.77282   0.00000  Uiso   1.00
O552   O     0.32307   0.45725   0.22718   0.00000  Uiso   1.00
O553   O     0.17693   0.04275   0.77282   0.00000  Uiso   1.00
O554   O     0.13251   0.41901   0.18446   0.00000  Uiso   1.00
O555   O     0.36125   0.08610   0.81839   0.00000  Uiso   1.00
O556   O     0.05564   0.10823   0.22225   0.00000  Uiso   1.00
O557   O     0.43990   0.38903   0.78908   0.00000  Uiso   1.00
O558   O     0.36749   0.08099   0.18446   0.00000  Uiso   1.00
O559   O     0.13875   0.41390   0.81839   0.00000  Uiso   1.00
O560   O     0.44436   0.39177   0.22225   0.00000  Uiso   1.00
O561   O     0.25000   0.03036   0.66317   0.00000  Uiso   1.00
O562   O     0.06010   0.11097   0.78908   0.00000  Uiso   1.00
O563   O     0.10823   0.05564   0.77775   0.00000  Uiso   1.00
O564   O     0.38903   0.43990   0.21092   0.00000  Uiso   1.00
O565   O     0.08099   0.36749   0.81554   0.00000  Uiso   1.00
O566   O     0.41390   0.13875   0.18161   0.00000  Uiso   1.00
O567   O     0.39177   0.44436   0.77775   0.00000  Uiso   1.00
O568   O     0.11097   0.06010   0.21091   0.00000  Uiso   1.00
O569   O     0.41901   0.13251   0.81554   0.00000  Uiso   1.00
O570   O     0.08610   0.36125   0.18161   0.00000  Uiso   1.00
O571   O     0.38251   0.16901   0.68446   0.00000  Uiso   1.00
O572   O     0.03036   0.25000   0.33683   0.00000  Uiso   1.00
O573   O     0.11125   0.33610   0.31839   0.00000  Uiso   1.00
O574   O     0.30564   0.35823   0.72225   0.00000  Uiso   1.00
O575   O     0.18990   0.13903   0.28908   0.00000  Uiso   1.00
O576   O     0.11749   0.33099   0.68446   0.00000  Uiso   1.00
O577   O     0.38875   0.16390   0.31839   0.00000  Uiso   1.00
O578   O     0.19436   0.14177   0.72225   0.00000  Uiso   1.00
O579   O     0.31010   0.36097   0.28909   0.00000  Uiso   1.00
O580   O     0.35823   0.30564   0.27775   0.00000  Uiso   1.00
O581   O     0.13903   0.18990   0.71091   0.00000  Uiso   1.00
O582   O     0.33099   0.11749   0.31554   0.00000  Uiso   1.00
O583   O     0.46964   0.25000   0.66317   0.00000  Uiso   1.00
O584   O     0.16390   0.38875   0.68161   0.00000  Uiso   1.00
O585   O     0.14177   0.19436   0.27774   0.00000  Uiso   1.00
O586   O     0.36097   0.31010   0.71091   0.00000  Uiso   1.00
O587   O     0.16901   0.38251   0.31554   0.00000  Uiso   1.00
O588   O     0.33610   0.11125   0.68161   0.00000  Uiso   1.00
O589   O     0.17342   0.44690   0.11758   0.00000  Uiso   1.00
O590   O     0.20717   0.40255   0.07868   0.00000  Uiso   1.00
O591   O     0.23415   0.42168   0.14547   0.00000  Uiso   1.00
O592   O     0.31988   0.44014   0.87939   0.00000  Uiso   1.00
O593   O     0.28411   0.39926   0.92084   0.00000  Uiso   1.00
O594   O     0.25000   0.03036   0.33683   0.00000  Uiso   1.00
O595   O     0.25601   0.42000   0.85513   0.00000  Uiso   1.00
O596   O     0.05986   0.18012   0.12061   0.00000  Uiso   1.00
O597   O     0.10074   0.21589   0.07916   0.00000  Uiso   1.00
O598   O     0.08000   0.24399   0.14486   0.00000  Uiso   1.00
O599   O     0.05310   0.32658   0.88242   0.00000  Uiso   1.00
O600   O     0.09745   0.29284   0.92132   0.00000  Uiso   1.00
O601   O     0.07832   0.26585   0.85452   0.00000  Uiso   1.00
O602   O     0.32658   0.05310   0.11758   0.00000  Uiso   1.00
O603   O     0.29283   0.09745   0.07868   0.00000  Uiso   1.00
O604   O     0.26585   0.07832   0.14547   0.00000  Uiso   1.00
S605   S     0.21074   0.43453   0.10571   0.00000  Uiso   1.00
S606   S     0.03221   0.18114   0.39350   0.00000  Uiso   1.00
S607   S     0.31886   0.46779   0.60650   0.00000  Uiso   1.00
S608   S     0.31547   0.03926   0.39429   0.00000  Uiso   1.00
S609   S     0.03926   0.31546   0.60571   0.00000  Uiso   1.00
S610   S     0.46780   0.31886   0.39350   0.00000  Uiso   1.00
S611   S     0.18114   0.03221   0.60650   0.00000  Uiso   1.00
S612   S     0.18454   0.46073   0.39429   0.00000  Uiso   1.00
S613   S     0.28221   0.43114   0.89350   0.00000  Uiso   1.00
S614   S     0.06886   0.21780   0.10650   0.00000  Uiso   1.00
S615   S     0.06546   0.28926   0.89429   0.00000  Uiso   1.00
S616   S     0.28926   0.06547   0.10571   0.00000  Uiso   1.00
S617   S     0.21779   0.06886   0.89350   0.00000  Uiso   1.00
S618   S     0.43114   0.28220   0.10650   0.00000  Uiso   1.00
S619   S     0.43454   0.21074   0.89429   0.00000  Uiso   1.00
S620   S     0.46074   0.18454   0.60571   0.00000  Uiso   1.00
Zn621  Zn    0.20660   0.00000   0.21760   0.00000  Uiso   1.00
Zn622  Zn    0.04340   0.25000   0.28240   0.00000  Uiso   1.00
Zn623  Zn    0.25000   0.45660   0.71760   0.00000  Uiso   1.00
Zn624  Zn    0.25000   0.04340   0.28240   0.00000  Uiso   1.00
Zn625  Zn    0.04340   0.25000   0.71760   0.00000  Uiso   1.00
Zn626  Zn    0.45660   0.25000   0.28240   0.00000  Uiso   1.00
Zn627  Zn    0.25000   0.04340   0.71760   0.00000  Uiso   1.00
Zn628  Zn    0.25000   0.45660   0.28240   0.00000  Uiso   1.00
Zn629  Zn    0.29340  -0.00000   0.78240   0.00000  Uiso   1.00
Zn630  Zn    0.00000   0.20660   0.21760   0.00000  Uiso   1.00
Zn631  Zn    0.00000   0.29340   0.78240   0.00000  Uiso   1.00
Zn632  Zn    0.29340   0.00000   0.21760   0.00000  Uiso   1.00
Zn633  Zn    0.20660  -0.00000   0.78240   0.00000  Uiso   1.00
Zn634  Zn    0.00000   0.29340   0.21760   0.00000  Uiso   1.00
Zn635  Zn    0.00000   0.20660   0.78240   0.00000  Uiso   1.00
Zn636  Zn    0.45660   0.25000   0.71760   0.00000  Uiso   1.00
C637   C     0.73318   0.47163   0.04130   0.00000  Uiso   1.00
C638   C     0.51387   0.22011   0.45832   0.00000  Uiso   1.00
C639   C     0.84799   0.40201   0.75000   0.00000  Uiso   1.00
C640   C     0.90205   0.15205   0.25000   0.00000  Uiso   1.00
C641   C     0.59829   0.34829   0.75000   0.00000  Uiso   1.00
C642   C     0.84827   0.40173   0.25000   0.00000  Uiso   1.00
C643   C     0.65201   0.09799   0.75000   0.00000  Uiso   1.00
C644   C     0.59827   0.15173   0.75000   0.00000  Uiso   1.00
C645   C     0.90201   0.34799   0.25000   0.00000  Uiso   1.00
C646   C     0.65205   0.40205   0.75000   0.00000  Uiso   1.00
C647   C     0.84829   0.09829   0.25000   0.00000  Uiso   1.00
C648   C     0.90173   0.34827   0.75000   0.00000  Uiso   1.00
C649   C     0.77989   0.48613   0.54167   0.00000  Uiso   1.00
C650   C     0.59799   0.15201   0.25000   0.00000  Uiso   1.00
C651   C     0.84795   0.09795   0.75000   0.00000  Uiso   1.00
C652   C     0.65171   0.40171   0.25000   0.00000  Uiso   1.00
C653   C     0.75000  -0.00000   0.10245   0.00000  Uiso   1.00
C654   C     0.75000  -0.00000   0.89731   0.00000  Uiso   1.00
C655   C     0.50000   0.25000   0.10269   0.00000  Uiso   1.00
C656   C     0.50000   0.25000   0.89755   0.00000  Uiso   1.00
C657   C     0.50000   0.25000   0.60245   0.00000  Uiso   1.00
C658   C     0.50000   0.25000   0.39731   0.00000  Uiso   1.00
C659   C     0.75000  -0.00000   0.60269   0.00000  Uiso   1.00
C660   C     0.77837   0.01682   0.45870   0.00000  Uiso   1.00
C661   C     0.75000  -0.00000   0.39755   0.00000  Uiso   1.00
C662   C     0.60908   0.44955   0.18699   0.00000  Uiso   1.00
C663   C     0.57433   0.44339   0.16328   0.00000  Uiso   1.00
C664   C     0.55228   0.47836   0.15954   0.00000  Uiso   1.00
C665   C     0.83111   0.10172   0.83781   0.00000  Uiso   1.00
C666   C     0.84316   0.13334   0.86394   0.00000  Uiso   1.00
C667   C     0.81183   0.14668   0.88933   0.00000  Uiso   1.00
C668   C     0.53658   0.09166   0.25325   0.00000  Uiso   1.00
C669   C     0.99820   0.08215   0.23955   0.00000  Uiso   1.00
C670   C     0.97582   0.06481   0.27205   0.00000  Uiso   1.00
C671   C     0.51682   0.27837   0.54130   0.00000  Uiso   1.00
C672   C     0.93573   0.37860   0.82862   0.00000  Uiso   1.00
C673   C     0.92028   0.40978   0.85325   0.00000  Uiso   1.00
C674   C     0.92379   0.40180   0.89667   0.00000  Uiso   1.00
C675   C     0.89092   0.05045   0.18699   0.00000  Uiso   1.00
C676   C     0.92567   0.05661   0.16327   0.00000  Uiso   1.00
C677   C     0.94772   0.02165   0.15953   0.00000  Uiso   1.00
C678   C     0.66889   0.39828   0.83781   0.00000  Uiso   1.00
C679   C     0.65684   0.36666   0.86394   0.00000  Uiso   1.00
C680   C     0.68817   0.35332   0.88933   0.00000  Uiso   1.00
C681   C     0.96342   0.40833   0.25326   0.00000  Uiso   1.00
C682   C     0.98613   0.27989   0.45832   0.00000  Uiso   1.00
C683   C     0.50179   0.41788   0.23954   0.00000  Uiso   1.00
C684   C     0.52417   0.43521   0.27205   0.00000  Uiso   1.00
C685   C     0.56427   0.12140   0.82862   0.00000  Uiso   1.00
C686   C     0.57972   0.09022   0.85325   0.00000  Uiso   1.00
C687   C     0.57621   0.09820   0.89667   0.00000  Uiso   1.00
C688   C     0.59166   0.03658   0.74675   0.00000  Uiso   1.00
C689   C     0.58215   0.49820   0.76045   0.00000  Uiso   1.00
C690   C     0.56481   0.47582   0.72794   0.00000  Uiso   1.00
C691   C     0.87860   0.43573   0.17138   0.00000  Uiso   1.00
C692   C     0.90978   0.42028   0.14675   0.00000  Uiso   1.00
C693   C     0.72011   0.01387   0.54167   0.00000  Uiso   1.00
C694   C     0.90180   0.42379   0.10333   0.00000  Uiso   1.00
C695   C     0.55045   0.39092   0.81301   0.00000  Uiso   1.00
C696   C     0.55661   0.42567   0.83673   0.00000  Uiso   1.00
C697   C     0.52165   0.44772   0.84046   0.00000  Uiso   1.00
C698   C     0.89828   0.16889   0.16219   0.00000  Uiso   1.00
C699   C     0.86666   0.15685   0.13606   0.00000  Uiso   1.00
C700   C     0.85332   0.18817   0.11067   0.00000  Uiso   1.00
C701   C     0.90834   0.46342   0.74675   0.00000  Uiso   1.00
C702   C     0.91785   0.00180   0.76045   0.00000  Uiso   1.00
C703   C     0.93519   0.02418   0.72794   0.00000  Uiso   1.00
C704   C     0.72163   0.48318   0.45870   0.00000  Uiso   1.00
C705   C     0.62140   0.06427   0.17138   0.00000  Uiso   1.00
C706   C     0.59022   0.07973   0.14675   0.00000  Uiso   1.00
C707   C     0.59821   0.07622   0.10332   0.00000  Uiso   1.00
C708   C     0.94955   0.10908   0.81301   0.00000  Uiso   1.00
C709   C     0.94339   0.07433   0.83673   0.00000  Uiso   1.00
C710   C     0.97835   0.05228   0.84046   0.00000  Uiso   1.00
C711   C     0.60172   0.33111   0.16219   0.00000  Uiso   1.00
C712   C     0.63333   0.34316   0.13606   0.00000  Uiso   1.00
C713   C     0.64667   0.31183   0.11067   0.00000  Uiso   1.00
C714   C     0.85908   0.19955   0.68699   0.00000  Uiso   1.00
C715   C     0.73292   0.47124   0.08190   0.00000  Uiso   1.00
C716   C     0.82433   0.19339   0.66327   0.00000  Uiso   1.00
C717   C     0.80228   0.22835   0.65953   0.00000  Uiso   1.00
C718   C     0.58111   0.35171   0.33781   0.00000  Uiso   1.00
C719   C     0.59315   0.38334   0.36393   0.00000  Uiso   1.00
C720   C     0.56182   0.39667   0.38932   0.00000  Uiso   1.00
C721   C     0.78658   0.34166   0.75325   0.00000  Uiso   1.00
C722   C     0.74820   0.33215   0.73955   0.00000  Uiso   1.00
C723   C     0.72582   0.31481   0.77206   0.00000  Uiso   1.00
C724   C     0.68573   0.12860   0.32862   0.00000  Uiso   1.00
C725   C     0.67028   0.15978   0.35325   0.00000  Uiso   1.00
C726   C     0.76412   0.46975   0.91773   0.00000  Uiso   1.00
C727   C     0.67379   0.15180   0.39667   0.00000  Uiso   1.00
C728   C     0.64092   0.30045   0.68699   0.00000  Uiso   1.00
C729   C     0.67567   0.30661   0.66327   0.00000  Uiso   1.00
C730   C     0.69772   0.27165   0.65954   0.00000  Uiso   1.00
C731   C     0.91889   0.14828   0.33781   0.00000  Uiso   1.00
C732   C     0.90685   0.11666   0.36394   0.00000  Uiso   1.00
C733   C     0.93817   0.10332   0.38933   0.00000  Uiso   1.00
C734   C     0.71342   0.15834   0.75325   0.00000  Uiso   1.00
C735   C     0.75180   0.16785   0.73955   0.00000  Uiso   1.00
C736   C     0.77418   0.18519   0.77206   0.00000  Uiso   1.00
C737   C     0.53025   0.23588   0.08227   0.00000  Uiso   1.00
C738   C     0.81427   0.37140   0.32862   0.00000  Uiso   1.00
C739   C     0.82972   0.34022   0.35325   0.00000  Uiso   1.00
C740   C     0.82622   0.34821   0.39667   0.00000  Uiso   1.00
C741   C     0.84166   0.28658   0.24675   0.00000  Uiso   1.00
C742   C     0.83215   0.24820   0.26046   0.00000  Uiso   1.00
C743   C     0.81481   0.22582   0.22795   0.00000  Uiso   1.00
C744   C     0.62860   0.18573   0.67138   0.00000  Uiso   1.00
C745   C     0.65978   0.17028   0.64675   0.00000  Uiso   1.00
C746   C     0.65180   0.17379   0.60333   0.00000  Uiso   1.00
C747   C     0.80045   0.14092   0.31301   0.00000  Uiso   1.00
C748   C     0.76387   0.47011   0.95832   0.00000  Uiso   1.00
C749   C     0.52876   0.26708   0.91810   0.00000  Uiso   1.00
C750   C     0.80661   0.17567   0.33673   0.00000  Uiso   1.00
C751   C     0.77165   0.19772   0.34047   0.00000  Uiso   1.00
C752   C     0.64828   0.41889   0.66219   0.00000  Uiso   1.00
C753   C     0.61666   0.40684   0.63606   0.00000  Uiso   1.00
C754   C     0.60332   0.43817   0.61067   0.00000  Uiso   1.00
C755   C     0.65834   0.21342   0.24675   0.00000  Uiso   1.00
C756   C     0.66785   0.25180   0.26045   0.00000  Uiso   1.00
C757   C     0.68519   0.27418   0.22794   0.00000  Uiso   1.00
C758   C     0.87140   0.31427   0.67138   0.00000  Uiso   1.00
C759   C     0.84022   0.32972   0.64675   0.00000  Uiso   1.00
C760   C     0.76708   0.02876   0.08190   0.00000  Uiso   1.00
C761   C     0.84820   0.32621   0.60333   0.00000  Uiso   1.00
C762   C     0.69955   0.35908   0.31300   0.00000  Uiso   1.00
C763   C     0.69339   0.32433   0.33673   0.00000  Uiso   1.00
C764   C     0.72836   0.30228   0.34046   0.00000  Uiso   1.00
C765   C     0.85172   0.08111   0.66219   0.00000  Uiso   1.00
C766   C     0.88334   0.09316   0.63606   0.00000  Uiso   1.00
C767   C     0.89668   0.06183   0.61067   0.00000  Uiso   1.00
C768   C     0.73588   0.03025   0.91773   0.00000  Uiso   1.00
C769   C     0.96975   0.26412   0.08227   0.00000  Uiso   1.00
C770   C     0.97124   0.23292   0.91810   0.00000  Uiso   1.00
C771   C     0.98292   0.22124   0.58190   0.00000  Uiso   1.00
C772   C     0.51412   0.21975   0.41773   0.00000  Uiso   1.00
C773   C     0.78025   0.48588   0.58227   0.00000  Uiso   1.00
C774   C     0.77876   0.01708   0.41810   0.00000  Uiso   1.00
C775   C     0.51708   0.27875   0.58190   0.00000  Uiso   1.00
C776   C     0.52989   0.23613   0.04167   0.00000  Uiso   1.00
C777   C     0.98588   0.28025   0.41773   0.00000  Uiso   1.00
C778   C     0.71975   0.01412   0.58227   0.00000  Uiso   1.00
C779   C     0.72124   0.48292   0.41810   0.00000  Uiso   1.00
C780   C     0.75000  -0.00000   0.02109   0.00000  Uiso   1.00
C781   C     0.75000  -0.00000   0.97854   0.00000  Uiso   1.00
C782   C     0.50000   0.25000   0.02145   0.00000  Uiso   1.00
C783   C     0.50000   0.25000   0.97891   0.00000  Uiso   1.00
C784   C     0.50000   0.25000   0.52109   0.00000  Uiso   1.00
C785   C     0.50000   0.25000   0.47854   0.00000  Uiso   1.00
C786   C     0.75000  -0.00000   0.52145   0.00000  Uiso   1.00
C787   C     0.52837   0.26682   0.95870   0.00000  Uiso   1.00
C788   C     0.75000  -0.00000   0.47891   0.00000  Uiso   1.00
C789   C     0.75000  -0.00000   0.35512   0.00000  Uiso   1.00
C790   C     0.75000  -0.00000   0.64497   0.00000  Uiso   1.00
C791   C     0.50000   0.25000   0.35503   0.00000  Uiso   1.00
C792   C     0.50000   0.25000   0.64488   0.00000  Uiso   1.00
C793   C     0.50000   0.25000   0.85512   0.00000  Uiso   1.00
C794   C     0.50000   0.25000   0.14497   0.00000  Uiso   1.00
C795   C     0.75000  -0.00000   0.85503   0.00000  Uiso   1.00
C796   C     0.75000  -0.00000   0.14488   0.00000  Uiso   1.00
C797   C     0.67988   0.07012   0.25000   0.00000  Uiso   1.00
C798   C     0.76682   0.02837   0.04130   0.00000  Uiso   1.00
C799   C     0.82001   0.42999   0.75000   0.00000  Uiso   1.00
C800   C     0.93002   0.18002   0.25000   0.00000  Uiso   1.00
C801   C     0.57012   0.32011   0.75000   0.00000  Uiso   1.00
C802   C     0.82012   0.42988   0.25000   0.00000  Uiso   1.00
C803   C     0.67999   0.07001   0.75000   0.00000  Uiso   1.00
C804   C     0.56999   0.31998   0.25000   0.00000  Uiso   1.00
C805   C     0.92989   0.17989   0.75000   0.00000  Uiso   1.00
C806   C     0.68002   0.43001   0.75000   0.00000  Uiso   1.00
C807   C     0.82012   0.07012   0.25000   0.00000  Uiso   1.00
C808   C     0.92988   0.32012   0.75000   0.00000  Uiso   1.00
C809   C     0.73613   0.02989   0.95832   0.00000  Uiso   1.00
C810   C     0.57001   0.17999   0.25000   0.00000  Uiso   1.00
C811   C     0.81999   0.06999   0.75000   0.00000  Uiso   1.00
C812   C     0.67989   0.42988   0.25000   0.00000  Uiso   1.00
C813   C     0.57012   0.17988   0.75000   0.00000  Uiso   1.00
C814   C     0.92999   0.32001   0.25000   0.00000  Uiso   1.00
C815   C     0.62873   0.39744   0.21728   0.00000  Uiso   1.00
C816   C     0.86817   0.10467   0.78406   0.00000  Uiso   1.00
C817   C     0.59018   0.11723   0.23511   0.00000  Uiso   1.00
C818   C     0.90796   0.38187   0.76904   0.00000  Uiso   1.00
C819   C     0.87127   0.10257   0.21728   0.00000  Uiso   1.00
C820   C     0.97011   0.26387   0.04167   0.00000  Uiso   1.00
C821   C     0.63183   0.39533   0.78406   0.00000  Uiso   1.00
C822   C     0.90982   0.38277   0.23511   0.00000  Uiso   1.00
C823   C     0.59204   0.11813   0.76904   0.00000  Uiso   1.00
C824   C     0.61723   0.09018   0.76489   0.00000  Uiso   1.00
C825   C     0.88187   0.40796   0.23095   0.00000  Uiso   1.00
C826   C     0.60257   0.37127   0.78272   0.00000  Uiso   1.00
C827   C     0.89533   0.13183   0.21594   0.00000  Uiso   1.00
C828   C     0.88277   0.40982   0.76489   0.00000  Uiso   1.00
C829   C     0.61813   0.09204   0.23095   0.00000  Uiso   1.00
C830   C     0.89743   0.12873   0.78272   0.00000  Uiso   1.00
C831   C     0.97163   0.23318   0.95870   0.00000  Uiso   1.00
C832   C     0.60467   0.36817   0.21594   0.00000  Uiso   1.00
C833   C     0.87873   0.14743   0.71728   0.00000  Uiso   1.00
C834   C     0.61817   0.35467   0.28406   0.00000  Uiso   1.00
C835   C     0.84018   0.36723   0.73511   0.00000  Uiso   1.00
C836   C     0.65796   0.13187   0.26904   0.00000  Uiso   1.00
C837   C     0.62127   0.35257   0.71728   0.00000  Uiso   1.00
C838   C     0.88183   0.14533   0.28406   0.00000  Uiso   1.00
C839   C     0.65982   0.13277   0.73511   0.00000  Uiso   1.00
C840   C     0.84204   0.36813   0.26904   0.00000  Uiso   1.00
C841   C     0.86723   0.34018   0.26489   0.00000  Uiso   1.00
C842   C     0.98318   0.22163   0.54130   0.00000  Uiso   1.00
C843   C     0.63187   0.15796   0.73095   0.00000  Uiso   1.00
C844   C     0.85257   0.12127   0.28272   0.00000  Uiso   1.00
C845   C     0.64533   0.38183   0.71594   0.00000  Uiso   1.00
C846   C     0.63277   0.15982   0.26489   0.00000  Uiso   1.00
C847   C     0.86813   0.34204   0.73095   0.00000  Uiso   1.00
C848   C     0.64744   0.37873   0.28272   0.00000  Uiso   1.00
C849   C     0.85467   0.11817   0.71594   0.00000  Uiso   1.00
C850   C     0.59795   0.34795   0.25000   0.00000  Uiso   1.00
C851   C     0.90171   0.15171   0.75000   0.00000  Uiso   1.00
C852   C     0.65173   0.09827   0.25000   0.00000  Uiso   1.00
H853   H     0.71990   0.45001   0.02520   0.00000  Uiso   1.00
H854   H     0.52484   0.19727   0.47440   0.00000  Uiso   1.00
H855   H     0.87551   0.19787   0.09128   0.00000  Uiso   1.00
H856   H     0.88942   0.46546   0.72146   0.00000  Uiso   1.00
H857   H     0.93387   0.44958   0.73743   0.00000  Uiso   1.00
H858   H     0.89272   0.01570   0.77049   0.00000  Uiso   1.00
H859   H     0.93711   0.00005   0.78532   0.00000  Uiso   1.00
H860   H     0.96134   0.01173   0.71876   0.00000  Uiso   1.00
H861   H     0.94060   0.05221   0.73849   0.00000  Uiso   1.00
H862   H     0.91662   0.02577   0.70252   0.00000  Uiso   1.00
H863   H     0.62839   0.03684   0.16016   0.00000  Uiso   1.00
H864   H     0.64639   0.08126   0.16758   0.00000  Uiso   1.00
H865   H     0.80273   0.47516   0.52560   0.00000  Uiso   1.00
H866   H     0.56452   0.06507   0.15356   0.00000  Uiso   1.00
H867   H     0.58650   0.10901   0.15361   0.00000  Uiso   1.00
H868   H     0.62369   0.09096   0.09586   0.00000  Uiso   1.00
H869   H     0.57546   0.08818   0.08637   0.00000  Uiso   1.00
H870   H     0.60101   0.04712   0.09510   0.00000  Uiso   1.00
H871   H     0.97306   0.12389   0.82570   0.00000  Uiso   1.00
H872   H     0.95750   0.10209   0.78253   0.00000  Uiso   1.00
H873   H     0.93340   0.08151   0.86629   0.00000  Uiso   1.00
H874   H     0.92263   0.05717   0.82221   0.00000  Uiso   1.00
H875   H     0.98960   0.04584   0.81124   0.00000  Uiso   1.00
H876   H     0.79999   0.03010   0.47480   0.00000  Uiso   1.00
H877   H     0.97256   0.02637   0.85592   0.00000  Uiso   1.00
H878   H     0.99883   0.06781   0.85746   0.00000  Uiso   1.00
H879   H     0.58015   0.31900   0.14355   0.00000  Uiso   1.00
H880   H     0.61075   0.30916   0.18239   0.00000  Uiso   1.00
H881   H     0.62433   0.36590   0.11704   0.00000  Uiso   1.00
H882   H     0.65631   0.35289   0.15435   0.00000  Uiso   1.00
H883   H     0.65610   0.28889   0.12911   0.00000  Uiso   1.00
H884   H     0.66974   0.32127   0.09237   0.00000  Uiso   1.00
H885   H     0.62448   0.30214   0.09128   0.00000  Uiso   1.00
H886   H     0.87389   0.22306   0.67430   0.00000  Uiso   1.00
H887   H     0.53010   0.29999   0.52520   0.00000  Uiso   1.00
H888   H     0.85209   0.20750   0.71747   0.00000  Uiso   1.00
H889   H     0.83151   0.18340   0.63371   0.00000  Uiso   1.00
H890   H     0.80717   0.17263   0.67780   0.00000  Uiso   1.00
H891   H     0.79584   0.23961   0.68876   0.00000  Uiso   1.00
H892   H     0.77637   0.22256   0.64408   0.00000  Uiso   1.00
H893   H     0.81781   0.24883   0.64254   0.00000  Uiso   1.00
H894   H     0.56900   0.33015   0.35645   0.00000  Uiso   1.00
H895   H     0.55916   0.36074   0.31760   0.00000  Uiso   1.00
H896   H     0.61589   0.37434   0.38295   0.00000  Uiso   1.00
H897   H     0.60288   0.40632   0.34564   0.00000  Uiso   1.00
H898   H     0.97516   0.30273   0.47440   0.00000  Uiso   1.00
H899   H     0.53888   0.40610   0.37087   0.00000  Uiso   1.00
H900   H     0.57126   0.41975   0.40761   0.00000  Uiso   1.00
H901   H     0.55213   0.37449   0.40872   0.00000  Uiso   1.00
H902   H     0.78454   0.36058   0.77854   0.00000  Uiso   1.00
H903   H     0.80042   0.31613   0.76258   0.00000  Uiso   1.00
H904   H     0.73430   0.35728   0.72951   0.00000  Uiso   1.00
H905   H     0.74995   0.31289   0.71468   0.00000  Uiso   1.00
H906   H     0.73827   0.28866   0.78124   0.00000  Uiso   1.00
H907   H     0.69780   0.30939   0.76151   0.00000  Uiso   1.00
H908   H     0.72423   0.33338   0.79748   0.00000  Uiso   1.00
H909   H     0.69727   0.02484   0.52560   0.00000  Uiso   1.00
H910   H     0.71316   0.12161   0.33984   0.00000  Uiso   1.00
H911   H     0.66874   0.10361   0.33242   0.00000  Uiso   1.00
H912   H     0.68494   0.18548   0.34643   0.00000  Uiso   1.00
H913   H     0.64100   0.16351   0.34639   0.00000  Uiso   1.00
H914   H     0.65904   0.12632   0.40414   0.00000  Uiso   1.00
H915   H     0.66182   0.17455   0.41363   0.00000  Uiso   1.00
H916   H     0.70288   0.14899   0.40490   0.00000  Uiso   1.00
H917   H     0.62611   0.27694   0.67430   0.00000  Uiso   1.00
H918   H     0.64791   0.29250   0.71747   0.00000  Uiso   1.00
H919   H     0.66849   0.31659   0.63371   0.00000  Uiso   1.00
H920   H     0.70001   0.46990   0.47479   0.00000  Uiso   1.00
H921   H     0.69283   0.32737   0.67779   0.00000  Uiso   1.00
H922   H     0.70416   0.26040   0.68876   0.00000  Uiso   1.00
H923   H     0.72363   0.27744   0.64408   0.00000  Uiso   1.00
H924   H     0.68219   0.25117   0.64254   0.00000  Uiso   1.00
H925   H     0.93101   0.16984   0.35644   0.00000  Uiso   1.00
H926   H     0.94084   0.13925   0.31760   0.00000  Uiso   1.00
H927   H     0.88411   0.12566   0.38296   0.00000  Uiso   1.00
H928   H     0.89712   0.09368   0.34565   0.00000  Uiso   1.00
H929   H     0.96111   0.09389   0.37088   0.00000  Uiso   1.00
H930   H     0.92874   0.08025   0.40762   0.00000  Uiso   1.00
H931   H     0.62389   0.47306   0.17430   0.00000  Uiso   1.00
H932   H     0.94787   0.12551   0.40872   0.00000  Uiso   1.00
H933   H     0.71546   0.13942   0.77854   0.00000  Uiso   1.00
H934   H     0.69958   0.18387   0.76258   0.00000  Uiso   1.00
H935   H     0.76570   0.14273   0.72950   0.00000  Uiso   1.00
H936   H     0.75005   0.18711   0.71468   0.00000  Uiso   1.00
H937   H     0.76172   0.21134   0.78125   0.00000  Uiso   1.00
H938   H     0.80220   0.19062   0.76150   0.00000  Uiso   1.00
H939   H     0.77578   0.16662   0.79747   0.00000  Uiso   1.00
H940   H     0.78684   0.37839   0.33984   0.00000  Uiso   1.00
H941   H     0.83126   0.39639   0.33242   0.00000  Uiso   1.00
H942   H     0.60209   0.45750   0.21747   0.00000  Uiso   1.00
H943   H     0.81507   0.31452   0.34644   0.00000  Uiso   1.00
H944   H     0.85901   0.33650   0.34639   0.00000  Uiso   1.00
H945   H     0.84096   0.37369   0.40414   0.00000  Uiso   1.00
H946   H     0.83818   0.32546   0.41363   0.00000  Uiso   1.00
H947   H     0.79712   0.35101   0.40490   0.00000  Uiso   1.00
H948   H     0.86059   0.28454   0.22147   0.00000  Uiso   1.00
H949   H     0.81613   0.30042   0.23742   0.00000  Uiso   1.00
H950   H     0.85728   0.23431   0.27050   0.00000  Uiso   1.00
H951   H     0.81289   0.24995   0.28532   0.00000  Uiso   1.00
H952   H     0.78867   0.23827   0.21876   0.00000  Uiso   1.00
H953   H     0.58151   0.43341   0.13372   0.00000  Uiso   1.00
H954   H     0.80940   0.19779   0.23850   0.00000  Uiso   1.00
H955   H     0.83339   0.22423   0.20253   0.00000  Uiso   1.00
H956   H     0.62161   0.21316   0.66016   0.00000  Uiso   1.00
H957   H     0.60361   0.16874   0.66758   0.00000  Uiso   1.00
H958   H     0.68548   0.18493   0.65357   0.00000  Uiso   1.00
H959   H     0.66351   0.14100   0.65361   0.00000  Uiso   1.00
H960   H     0.62631   0.15904   0.59586   0.00000  Uiso   1.00
H961   H     0.67454   0.16182   0.58637   0.00000  Uiso   1.00
H962   H     0.64899   0.20288   0.59510   0.00000  Uiso   1.00
H963   H     0.77694   0.12611   0.32570   0.00000  Uiso   1.00
H964   H     0.77484   0.44727   0.97440   0.00000  Uiso   1.00
H965   H     0.55716   0.42263   0.17780   0.00000  Uiso   1.00
H966   H     0.79250   0.14791   0.28253   0.00000  Uiso   1.00
H967   H     0.81660   0.16849   0.36629   0.00000  Uiso   1.00
H968   H     0.82737   0.19283   0.32221   0.00000  Uiso   1.00
H969   H     0.76040   0.20416   0.31124   0.00000  Uiso   1.00
H970   H     0.77744   0.22363   0.35592   0.00000  Uiso   1.00
H971   H     0.75117   0.18219   0.35746   0.00000  Uiso   1.00
H972   H     0.66984   0.43100   0.64355   0.00000  Uiso   1.00
H973   H     0.63925   0.44084   0.68240   0.00000  Uiso   1.00
H974   H     0.62566   0.38411   0.61704   0.00000  Uiso   1.00
H975   H     0.59368   0.39712   0.65435   0.00000  Uiso   1.00
H976   H     0.54584   0.48961   0.18876   0.00000  Uiso   1.00
H977   H     0.59389   0.46111   0.62912   0.00000  Uiso   1.00
H978   H     0.58025   0.42874   0.59237   0.00000  Uiso   1.00
H979   H     0.62551   0.44787   0.59128   0.00000  Uiso   1.00
H980   H     0.63941   0.21546   0.22146   0.00000  Uiso   1.00
H981   H     0.68387   0.19958   0.23742   0.00000  Uiso   1.00
H982   H     0.64273   0.26570   0.27049   0.00000  Uiso   1.00
H983   H     0.68711   0.25005   0.28531   0.00000  Uiso   1.00
H984   H     0.71133   0.26173   0.21875   0.00000  Uiso   1.00
H985   H     0.69061   0.30220   0.23849   0.00000  Uiso   1.00
H986   H     0.66661   0.27577   0.20252   0.00000  Uiso   1.00
H987   H     0.52637   0.47256   0.14409   0.00000  Uiso   1.00
H988   H     0.87839   0.28684   0.66016   0.00000  Uiso   1.00
H989   H     0.89639   0.33126   0.66758   0.00000  Uiso   1.00
H990   H     0.81452   0.31506   0.65357   0.00000  Uiso   1.00
H991   H     0.83649   0.35900   0.65361   0.00000  Uiso   1.00
H992   H     0.87369   0.34096   0.59586   0.00000  Uiso   1.00
H993   H     0.82546   0.33818   0.58637   0.00000  Uiso   1.00
H994   H     0.85101   0.29712   0.59510   0.00000  Uiso   1.00
H995   H     0.72306   0.37389   0.32570   0.00000  Uiso   1.00
H996   H     0.70750   0.35209   0.28253   0.00000  Uiso   1.00
H997   H     0.68341   0.33151   0.36628   0.00000  Uiso   1.00
H998   H     0.56782   0.49883   0.14254   0.00000  Uiso   1.00
H999   H     0.67263   0.30716   0.32220   0.00000  Uiso   1.00
H1000  H     0.73961   0.29584   0.31124   0.00000  Uiso   1.00
H1001  H     0.72256   0.27637   0.35592   0.00000  Uiso   1.00
H1002  H     0.74883   0.31781   0.35746   0.00000  Uiso   1.00
H1003  H     0.83016   0.06899   0.64355   0.00000  Uiso   1.00
H1004  H     0.86075   0.05916   0.68240   0.00000  Uiso   1.00
H1005  H     0.87434   0.11589   0.61704   0.00000  Uiso   1.00
H1006  H     0.90632   0.10288   0.65435   0.00000  Uiso   1.00
H1007  H     0.90611   0.03889   0.62912   0.00000  Uiso   1.00
H1008  H     0.91975   0.07127   0.59237   0.00000  Uiso   1.00
H1009  H     0.81900   0.08016   0.85645   0.00000  Uiso   1.00
H1010  H     0.87449   0.05213   0.59128   0.00000  Uiso   1.00
H1011  H     0.71698   0.40644   0.16064   0.00000  Uiso   1.00
H1012  H     0.76883   0.39958   0.84230   0.00000  Uiso   1.00
H1013  H     0.60042   0.23117   0.15770   0.00000  Uiso   1.00
H1014  H     0.59356   0.28302   0.83936   0.00000  Uiso   1.00
H1015  H     0.78302   0.09356   0.16064   0.00000  Uiso   1.00
H1016  H     0.73117   0.10042   0.84230   0.00000  Uiso   1.00
H1017  H     0.89958   0.26883   0.15770   0.00000  Uiso   1.00
H1018  H     0.90645   0.21698   0.83936   0.00000  Uiso   1.00
H1019  H     0.96698   0.15645   0.66064   0.00000  Uiso   1.00
H1020  H     0.80916   0.11075   0.81760   0.00000  Uiso   1.00
H1021  H     0.51883   0.14958   0.34230   0.00000  Uiso   1.00
H1022  H     0.85042   0.48117   0.65770   0.00000  Uiso   1.00
H1023  H     0.84356   0.03302   0.33936   0.00000  Uiso   1.00
H1024  H     0.53302   0.34355   0.66064   0.00000  Uiso   1.00
H1025  H     0.98117   0.35042   0.34231   0.00000  Uiso   1.00
H1026  H     0.64958   0.01883   0.65770   0.00000  Uiso   1.00
H1027  H     0.65644   0.46698   0.33936   0.00000  Uiso   1.00
H1028  H     0.86589   0.12434   0.88296   0.00000  Uiso   1.00
H1029  H     0.85288   0.15632   0.84565   0.00000  Uiso   1.00
H1030  H     0.78889   0.15611   0.87088   0.00000  Uiso   1.00
H1031  H     0.82126   0.16975   0.90762   0.00000  Uiso   1.00
H1032  H     0.55273   0.22516   0.02560   0.00000  Uiso   1.00
H1033  H     0.80213   0.12449   0.90872   0.00000  Uiso   1.00
H1034  H     0.53454   0.11058   0.27854   0.00000  Uiso   1.00
H1035  H     0.55042   0.06613   0.26258   0.00000  Uiso   1.00
H1036  H     0.98431   0.10728   0.22951   0.00000  Uiso   1.00
H1037  H     0.99995   0.06289   0.21468   0.00000  Uiso   1.00
H1038  H     0.98827   0.03866   0.28124   0.00000  Uiso   1.00
H1039  H     0.94780   0.05939   0.26150   0.00000  Uiso   1.00
H1040  H     0.97423   0.08338   0.29748   0.00000  Uiso   1.00
H1041  H     0.96316   0.37161   0.83984   0.00000  Uiso   1.00
H1042  H     0.91874   0.35361   0.83242   0.00000  Uiso   1.00
H1043  H     0.54999   0.28010   0.97480   0.00000  Uiso   1.00
H1044  H     0.93493   0.43548   0.84643   0.00000  Uiso   1.00
H1045  H     0.89100   0.41351   0.84639   0.00000  Uiso   1.00
H1046  H     0.90904   0.37631   0.90414   0.00000  Uiso   1.00
H1047  H     0.91182   0.42454   0.91363   0.00000  Uiso   1.00
H1048  H     0.95288   0.39899   0.90490   0.00000  Uiso   1.00
H1049  H     0.87611   0.02694   0.17430   0.00000  Uiso   1.00
H1050  H     0.89791   0.04250   0.21747   0.00000  Uiso   1.00
H1051  H     0.91849   0.06660   0.13371   0.00000  Uiso   1.00
H1052  H     0.94283   0.07737   0.17779   0.00000  Uiso   1.00
H1053  H     0.95416   0.01040   0.18876   0.00000  Uiso   1.00
H1054  H     0.78010   0.04999   0.02520   0.00000  Uiso   1.00
H1055  H     0.97363   0.02744   0.14408   0.00000  Uiso   1.00
H1056  H     0.93219   0.00117   0.14254   0.00000  Uiso   1.00
H1057  H     0.68101   0.41984   0.85644   0.00000  Uiso   1.00
H1058  H     0.69084   0.38925   0.81760   0.00000  Uiso   1.00
H1059  H     0.63411   0.37566   0.88296   0.00000  Uiso   1.00
H1060  H     0.64712   0.34368   0.84565   0.00000  Uiso   1.00
H1061  H     0.71111   0.34389   0.87088   0.00000  Uiso   1.00
H1062  H     0.67874   0.33025   0.90762   0.00000  Uiso   1.00
H1063  H     0.69787   0.37551   0.90872   0.00000  Uiso   1.00
H1064  H     0.96549   0.38938   0.27852   0.00000  Uiso   1.00
H1065  H     0.72516   0.05273   0.97440   0.00000  Uiso   1.00
H1066  H     0.94957   0.43384   0.26262   0.00000  Uiso   1.00
H1067  H     0.51570   0.39277   0.22946   0.00000  Uiso   1.00
H1068  H     0.50001   0.43716   0.21470   0.00000  Uiso   1.00
H1069  H     0.51168   0.46131   0.28130   0.00000  Uiso   1.00
H1070  H     0.55218   0.44069   0.26148   0.00000  Uiso   1.00
H1071  H     0.52582   0.41660   0.29744   0.00000  Uiso   1.00
H1072  H     0.53684   0.12839   0.83984   0.00000  Uiso   1.00
H1073  H     0.58126   0.14639   0.83242   0.00000  Uiso   1.00
H1074  H     0.56507   0.06452   0.84643   0.00000  Uiso   1.00
H1075  H     0.60900   0.08649   0.84639   0.00000  Uiso   1.00
H1076  H     0.94727   0.27484   0.02560   0.00000  Uiso   1.00
H1077  H     0.59096   0.12369   0.90414   0.00000  Uiso   1.00
H1078  H     0.58818   0.07546   0.91363   0.00000  Uiso   1.00
H1079  H     0.54712   0.10101   0.90490   0.00000  Uiso   1.00
H1080  H     0.61058   0.03454   0.72146   0.00000  Uiso   1.00
H1081  H     0.56613   0.05042   0.73742   0.00000  Uiso   1.00
H1082  H     0.60728   0.48430   0.77049   0.00000  Uiso   1.00
H1083  H     0.56289   0.49995   0.78532   0.00000  Uiso   1.00
H1084  H     0.53867   0.48827   0.71876   0.00000  Uiso   1.00
H1085  H     0.55939   0.44779   0.73849   0.00000  Uiso   1.00
H1086  H     0.58338   0.47423   0.70252   0.00000  Uiso   1.00
H1087  H     0.95001   0.21990   0.97480   0.00000  Uiso   1.00
H1088  H     0.87161   0.46316   0.16016   0.00000  Uiso   1.00
H1089  H     0.85361   0.41874   0.16758   0.00000  Uiso   1.00
H1090  H     0.93548   0.43494   0.15357   0.00000  Uiso   1.00
H1091  H     0.91351   0.39100   0.15361   0.00000  Uiso   1.00
H1092  H     0.87631   0.40904   0.09586   0.00000  Uiso   1.00
H1093  H     0.92454   0.41182   0.08637   0.00000  Uiso   1.00
H1094  H     0.89899   0.45288   0.09510   0.00000  Uiso   1.00
H1095  H     0.52694   0.37611   0.82570   0.00000  Uiso   1.00
H1096  H     0.54250   0.39791   0.78253   0.00000  Uiso   1.00
H1097  H     0.56660   0.41849   0.86629   0.00000  Uiso   1.00
H1098  H     0.96990   0.20001   0.52520   0.00000  Uiso   1.00
H1099  H     0.57737   0.44283   0.82221   0.00000  Uiso   1.00
H1100  H     0.51040   0.45416   0.81124   0.00000  Uiso   1.00
H1101  H     0.52744   0.47363   0.85592   0.00000  Uiso   1.00
H1102  H     0.50117   0.43219   0.85746   0.00000  Uiso   1.00
H1103  H     0.91984   0.18100   0.14355   0.00000  Uiso   1.00
H1104  H     0.88925   0.19084   0.18240   0.00000  Uiso   1.00
H1105  H     0.87566   0.13411   0.11704   0.00000  Uiso   1.00
H1106  H     0.84368   0.14712   0.15435   0.00000  Uiso   1.00
H1107  H     0.84389   0.21111   0.12912   0.00000  Uiso   1.00
H1108  H     0.83025   0.17874   0.09238   0.00000  Uiso   1.00
O1109  O     0.75000   0.00000   0.25000   0.00000  Uiso   1.00
O1110  O     0.75000   0.46964   0.66317   0.00000  Uiso   1.00
O1111  O     0.68012   0.05986   0.87939   0.00000  Uiso   1.00
O1112  O     0.71589   0.10074   0.92084   0.00000  Uiso   1.00
O1113  O     0.74399   0.08000   0.85513   0.00000  Uiso   1.00
O1114  O     0.94014   0.31988   0.12061   0.00000  Uiso   1.00
O1115  O     0.89926   0.28411   0.07916   0.00000  Uiso   1.00
O1116  O     0.92001   0.25601   0.14487   0.00000  Uiso   1.00
O1117  O     0.94690   0.17342   0.88242   0.00000  Uiso   1.00
O1118  O     0.90255   0.20717   0.92132   0.00000  Uiso   1.00
O1119  O     0.92168   0.23415   0.85452   0.00000  Uiso   1.00
O1120  O     0.92342   0.19690   0.61758   0.00000  Uiso   1.00
O1121  O     0.96964   0.25000   0.33683   0.00000  Uiso   1.00
O1122  O     0.95717   0.15255   0.57868   0.00000  Uiso   1.00
O1123  O     0.98415   0.17168   0.64547   0.00000  Uiso   1.00
O1124  O     0.56988   0.19014   0.37939   0.00000  Uiso   1.00
O1125  O     0.53411   0.14926   0.42084   0.00000  Uiso   1.00
O1126  O     0.50601   0.17001   0.35513   0.00000  Uiso   1.00
O1127  O     0.80986   0.43012   0.62061   0.00000  Uiso   1.00
O1128  O     0.85074   0.46589   0.57916   0.00000  Uiso   1.00
O1129  O     0.83000   0.49398   0.64487   0.00000  Uiso   1.00
O1130  O     0.80310   0.07658   0.38242   0.00000  Uiso   1.00
O1131  O     0.84745   0.04283   0.42132   0.00000  Uiso   1.00
O1132  O     0.53036   0.25000   0.66317   0.00000  Uiso   1.00
O1133  O     0.82832   0.01585   0.35452   0.00000  Uiso   1.00
O1134  O     0.57658   0.30310   0.61758   0.00000  Uiso   1.00
O1135  O     0.54284   0.34745   0.57868   0.00000  Uiso   1.00
O1136  O     0.51585   0.32832   0.64547   0.00000  Uiso   1.00
O1137  O     0.93012   0.30986   0.37939   0.00000  Uiso   1.00
O1138  O     0.96589   0.35074   0.42084   0.00000  Uiso   1.00
O1139  O     0.99399   0.33000   0.35514   0.00000  Uiso   1.00
O1140  O     0.69014   0.06988   0.62061   0.00000  Uiso   1.00
O1141  O     0.64926   0.03411   0.57916   0.00000  Uiso   1.00
O1142  O     0.67001   0.00602   0.64487   0.00000  Uiso   1.00
O1143  O     0.50000   0.21964   0.83683   0.00000  Uiso   1.00
O1144  O     0.69690   0.42342   0.38241   0.00000  Uiso   1.00
O1145  O     0.65255   0.45716   0.42132   0.00000  Uiso   1.00
O1146  O     0.67168   0.48415   0.35452   0.00000  Uiso   1.00
O1147  O     0.50000   0.28036   0.16317   0.00000  Uiso   1.00
O1148  O     0.78036   0.00000   0.83683   0.00000  Uiso   1.00
O1149  O     0.71964   0.00000   0.16317   0.00000  Uiso   1.00
O1150  O     0.50000   0.28036   0.83683   0.00000  Uiso   1.00
O1151  O     0.50000   0.21964   0.16317   0.00000  Uiso   1.00
O1152  O     0.71964   0.00000   0.83683   0.00000  Uiso   1.00
O1153  O     0.75000   0.00000   0.75000   0.00000  Uiso   1.00
O1154  O     0.78036   0.00000   0.16317   0.00000  Uiso   1.00
O1155  O     0.70726   0.07307   0.27282   0.00000  Uiso   1.00
O1156  O     0.79275   0.42693   0.72718   0.00000  Uiso   1.00
O1157  O     0.92693   0.20726   0.27282   0.00000  Uiso   1.00
O1158  O     0.57307   0.29274   0.72718   0.00000  Uiso   1.00
O1159  O     0.79275   0.42693   0.27282   0.00000  Uiso   1.00
O1160  O     0.70726   0.07307   0.72718   0.00000  Uiso   1.00
O1161  O     0.57307   0.29274   0.27282   0.00000  Uiso   1.00
O1162  O     0.92693   0.20726   0.72718   0.00000  Uiso   1.00
O1163  O     0.70726   0.42693   0.72718   0.00000  Uiso   1.00
O1164  O     0.50000   0.25000   0.25000   0.00000  Uiso   1.00
O1165  O     0.79275   0.07307   0.27282   0.00000  Uiso   1.00
O1166  O     0.92693   0.29275   0.72718   0.00000  Uiso   1.00
O1167  O     0.57307   0.20725   0.27282   0.00000  Uiso   1.00
O1168  O     0.79275   0.07307   0.72718   0.00000  Uiso   1.00
O1169  O     0.70726   0.42693   0.27282   0.00000  Uiso   1.00
O1170  O     0.57307   0.20725   0.72718   0.00000  Uiso   1.00
O1171  O     0.92693   0.29275   0.27282   0.00000  Uiso   1.00
O1172  O     0.95726   0.32307   0.77282   0.00000  Uiso   1.00
O1173  O     0.54275   0.17693   0.22718   0.00000  Uiso   1.00
O1174  O     0.67693   0.45725   0.77282   0.00000  Uiso   1.00
O1175  O     0.50000   0.25000   0.75000   0.00000  Uiso   1.00
O1176  O     0.82307   0.04275   0.22718   0.00000  Uiso   1.00
O1177  O     0.54275   0.17693   0.77282   0.00000  Uiso   1.00
O1178  O     0.95726   0.32307   0.22718   0.00000  Uiso   1.00
O1179  O     0.82307   0.04275   0.77282   0.00000  Uiso   1.00
O1180  O     0.67693   0.45725   0.22718   0.00000  Uiso   1.00
O1181  O     0.95726   0.17693   0.22718   0.00000  Uiso   1.00
O1182  O     0.54275   0.32307   0.77282   0.00000  Uiso   1.00
O1183  O     0.67693   0.04275   0.22718   0.00000  Uiso   1.00
O1184  O     0.82307   0.45725   0.77282   0.00000  Uiso   1.00
O1185  O     0.54275   0.32307   0.22718   0.00000  Uiso   1.00
O1186  O     0.75000   0.46964   0.33683   0.00000  Uiso   1.00
O1187  O     0.95726   0.17693   0.77282   0.00000  Uiso   1.00
O1188  O     0.82307   0.45725   0.22718   0.00000  Uiso   1.00
O1189  O     0.67693   0.04275   0.77282   0.00000  Uiso   1.00
O1190  O     0.63251   0.41901   0.18446   0.00000  Uiso   1.00
O1191  O     0.86125   0.08610   0.81839   0.00000  Uiso   1.00
O1192  O     0.55564   0.10823   0.22225   0.00000  Uiso   1.00
O1193  O     0.93990   0.38903   0.78908   0.00000  Uiso   1.00
O1194  O     0.86749   0.08099   0.18446   0.00000  Uiso   1.00
O1195  O     0.63875   0.41390   0.81839   0.00000  Uiso   1.00
O1196  O     0.94436   0.39177   0.22225   0.00000  Uiso   1.00
O1197  O     0.75000   0.03036   0.66317   0.00000  Uiso   1.00
O1198  O     0.56010   0.11097   0.78908   0.00000  Uiso   1.00
O1199  O     0.60823   0.05564   0.77775   0.00000  Uiso   1.00
O1200  O     0.88903   0.43990   0.21092   0.00000  Uiso   1.00
O1201  O     0.58099   0.36749   0.81554   0.00000  Uiso   1.00
O1202  O     0.91390   0.13875   0.18161   0.00000  Uiso   1.00
O1203  O     0.89177   0.44436   0.77775   0.00000  Uiso   1.00
O1204  O     0.61097   0.06010   0.21091   0.00000  Uiso   1.00
O1205  O     0.91901   0.13251   0.81554   0.00000  Uiso   1.00
O1206  O     0.58610   0.36125   0.18161   0.00000  Uiso   1.00
O1207  O     0.88251   0.16901   0.68446   0.00000  Uiso   1.00
O1208  O     0.53036   0.25000   0.33683   0.00000  Uiso   1.00
O1209  O     0.61125   0.33610   0.31839   0.00000  Uiso   1.00
O1210  O     0.80564   0.35823   0.72225   0.00000  Uiso   1.00
O1211  O     0.68990   0.13903   0.28908   0.00000  Uiso   1.00
O1212  O     0.61749   0.33099   0.68446   0.00000  Uiso   1.00
O1213  O     0.88875   0.16390   0.31839   0.00000  Uiso   1.00
O1214  O     0.69436   0.14177   0.72225   0.00000  Uiso   1.00
O1215  O     0.81010   0.36097   0.28909   0.00000  Uiso   1.00
O1216  O     0.85823   0.30564   0.27775   0.00000  Uiso   1.00
O1217  O     0.63903   0.18990   0.71091   0.00000  Uiso   1.00
O1218  O     0.83099   0.11749   0.31554   0.00000  Uiso   1.00
O1219  O     0.96964   0.25000   0.66317   0.00000  Uiso   1.00
O1220  O     0.66390   0.38875   0.68161   0.00000  Uiso   1.00
O1221  O     0.64177   0.19436   0.27774   0.00000  Uiso   1.00
O1222  O     0.86097   0.31010   0.71091   0.00000  Uiso   1.00
O1223  O     0.66901   0.38251   0.31554   0.00000  Uiso   1.00
O1224  O     0.83610   0.11125   0.68161   0.00000  Uiso   1.00
O1225  O     0.67342   0.44690   0.11758   0.00000  Uiso   1.00
O1226  O     0.70717   0.40255   0.07868   0.00000  Uiso   1.00
O1227  O     0.73415   0.42168   0.14547   0.00000  Uiso   1.00
O1228  O     0.81988   0.44014   0.87939   0.00000  Uiso   1.00
O1229  O     0.78411   0.39926   0.92084   0.00000  Uiso   1.00
O1230  O     0.75000   0.03036   0.33683   0.00000  Uiso   1.00
O1231  O     0.75601   0.42000   0.85513   0.00000  Uiso   1.00
O1232  O     0.55986   0.18012   0.12061   0.00000  Uiso   1.00
O1233  O     0.60074   0.21589   0.07916   0.00000  Uiso   1.00
O1234  O     0.58000   0.24399   0.14486   0.00000  Uiso   1.00
O1235  O     0.55310   0.32658   0.88242   0.00000  Uiso   1.00
O1236  O     0.59745   0.29284   0.92132   0.00000  Uiso   1.00
O1237  O     0.57832   0.26585   0.85452   0.00000  Uiso   1.00
O1238  O     0.82658   0.05310   0.11758   0.00000  Uiso   1.00
O1239  O     0.79283   0.09745   0.07868   0.00000  Uiso   1.00
O1240  O     0.76585   0.07832   0.14547   0.00000  Uiso   1.00
S1241  S     0.71074   0.43453   0.10571   0.00000  Uiso   1.00
S1242  S     0.53221   0.18114   0.39350   0.00000  Uiso   1.00
S1243  S     0.81886   0.46779   0.60650   0.00000  Uiso   1.00
S1244  S     0.81547   0.03926   0.39429   0.00000  Uiso   1.00
S1245  S     0.53926   0.31546   0.60571   0.00000  Uiso   1.00
S1246  S     0.96780   0.31886   0.39350   0.00000  Uiso   1.00
S1247  S     0.68114   0.03221   0.60650   0.00000  Uiso   1.00
S1248  S     0.68454   0.46073   0.39429   0.00000  Uiso   1.00
S1249  S     0.78221   0.43114   0.89350   0.00000  Uiso   1.00
S1250  S     0.56886   0.21780   0.10650   0.00000  Uiso   1.00
S1251  S     0.56546   0.28926   0.89429   0.00000  Uiso   1.00
S1252  S     0.78926   0.06547   0.10571   0.00000  Uiso   1.00
S1253  S     0.71779   0.06886   0.89350   0.00000  Uiso   1.00
S1254  S     0.93114   0.28220   0.10650   0.00000  Uiso   1.00
S1255  S     0.93454   0.21074   0.89429   0.00000  Uiso   1.00
S1256  S     0.96074   0.18454   0.60571   0.00000  Uiso   1.00
Zn1257 Zn    0.70660   0.00000   0.21760   0.00000  Uiso   1.00
Zn1258 Zn    0.54340   0.25000   0.28240   0.00000  Uiso   1.00
Zn1259 Zn    0.75000   0.45660   0.71760   0.00000  Uiso   1.00
Zn1260 Zn    0.75000   0.04340   0.28240   0.00000  Uiso   1.00
Zn1261 Zn    0.54340   0.25000   0.71760   0.00000  Uiso   1.00
Zn1262 Zn    0.95660   0.25000   0.28240   0.00000  Uiso   1.00
Zn1263 Zn    0.75000   0.04340   0.71760   0.00000  Uiso   1.00
Zn1264 Zn    0.75000   0.45660   0.28240   0.00000  Uiso   1.00
Zn1265 Zn    0.79340  -0.00000   0.78240   0.00000  Uiso   1.00
Zn1266 Zn    0.50000   0.20660   0.21760   0.00000  Uiso   1.00
Zn1267 Zn    0.50000   0.29340   0.78240   0.00000  Uiso   1.00
Zn1268 Zn    0.79340   0.00000   0.21760   0.00000  Uiso   1.00
Zn1269 Zn    0.70660  -0.00000   0.78240   0.00000  Uiso   1.00
Zn1270 Zn    0.50000   0.29340   0.21760   0.00000  Uiso   1.00
Zn1271 Zn    0.50000   0.20660   0.78240   0.00000  Uiso   1.00
Zn1272 Zn    0.95660   0.25000   0.71760   0.00000  Uiso   1.00
C1273  C     0.23318   0.97163   0.04130   0.00000  Uiso   1.00
C1274  C     0.01387   0.72011   0.45832   0.00000  Uiso   1.00
C1275  C     0.34799   0.90201   0.75000   0.00000  Uiso   1.00
C1276  C     0.40205   0.65205   0.25000   0.00000  Uiso   1.00
C1277  C     0.09829   0.84829   0.75000   0.00000  Uiso   1.00
C1278  C     0.34827   0.90173   0.25000   0.00000  Uiso   1.00
C1279  C     0.15201   0.59799   0.75000   0.00000  Uiso   1.00
C1280  C     0.09827   0.65173   0.75000   0.00000  Uiso   1.00
C1281  C     0.40201   0.84799   0.25000   0.00000  Uiso   1.00
C1282  C     0.15205   0.90205   0.75000   0.00000  Uiso   1.00
C1283  C     0.34829   0.59829   0.25000   0.00000  Uiso   1.00
C1284  C     0.40173   0.84827   0.75000   0.00000  Uiso   1.00
C1285  C     0.27989   0.98613   0.54167   0.00000  Uiso   1.00
C1286  C     0.09799   0.65201   0.25000   0.00000  Uiso   1.00
C1287  C     0.34795   0.59795   0.75000   0.00000  Uiso   1.00
C1288  C     0.15171   0.90171   0.25000   0.00000  Uiso   1.00
C1289  C     0.25000   0.50000   0.10245   0.00000  Uiso   1.00
C1290  C     0.25000   0.50000   0.89731   0.00000  Uiso   1.00
C1291  C     0.00000   0.75000   0.10269   0.00000  Uiso   1.00
C1292  C     0.00000   0.75000   0.89755   0.00000  Uiso   1.00
C1293  C     0.00000   0.75000   0.60245   0.00000  Uiso   1.00
C1294  C     0.00000   0.75000   0.39731   0.00000  Uiso   1.00
C1295  C     0.25000   0.50000   0.60269   0.00000  Uiso   1.00
C1296  C     0.27837   0.51682   0.45870   0.00000  Uiso   1.00
C1297  C     0.25000   0.50000   0.39755   0.00000  Uiso   1.00
C1298  C     0.10908   0.94955   0.18699   0.00000  Uiso   1.00
C1299  C     0.07433   0.94339   0.16328   0.00000  Uiso   1.00
C1300  C     0.05228   0.97836   0.15954   0.00000  Uiso   1.00
C1301  C     0.33111   0.60172   0.83781   0.00000  Uiso   1.00
C1302  C     0.34316   0.63334   0.86394   0.00000  Uiso   1.00
C1303  C     0.31183   0.64668   0.88933   0.00000  Uiso   1.00
C1304  C     0.03658   0.59166   0.25325   0.00000  Uiso   1.00
C1305  C     0.49820   0.58215   0.23955   0.00000  Uiso   1.00
C1306  C     0.47582   0.56481   0.27205   0.00000  Uiso   1.00
C1307  C     0.01682   0.77837   0.54130   0.00000  Uiso   1.00
C1308  C     0.43573   0.87860   0.82862   0.00000  Uiso   1.00
C1309  C     0.42028   0.90978   0.85325   0.00000  Uiso   1.00
C1310  C     0.42379   0.90180   0.89667   0.00000  Uiso   1.00
C1311  C     0.39092   0.55045   0.18699   0.00000  Uiso   1.00
C1312  C     0.42567   0.55661   0.16327   0.00000  Uiso   1.00
C1313  C     0.44772   0.52165   0.15953   0.00000  Uiso   1.00
C1314  C     0.16889   0.89828   0.83781   0.00000  Uiso   1.00
C1315  C     0.15684   0.86666   0.86394   0.00000  Uiso   1.00
C1316  C     0.18817   0.85332   0.88933   0.00000  Uiso   1.00
C1317  C     0.46342   0.90833   0.25326   0.00000  Uiso   1.00
C1318  C     0.48613   0.77989   0.45832   0.00000  Uiso   1.00
C1319  C     0.00179   0.91788   0.23954   0.00000  Uiso   1.00
C1320  C     0.02417   0.93521   0.27205   0.00000  Uiso   1.00
C1321  C     0.06427   0.62140   0.82862   0.00000  Uiso   1.00
C1322  C     0.07972   0.59022   0.85325   0.00000  Uiso   1.00
C1323  C     0.07621   0.59820   0.89667   0.00000  Uiso   1.00
C1324  C     0.09166   0.53658   0.74675   0.00000  Uiso   1.00
C1325  C     0.08215   0.99820   0.76045   0.00000  Uiso   1.00
C1326  C     0.06481   0.97582   0.72794   0.00000  Uiso   1.00
C1327  C     0.37860   0.93573   0.17138   0.00000  Uiso   1.00
C1328  C     0.40978   0.92028   0.14675   0.00000  Uiso   1.00
C1329  C     0.22011   0.51387   0.54167   0.00000  Uiso   1.00
C1330  C     0.40180   0.92379   0.10333   0.00000  Uiso   1.00
C1331  C     0.05045   0.89092   0.81301   0.00000  Uiso   1.00
C1332  C     0.05661   0.92567   0.83673   0.00000  Uiso   1.00
C1333  C     0.02165   0.94772   0.84046   0.00000  Uiso   1.00
C1334  C     0.39828   0.66889   0.16219   0.00000  Uiso   1.00
C1335  C     0.36666   0.65685   0.13606   0.00000  Uiso   1.00
C1336  C     0.35332   0.68817   0.11067   0.00000  Uiso   1.00
C1337  C     0.40834   0.96342   0.74675   0.00000  Uiso   1.00
C1338  C     0.41785   0.50180   0.76045   0.00000  Uiso   1.00
C1339  C     0.43519   0.52418   0.72794   0.00000  Uiso   1.00
C1340  C     0.22163   0.98318   0.45870   0.00000  Uiso   1.00
C1341  C     0.12140   0.56427   0.17138   0.00000  Uiso   1.00
C1342  C     0.09022   0.57973   0.14675   0.00000  Uiso   1.00
C1343  C     0.09821   0.57622   0.10332   0.00000  Uiso   1.00
C1344  C     0.44955   0.60908   0.81301   0.00000  Uiso   1.00
C1345  C     0.44339   0.57433   0.83673   0.00000  Uiso   1.00
C1346  C     0.47835   0.55228   0.84046   0.00000  Uiso   1.00
C1347  C     0.10172   0.83111   0.16219   0.00000  Uiso   1.00
C1348  C     0.13333   0.84316   0.13606   0.00000  Uiso   1.00
C1349  C     0.14667   0.81183   0.11067   0.00000  Uiso   1.00
C1350  C     0.35908   0.69955   0.68699   0.00000  Uiso   1.00
C1351  C     0.23292   0.97124   0.08190   0.00000  Uiso   1.00
C1352  C     0.32433   0.69339   0.66327   0.00000  Uiso   1.00
C1353  C     0.30228   0.72835   0.65953   0.00000  Uiso   1.00
C1354  C     0.08111   0.85171   0.33781   0.00000  Uiso   1.00
C1355  C     0.09315   0.88334   0.36393   0.00000  Uiso   1.00
C1356  C     0.06182   0.89667   0.38932   0.00000  Uiso   1.00
C1357  C     0.28658   0.84166   0.75325   0.00000  Uiso   1.00
C1358  C     0.24820   0.83215   0.73955   0.00000  Uiso   1.00
C1359  C     0.22582   0.81481   0.77206   0.00000  Uiso   1.00
C1360  C     0.18573   0.62860   0.32862   0.00000  Uiso   1.00
C1361  C     0.17028   0.65978   0.35325   0.00000  Uiso   1.00
C1362  C     0.26412   0.96975   0.91773   0.00000  Uiso   1.00
C1363  C     0.17379   0.65180   0.39667   0.00000  Uiso   1.00
C1364  C     0.14092   0.80045   0.68699   0.00000  Uiso   1.00
C1365  C     0.17567   0.80661   0.66327   0.00000  Uiso   1.00
C1366  C     0.19772   0.77165   0.65954   0.00000  Uiso   1.00
C1367  C     0.41889   0.64828   0.33781   0.00000  Uiso   1.00
C1368  C     0.40685   0.61666   0.36394   0.00000  Uiso   1.00
C1369  C     0.43817   0.60332   0.38933   0.00000  Uiso   1.00
C1370  C     0.21342   0.65834   0.75325   0.00000  Uiso   1.00
C1371  C     0.25180   0.66785   0.73955   0.00000  Uiso   1.00
C1372  C     0.27418   0.68519   0.77206   0.00000  Uiso   1.00
C1373  C     0.03025   0.73588   0.08227   0.00000  Uiso   1.00
C1374  C     0.31427   0.87140   0.32862   0.00000  Uiso   1.00
C1375  C     0.32972   0.84022   0.35325   0.00000  Uiso   1.00
C1376  C     0.32622   0.84821   0.39667   0.00000  Uiso   1.00
C1377  C     0.34166   0.78658   0.24675   0.00000  Uiso   1.00
C1378  C     0.33215   0.74820   0.26046   0.00000  Uiso   1.00
C1379  C     0.31481   0.72582   0.22795   0.00000  Uiso   1.00
C1380  C     0.12860   0.68573   0.67138   0.00000  Uiso   1.00
C1381  C     0.15978   0.67028   0.64675   0.00000  Uiso   1.00
C1382  C     0.15180   0.67379   0.60333   0.00000  Uiso   1.00
C1383  C     0.30045   0.64092   0.31301   0.00000  Uiso   1.00
C1384  C     0.26387   0.97011   0.95832   0.00000  Uiso   1.00
C1385  C     0.02876   0.76708   0.91810   0.00000  Uiso   1.00
C1386  C     0.30661   0.67567   0.33673   0.00000  Uiso   1.00
C1387  C     0.27165   0.69772   0.34047   0.00000  Uiso   1.00
C1388  C     0.14828   0.91889   0.66219   0.00000  Uiso   1.00
C1389  C     0.11666   0.90684   0.63606   0.00000  Uiso   1.00
C1390  C     0.10332   0.93817   0.61067   0.00000  Uiso   1.00
C1391  C     0.15834   0.71342   0.24675   0.00000  Uiso   1.00
C1392  C     0.16785   0.75180   0.26045   0.00000  Uiso   1.00
C1393  C     0.18519   0.77418   0.22794   0.00000  Uiso   1.00
C1394  C     0.37140   0.81427   0.67138   0.00000  Uiso   1.00
C1395  C     0.34022   0.82972   0.64675   0.00000  Uiso   1.00
C1396  C     0.26708   0.52876   0.08190   0.00000  Uiso   1.00
C1397  C     0.34820   0.82621   0.60333   0.00000  Uiso   1.00
C1398  C     0.19955   0.85908   0.31300   0.00000  Uiso   1.00
C1399  C     0.19339   0.82433   0.33673   0.00000  Uiso   1.00
C1400  C     0.22836   0.80228   0.34046   0.00000  Uiso   1.00
C1401  C     0.35172   0.58111   0.66219   0.00000  Uiso   1.00
C1402  C     0.38334   0.59316   0.63606   0.00000  Uiso   1.00
C1403  C     0.39668   0.56183   0.61067   0.00000  Uiso   1.00
C1404  C     0.23588   0.53025   0.91773   0.00000  Uiso   1.00
C1405  C     0.46975   0.76412   0.08227   0.00000  Uiso   1.00
C1406  C     0.47124   0.73292   0.91810   0.00000  Uiso   1.00
C1407  C     0.48292   0.72124   0.58190   0.00000  Uiso   1.00
C1408  C     0.01412   0.71975   0.41773   0.00000  Uiso   1.00
C1409  C     0.28025   0.98588   0.58227   0.00000  Uiso   1.00
C1410  C     0.27876   0.51708   0.41810   0.00000  Uiso   1.00
C1411  C     0.01708   0.77875   0.58190   0.00000  Uiso   1.00
C1412  C     0.02989   0.73613   0.04167   0.00000  Uiso   1.00
C1413  C     0.48588   0.78025   0.41773   0.00000  Uiso   1.00
C1414  C     0.21975   0.51412   0.58227   0.00000  Uiso   1.00
C1415  C     0.22124   0.98292   0.41810   0.00000  Uiso   1.00
C1416  C     0.25000   0.50000   0.02109   0.00000  Uiso   1.00
C1417  C     0.25000   0.50000   0.97854   0.00000  Uiso   1.00
C1418  C     0.00000   0.75000   0.02145   0.00000  Uiso   1.00
C1419  C     0.00000   0.75000   0.97891   0.00000  Uiso   1.00
C1420  C     0.00000   0.75000   0.52109   0.00000  Uiso   1.00
C1421  C     0.00000   0.75000   0.47854   0.00000  Uiso   1.00
C1422  C     0.25000   0.50000   0.52145   0.00000  Uiso   1.00
C1423  C     0.02837   0.76682   0.95870   0.00000  Uiso   1.00
C1424  C     0.25000   0.50000   0.47891   0.00000  Uiso   1.00
C1425  C     0.25000   0.50000   0.35512   0.00000  Uiso   1.00
C1426  C     0.25000   0.50000   0.64497   0.00000  Uiso   1.00
C1427  C     0.00000   0.75000   0.35503   0.00000  Uiso   1.00
C1428  C     0.00000   0.75000   0.64488   0.00000  Uiso   1.00
C1429  C     0.00000   0.75000   0.85512   0.00000  Uiso   1.00
C1430  C     0.00000   0.75000   0.14497   0.00000  Uiso   1.00
C1431  C     0.25000   0.50000   0.85503   0.00000  Uiso   1.00
C1432  C     0.25000   0.50000   0.14488   0.00000  Uiso   1.00
C1433  C     0.17988   0.57012   0.25000   0.00000  Uiso   1.00
C1434  C     0.26682   0.52837   0.04130   0.00000  Uiso   1.00
C1435  C     0.32001   0.92999   0.75000   0.00000  Uiso   1.00
C1436  C     0.43002   0.68002   0.25000   0.00000  Uiso   1.00
C1437  C     0.07012   0.82011   0.75000   0.00000  Uiso   1.00
C1438  C     0.32012   0.92988   0.25000   0.00000  Uiso   1.00
C1439  C     0.17999   0.57001   0.75000   0.00000  Uiso   1.00
C1440  C     0.06999   0.81998   0.25000   0.00000  Uiso   1.00
C1441  C     0.42989   0.67989   0.75000   0.00000  Uiso   1.00
C1442  C     0.18002   0.93001   0.75000   0.00000  Uiso   1.00
C1443  C     0.32012   0.57012   0.25000   0.00000  Uiso   1.00
C1444  C     0.42988   0.82012   0.75000   0.00000  Uiso   1.00
C1445  C     0.23613   0.52989   0.95832   0.00000  Uiso   1.00
C1446  C     0.07001   0.67999   0.25000   0.00000  Uiso   1.00
C1447  C     0.31999   0.56999   0.75000   0.00000  Uiso   1.00
C1448  C     0.17989   0.92988   0.25000   0.00000  Uiso   1.00
C1449  C     0.07012   0.67988   0.75000   0.00000  Uiso   1.00
C1450  C     0.42999   0.82001   0.25000   0.00000  Uiso   1.00
C1451  C     0.12873   0.89744   0.21728   0.00000  Uiso   1.00
C1452  C     0.36817   0.60467   0.78406   0.00000  Uiso   1.00
C1453  C     0.09018   0.61723   0.23511   0.00000  Uiso   1.00
C1454  C     0.40796   0.88187   0.76904   0.00000  Uiso   1.00
C1455  C     0.37127   0.60257   0.21728   0.00000  Uiso   1.00
C1456  C     0.47011   0.76387   0.04167   0.00000  Uiso   1.00
C1457  C     0.13183   0.89533   0.78406   0.00000  Uiso   1.00
C1458  C     0.40982   0.88277   0.23511   0.00000  Uiso   1.00
C1459  C     0.09204   0.61813   0.76904   0.00000  Uiso   1.00
C1460  C     0.11723   0.59018   0.76489   0.00000  Uiso   1.00
C1461  C     0.38187   0.90796   0.23095   0.00000  Uiso   1.00
C1462  C     0.10257   0.87127   0.78272   0.00000  Uiso   1.00
C1463  C     0.39533   0.63183   0.21594   0.00000  Uiso   1.00
C1464  C     0.38277   0.90982   0.76489   0.00000  Uiso   1.00
C1465  C     0.11813   0.59204   0.23095   0.00000  Uiso   1.00
C1466  C     0.39743   0.62873   0.78272   0.00000  Uiso   1.00
C1467  C     0.47163   0.73318   0.95870   0.00000  Uiso   1.00
C1468  C     0.10467   0.86817   0.21594   0.00000  Uiso   1.00
C1469  C     0.37873   0.64743   0.71728   0.00000  Uiso   1.00
C1470  C     0.11817   0.85467   0.28406   0.00000  Uiso   1.00
C1471  C     0.34018   0.86723   0.73511   0.00000  Uiso   1.00
C1472  C     0.15796   0.63187   0.26904   0.00000  Uiso   1.00
C1473  C     0.12127   0.85257   0.71728   0.00000  Uiso   1.00
C1474  C     0.38183   0.64533   0.28406   0.00000  Uiso   1.00
C1475  C     0.15982   0.63277   0.73511   0.00000  Uiso   1.00
C1476  C     0.34204   0.86813   0.26904   0.00000  Uiso   1.00
C1477  C     0.36723   0.84018   0.26489   0.00000  Uiso   1.00
C1478  C     0.48318   0.72163   0.54130   0.00000  Uiso   1.00
C1479  C     0.13187   0.65796   0.73095   0.00000  Uiso   1.00
C1480  C     0.35257   0.62127   0.28272   0.00000  Uiso   1.00
C1481  C     0.14533   0.88183   0.71594   0.00000  Uiso   1.00
C1482  C     0.13277   0.65982   0.26489   0.00000  Uiso   1.00
C1483  C     0.36813   0.84204   0.73095   0.00000  Uiso   1.00
C1484  C     0.14744   0.87873   0.28272   0.00000  Uiso   1.00
C1485  C     0.35467   0.61817   0.71594   0.00000  Uiso   1.00
C1486  C     0.09795   0.84795   0.25000   0.00000  Uiso   1.00
C1487  C     0.40171   0.65171   0.75000   0.00000  Uiso   1.00
C1488  C     0.15173   0.59827   0.25000   0.00000  Uiso   1.00
H1489  H     0.21990   0.95001   0.02520   0.00000  Uiso   1.00
H1490  H     0.02484   0.69727   0.47440   0.00000  Uiso   1.00
H1491  H     0.37551   0.69787   0.09128   0.00000  Uiso   1.00
H1492  H     0.38942   0.96546   0.72146   0.00000  Uiso   1.00
H1493  H     0.43387   0.94958   0.73743   0.00000  Uiso   1.00
H1494  H     0.39272   0.51570   0.77049   0.00000  Uiso   1.00
H1495  H     0.43711   0.50005   0.78532   0.00000  Uiso   1.00
H1496  H     0.46134   0.51173   0.71876   0.00000  Uiso   1.00
H1497  H     0.44060   0.55221   0.73849   0.00000  Uiso   1.00
H1498  H     0.41662   0.52577   0.70252   0.00000  Uiso   1.00
H1499  H     0.12839   0.53684   0.16016   0.00000  Uiso   1.00
H1500  H     0.14639   0.58126   0.16758   0.00000  Uiso   1.00
H1501  H     0.30273   0.97516   0.52560   0.00000  Uiso   1.00
H1502  H     0.06452   0.56507   0.15356   0.00000  Uiso   1.00
H1503  H     0.08650   0.60901   0.15361   0.00000  Uiso   1.00
H1504  H     0.12369   0.59096   0.09586   0.00000  Uiso   1.00
H1505  H     0.07546   0.58818   0.08637   0.00000  Uiso   1.00
H1506  H     0.10101   0.54712   0.09510   0.00000  Uiso   1.00
H1507  H     0.47306   0.62389   0.82570   0.00000  Uiso   1.00
H1508  H     0.45750   0.60209   0.78253   0.00000  Uiso   1.00
H1509  H     0.43340   0.58151   0.86629   0.00000  Uiso   1.00
H1510  H     0.42263   0.55717   0.82221   0.00000  Uiso   1.00
H1511  H     0.48960   0.54584   0.81124   0.00000  Uiso   1.00
H1512  H     0.29999   0.53010   0.47480   0.00000  Uiso   1.00
H1513  H     0.47256   0.52637   0.85592   0.00000  Uiso   1.00
H1514  H     0.49883   0.56781   0.85746   0.00000  Uiso   1.00
H1515  H     0.08015   0.81900   0.14355   0.00000  Uiso   1.00
H1516  H     0.11075   0.80916   0.18239   0.00000  Uiso   1.00
H1517  H     0.12433   0.86590   0.11704   0.00000  Uiso   1.00
H1518  H     0.15631   0.85289   0.15435   0.00000  Uiso   1.00
H1519  H     0.15610   0.78889   0.12911   0.00000  Uiso   1.00
H1520  H     0.16974   0.82127   0.09237   0.00000  Uiso   1.00
H1521  H     0.12448   0.80214   0.09128   0.00000  Uiso   1.00
H1522  H     0.37389   0.72306   0.67430   0.00000  Uiso   1.00
H1523  H     0.03010   0.79999   0.52520   0.00000  Uiso   1.00
H1524  H     0.35209   0.70750   0.71747   0.00000  Uiso   1.00
H1525  H     0.33151   0.68340   0.63371   0.00000  Uiso   1.00
H1526  H     0.30717   0.67263   0.67780   0.00000  Uiso   1.00
H1527  H     0.29584   0.73961   0.68876   0.00000  Uiso   1.00
H1528  H     0.27637   0.72256   0.64408   0.00000  Uiso   1.00
H1529  H     0.31781   0.74883   0.64254   0.00000  Uiso   1.00
H1530  H     0.06900   0.83015   0.35645   0.00000  Uiso   1.00
H1531  H     0.05916   0.86074   0.31760   0.00000  Uiso   1.00
H1532  H     0.11589   0.87434   0.38295   0.00000  Uiso   1.00
H1533  H     0.10288   0.90632   0.34564   0.00000  Uiso   1.00
H1534  H     0.47516   0.80273   0.47440   0.00000  Uiso   1.00
H1535  H     0.03888   0.90610   0.37087   0.00000  Uiso   1.00
H1536  H     0.07126   0.91975   0.40761   0.00000  Uiso   1.00
H1537  H     0.05213   0.87449   0.40872   0.00000  Uiso   1.00
H1538  H     0.28454   0.86058   0.77854   0.00000  Uiso   1.00
H1539  H     0.30042   0.81613   0.76258   0.00000  Uiso   1.00
H1540  H     0.23430   0.85728   0.72951   0.00000  Uiso   1.00
H1541  H     0.24995   0.81289   0.71468   0.00000  Uiso   1.00
H1542  H     0.23827   0.78866   0.78124   0.00000  Uiso   1.00
H1543  H     0.19780   0.80939   0.76151   0.00000  Uiso   1.00
H1544  H     0.22423   0.83338   0.79748   0.00000  Uiso   1.00
H1545  H     0.19727   0.52484   0.52560   0.00000  Uiso   1.00
H1546  H     0.21316   0.62161   0.33984   0.00000  Uiso   1.00
H1547  H     0.16874   0.60361   0.33242   0.00000  Uiso   1.00
H1548  H     0.18494   0.68548   0.34643   0.00000  Uiso   1.00
H1549  H     0.14100   0.66351   0.34639   0.00000  Uiso   1.00
H1550  H     0.15904   0.62632   0.40414   0.00000  Uiso   1.00
H1551  H     0.16182   0.67455   0.41363   0.00000  Uiso   1.00
H1552  H     0.20288   0.64899   0.40490   0.00000  Uiso   1.00
H1553  H     0.12611   0.77694   0.67430   0.00000  Uiso   1.00
H1554  H     0.14791   0.79250   0.71747   0.00000  Uiso   1.00
H1555  H     0.16849   0.81659   0.63371   0.00000  Uiso   1.00
H1556  H     0.20001   0.96990   0.47479   0.00000  Uiso   1.00
H1557  H     0.19283   0.82737   0.67779   0.00000  Uiso   1.00
H1558  H     0.20416   0.76040   0.68876   0.00000  Uiso   1.00
H1559  H     0.22363   0.77744   0.64408   0.00000  Uiso   1.00
H1560  H     0.18219   0.75117   0.64254   0.00000  Uiso   1.00
H1561  H     0.43101   0.66984   0.35644   0.00000  Uiso   1.00
H1562  H     0.44084   0.63925   0.31760   0.00000  Uiso   1.00
H1563  H     0.38411   0.62566   0.38296   0.00000  Uiso   1.00
H1564  H     0.39712   0.59368   0.34565   0.00000  Uiso   1.00
H1565  H     0.46111   0.59389   0.37088   0.00000  Uiso   1.00
H1566  H     0.42874   0.58025   0.40762   0.00000  Uiso   1.00
H1567  H     0.12389   0.97306   0.17430   0.00000  Uiso   1.00
H1568  H     0.44787   0.62551   0.40872   0.00000  Uiso   1.00
H1569  H     0.21546   0.63942   0.77854   0.00000  Uiso   1.00
H1570  H     0.19958   0.68387   0.76258   0.00000  Uiso   1.00
H1571  H     0.26570   0.64273   0.72950   0.00000  Uiso   1.00
H1572  H     0.25005   0.68711   0.71468   0.00000  Uiso   1.00
H1573  H     0.26172   0.71134   0.78125   0.00000  Uiso   1.00
H1574  H     0.30220   0.69062   0.76150   0.00000  Uiso   1.00
H1575  H     0.27578   0.66662   0.79747   0.00000  Uiso   1.00
H1576  H     0.28684   0.87839   0.33984   0.00000  Uiso   1.00
H1577  H     0.33126   0.89639   0.33242   0.00000  Uiso   1.00
H1578  H     0.10209   0.95750   0.21747   0.00000  Uiso   1.00
H1579  H     0.31507   0.81452   0.34644   0.00000  Uiso   1.00
H1580  H     0.35901   0.83650   0.34639   0.00000  Uiso   1.00
H1581  H     0.34096   0.87369   0.40414   0.00000  Uiso   1.00
H1582  H     0.33818   0.82546   0.41363   0.00000  Uiso   1.00
H1583  H     0.29712   0.85101   0.40490   0.00000  Uiso   1.00
H1584  H     0.36059   0.78454   0.22147   0.00000  Uiso   1.00
H1585  H     0.31613   0.80042   0.23742   0.00000  Uiso   1.00
H1586  H     0.35728   0.73431   0.27050   0.00000  Uiso   1.00
H1587  H     0.31289   0.74995   0.28532   0.00000  Uiso   1.00
H1588  H     0.28867   0.73827   0.21876   0.00000  Uiso   1.00
H1589  H     0.08151   0.93341   0.13372   0.00000  Uiso   1.00
H1590  H     0.30940   0.69779   0.23850   0.00000  Uiso   1.00
H1591  H     0.33339   0.72423   0.20253   0.00000  Uiso   1.00
H1592  H     0.12161   0.71316   0.66016   0.00000  Uiso   1.00
H1593  H     0.10361   0.66874   0.66758   0.00000  Uiso   1.00
H1594  H     0.18548   0.68493   0.65357   0.00000  Uiso   1.00
H1595  H     0.16351   0.64100   0.65361   0.00000  Uiso   1.00
H1596  H     0.12631   0.65904   0.59586   0.00000  Uiso   1.00
H1597  H     0.17454   0.66182   0.58637   0.00000  Uiso   1.00
H1598  H     0.14899   0.70288   0.59510   0.00000  Uiso   1.00
H1599  H     0.27694   0.62611   0.32570   0.00000  Uiso   1.00
H1600  H     0.27484   0.94727   0.97440   0.00000  Uiso   1.00
H1601  H     0.05716   0.92263   0.17780   0.00000  Uiso   1.00
H1602  H     0.29250   0.64791   0.28253   0.00000  Uiso   1.00
H1603  H     0.31660   0.66849   0.36629   0.00000  Uiso   1.00
H1604  H     0.32737   0.69283   0.32221   0.00000  Uiso   1.00
H1605  H     0.26040   0.70416   0.31124   0.00000  Uiso   1.00
H1606  H     0.27744   0.72363   0.35592   0.00000  Uiso   1.00
H1607  H     0.25117   0.68219   0.35746   0.00000  Uiso   1.00
H1608  H     0.16984   0.93100   0.64355   0.00000  Uiso   1.00
H1609  H     0.13925   0.94084   0.68240   0.00000  Uiso   1.00
H1610  H     0.12566   0.88411   0.61704   0.00000  Uiso   1.00
H1611  H     0.09368   0.89712   0.65435   0.00000  Uiso   1.00
H1612  H     0.04584   0.98961   0.18876   0.00000  Uiso   1.00
H1613  H     0.09389   0.96111   0.62912   0.00000  Uiso   1.00
H1614  H     0.08025   0.92874   0.59237   0.00000  Uiso   1.00
H1615  H     0.12551   0.94787   0.59128   0.00000  Uiso   1.00
H1616  H     0.13941   0.71546   0.22146   0.00000  Uiso   1.00
H1617  H     0.18387   0.69958   0.23742   0.00000  Uiso   1.00
H1618  H     0.14273   0.76570   0.27049   0.00000  Uiso   1.00
H1619  H     0.18711   0.75005   0.28531   0.00000  Uiso   1.00
H1620  H     0.21133   0.76173   0.21875   0.00000  Uiso   1.00
H1621  H     0.19061   0.80220   0.23849   0.00000  Uiso   1.00
H1622  H     0.16661   0.77577   0.20252   0.00000  Uiso   1.00
H1623  H     0.02637   0.97256   0.14409   0.00000  Uiso   1.00
H1624  H     0.37839   0.78684   0.66016   0.00000  Uiso   1.00
H1625  H     0.39639   0.83126   0.66758   0.00000  Uiso   1.00
H1626  H     0.31452   0.81506   0.65357   0.00000  Uiso   1.00
H1627  H     0.33649   0.85900   0.65361   0.00000  Uiso   1.00
H1628  H     0.37369   0.84096   0.59586   0.00000  Uiso   1.00
H1629  H     0.32546   0.83818   0.58637   0.00000  Uiso   1.00
H1630  H     0.35101   0.79712   0.59510   0.00000  Uiso   1.00
H1631  H     0.22306   0.87389   0.32570   0.00000  Uiso   1.00
H1632  H     0.20750   0.85209   0.28253   0.00000  Uiso   1.00
H1633  H     0.18341   0.83151   0.36628   0.00000  Uiso   1.00
H1634  H     0.06782   0.99883   0.14254   0.00000  Uiso   1.00
H1635  H     0.17263   0.80716   0.32220   0.00000  Uiso   1.00
H1636  H     0.23961   0.79584   0.31124   0.00000  Uiso   1.00
H1637  H     0.22256   0.77637   0.35592   0.00000  Uiso   1.00
H1638  H     0.24883   0.81781   0.35746   0.00000  Uiso   1.00
H1639  H     0.33016   0.56899   0.64355   0.00000  Uiso   1.00
H1640  H     0.36075   0.55916   0.68240   0.00000  Uiso   1.00
H1641  H     0.37434   0.61589   0.61704   0.00000  Uiso   1.00
H1642  H     0.40632   0.60288   0.65435   0.00000  Uiso   1.00
H1643  H     0.40611   0.53889   0.62912   0.00000  Uiso   1.00
H1644  H     0.41975   0.57127   0.59237   0.00000  Uiso   1.00
H1645  H     0.31900   0.58016   0.85645   0.00000  Uiso   1.00
H1646  H     0.37449   0.55213   0.59128   0.00000  Uiso   1.00
H1647  H     0.21698   0.90644   0.16064   0.00000  Uiso   1.00
H1648  H     0.26883   0.89958   0.84230   0.00000  Uiso   1.00
H1649  H     0.10042   0.73117   0.15770   0.00000  Uiso   1.00
H1650  H     0.09356   0.78302   0.83936   0.00000  Uiso   1.00
H1651  H     0.28302   0.59356   0.16064   0.00000  Uiso   1.00
H1652  H     0.23117   0.60042   0.84230   0.00000  Uiso   1.00
H1653  H     0.39958   0.76883   0.15770   0.00000  Uiso   1.00
H1654  H     0.40645   0.71698   0.83936   0.00000  Uiso   1.00
H1655  H     0.46698   0.65645   0.66064   0.00000  Uiso   1.00
H1656  H     0.30916   0.61075   0.81760   0.00000  Uiso   1.00
H1657  H     0.01883   0.64958   0.34230   0.00000  Uiso   1.00
H1658  H     0.35042   0.98117   0.65770   0.00000  Uiso   1.00
H1659  H     0.34356   0.53302   0.33936   0.00000  Uiso   1.00
H1660  H     0.03302   0.84355   0.66064   0.00000  Uiso   1.00
H1661  H     0.48117   0.85042   0.34231   0.00000  Uiso   1.00
H1662  H     0.14958   0.51883   0.65770   0.00000  Uiso   1.00
H1663  H     0.15644   0.96698   0.33936   0.00000  Uiso   1.00
H1664  H     0.36589   0.62434   0.88296   0.00000  Uiso   1.00
H1665  H     0.35288   0.65632   0.84565   0.00000  Uiso   1.00
H1666  H     0.28889   0.65611   0.87088   0.00000  Uiso   1.00
H1667  H     0.32126   0.66975   0.90762   0.00000  Uiso   1.00
H1668  H     0.05273   0.72516   0.02560   0.00000  Uiso   1.00
H1669  H     0.30213   0.62449   0.90872   0.00000  Uiso   1.00
H1670  H     0.03454   0.61058   0.27854   0.00000  Uiso   1.00
H1671  H     0.05042   0.56613   0.26258   0.00000  Uiso   1.00
H1672  H     0.48431   0.60728   0.22951   0.00000  Uiso   1.00
H1673  H     0.49995   0.56289   0.21468   0.00000  Uiso   1.00
H1674  H     0.48827   0.53866   0.28124   0.00000  Uiso   1.00
H1675  H     0.44780   0.55939   0.26150   0.00000  Uiso   1.00
H1676  H     0.47423   0.58338   0.29748   0.00000  Uiso   1.00
H1677  H     0.46316   0.87161   0.83984   0.00000  Uiso   1.00
H1678  H     0.41874   0.85361   0.83242   0.00000  Uiso   1.00
H1679  H     0.04999   0.78010   0.97480   0.00000  Uiso   1.00
H1680  H     0.43493   0.93548   0.84643   0.00000  Uiso   1.00
H1681  H     0.39100   0.91351   0.84639   0.00000  Uiso   1.00
H1682  H     0.40904   0.87631   0.90414   0.00000  Uiso   1.00
H1683  H     0.41182   0.92454   0.91363   0.00000  Uiso   1.00
H1684  H     0.45288   0.89899   0.90490   0.00000  Uiso   1.00
H1685  H     0.37611   0.52694   0.17430   0.00000  Uiso   1.00
H1686  H     0.39791   0.54250   0.21747   0.00000  Uiso   1.00
H1687  H     0.41849   0.56660   0.13371   0.00000  Uiso   1.00
H1688  H     0.44283   0.57737   0.17779   0.00000  Uiso   1.00
H1689  H     0.45416   0.51040   0.18876   0.00000  Uiso   1.00
H1690  H     0.28010   0.54999   0.02520   0.00000  Uiso   1.00
H1691  H     0.47363   0.52744   0.14408   0.00000  Uiso   1.00
H1692  H     0.43219   0.50117   0.14254   0.00000  Uiso   1.00
H1693  H     0.18101   0.91984   0.85644   0.00000  Uiso   1.00
H1694  H     0.19084   0.88925   0.81760   0.00000  Uiso   1.00
H1695  H     0.13411   0.87566   0.88296   0.00000  Uiso   1.00
H1696  H     0.14712   0.84368   0.84565   0.00000  Uiso   1.00
H1697  H     0.21111   0.84389   0.87088   0.00000  Uiso   1.00
H1698  H     0.17874   0.83025   0.90762   0.00000  Uiso   1.00
H1699  H     0.19787   0.87551   0.90872   0.00000  Uiso   1.00
H1700  H     0.46549   0.88938   0.27852   0.00000  Uiso   1.00
H1701  H     0.22516   0.55273   0.97440   0.00000  Uiso   1.00
H1702  H     0.44957   0.93384   0.26262   0.00000  Uiso   1.00
H1703  H     0.01570   0.89277   0.22946   0.00000  Uiso   1.00
H1704  H     0.00001   0.93716   0.21470   0.00000  Uiso   1.00
H1705  H     0.01168   0.96131   0.28130   0.00000  Uiso   1.00
H1706  H     0.05218   0.94069   0.26148   0.00000  Uiso   1.00
H1707  H     0.02582   0.91660   0.29744   0.00000  Uiso   1.00
H1708  H     0.03684   0.62839   0.83984   0.00000  Uiso   1.00
H1709  H     0.08126   0.64639   0.83242   0.00000  Uiso   1.00
H1710  H     0.06507   0.56452   0.84643   0.00000  Uiso   1.00
H1711  H     0.10900   0.58649   0.84639   0.00000  Uiso   1.00
H1712  H     0.44727   0.77484   0.02560   0.00000  Uiso   1.00
H1713  H     0.09096   0.62369   0.90414   0.00000  Uiso   1.00
H1714  H     0.08818   0.57546   0.91363   0.00000  Uiso   1.00
H1715  H     0.04712   0.60101   0.90490   0.00000  Uiso   1.00
H1716  H     0.11058   0.53454   0.72146   0.00000  Uiso   1.00
H1717  H     0.06613   0.55042   0.73742   0.00000  Uiso   1.00
H1718  H     0.10728   0.98430   0.77049   0.00000  Uiso   1.00
H1719  H     0.06289   0.99995   0.78532   0.00000  Uiso   1.00
H1720  H     0.03867   0.98827   0.71876   0.00000  Uiso   1.00
H1721  H     0.05939   0.94779   0.73849   0.00000  Uiso   1.00
H1722  H     0.08338   0.97423   0.70252   0.00000  Uiso   1.00
H1723  H     0.45001   0.71990   0.97480   0.00000  Uiso   1.00
H1724  H     0.37161   0.96316   0.16016   0.00000  Uiso   1.00
H1725  H     0.35361   0.91874   0.16758   0.00000  Uiso   1.00
H1726  H     0.43548   0.93494   0.15357   0.00000  Uiso   1.00
H1727  H     0.41351   0.89100   0.15361   0.00000  Uiso   1.00
H1728  H     0.37631   0.90904   0.09586   0.00000  Uiso   1.00
H1729  H     0.42454   0.91182   0.08637   0.00000  Uiso   1.00
H1730  H     0.39899   0.95288   0.09510   0.00000  Uiso   1.00
H1731  H     0.02694   0.87611   0.82570   0.00000  Uiso   1.00
H1732  H     0.04250   0.89791   0.78253   0.00000  Uiso   1.00
H1733  H     0.06660   0.91849   0.86629   0.00000  Uiso   1.00
H1734  H     0.46990   0.70001   0.52520   0.00000  Uiso   1.00
H1735  H     0.07737   0.94283   0.82221   0.00000  Uiso   1.00
H1736  H     0.01040   0.95416   0.81124   0.00000  Uiso   1.00
H1737  H     0.02744   0.97363   0.85592   0.00000  Uiso   1.00
H1738  H     0.00117   0.93219   0.85746   0.00000  Uiso   1.00
H1739  H     0.41984   0.68100   0.14355   0.00000  Uiso   1.00
H1740  H     0.38925   0.69084   0.18240   0.00000  Uiso   1.00
H1741  H     0.37566   0.63411   0.11704   0.00000  Uiso   1.00
H1742  H     0.34368   0.64712   0.15435   0.00000  Uiso   1.00
H1743  H     0.34389   0.71111   0.12912   0.00000  Uiso   1.00
H1744  H     0.33025   0.67874   0.09238   0.00000  Uiso   1.00
O1745  O     0.25000   0.50000   0.25000   0.00000  Uiso   1.00
O1746  O     0.25000   0.96964   0.66317   0.00000  Uiso   1.00
O1747  O     0.18012   0.55986   0.87939   0.00000  Uiso   1.00
O1748  O     0.21589   0.60074   0.92084   0.00000  Uiso   1.00
O1749  O     0.24399   0.58000   0.85513   0.00000  Uiso   1.00
O1750  O     0.44014   0.81988   0.12061   0.00000  Uiso   1.00
O1751  O     0.39926   0.78411   0.07916   0.00000  Uiso   1.00
O1752  O     0.42001   0.75601   0.14487   0.00000  Uiso   1.00
O1753  O     0.44690   0.67342   0.88242   0.00000  Uiso   1.00
O1754  O     0.40255   0.70717   0.92132   0.00000  Uiso   1.00
O1755  O     0.42168   0.73415   0.85452   0.00000  Uiso   1.00
O1756  O     0.42342   0.69690   0.61758   0.00000  Uiso   1.00
O1757  O     0.46964   0.75000   0.33683   0.00000  Uiso   1.00
O1758  O     0.45717   0.65255   0.57868   0.00000  Uiso   1.00
O1759  O     0.48415   0.67168   0.64547   0.00000  Uiso   1.00
O1760  O     0.06988   0.69014   0.37939   0.00000  Uiso   1.00
O1761  O     0.03411   0.64926   0.42084   0.00000  Uiso   1.00
O1762  O     0.00601   0.67001   0.35513   0.00000  Uiso   1.00
O1763  O     0.30986   0.93012   0.62061   0.00000  Uiso   1.00
O1764  O     0.35074   0.96589   0.57916   0.00000  Uiso   1.00
O1765  O     0.33000   0.99398   0.64487   0.00000  Uiso   1.00
O1766  O     0.30310   0.57658   0.38242   0.00000  Uiso   1.00
O1767  O     0.34745   0.54283   0.42132   0.00000  Uiso   1.00
O1768  O     0.03036   0.75000   0.66317   0.00000  Uiso   1.00
O1769  O     0.32832   0.51585   0.35452   0.00000  Uiso   1.00
O1770  O     0.07658   0.80310   0.61758   0.00000  Uiso   1.00
O1771  O     0.04284   0.84745   0.57868   0.00000  Uiso   1.00
O1772  O     0.01585   0.82832   0.64547   0.00000  Uiso   1.00
O1773  O     0.43012   0.80986   0.37939   0.00000  Uiso   1.00
O1774  O     0.46589   0.85074   0.42084   0.00000  Uiso   1.00
O1775  O     0.49399   0.83000   0.35514   0.00000  Uiso   1.00
O1776  O     0.19014   0.56988   0.62061   0.00000  Uiso   1.00
O1777  O     0.14926   0.53411   0.57916   0.00000  Uiso   1.00
O1778  O     0.17001   0.50602   0.64487   0.00000  Uiso   1.00
O1779  O     0.00000   0.71964   0.83683   0.00000  Uiso   1.00
O1780  O     0.19690   0.92342   0.38241   0.00000  Uiso   1.00
O1781  O     0.15255   0.95716   0.42132   0.00000  Uiso   1.00
O1782  O     0.17168   0.98415   0.35452   0.00000  Uiso   1.00
O1783  O     0.00000   0.78036   0.16317   0.00000  Uiso   1.00
O1784  O     0.28036   0.50000   0.83683   0.00000  Uiso   1.00
O1785  O     0.21964   0.50000   0.16317   0.00000  Uiso   1.00
O1786  O     0.00000   0.78036   0.83683   0.00000  Uiso   1.00
O1787  O     0.00000   0.71964   0.16317   0.00000  Uiso   1.00
O1788  O     0.21964   0.50000   0.83683   0.00000  Uiso   1.00
O1789  O     0.25000   0.50000   0.75000   0.00000  Uiso   1.00
O1790  O     0.28036   0.50000   0.16317   0.00000  Uiso   1.00
O1791  O     0.20726   0.57307   0.27282   0.00000  Uiso   1.00
O1792  O     0.29275   0.92693   0.72718   0.00000  Uiso   1.00
O1793  O     0.42693   0.70726   0.27282   0.00000  Uiso   1.00
O1794  O     0.07307   0.79274   0.72718   0.00000  Uiso   1.00
O1795  O     0.29275   0.92693   0.27282   0.00000  Uiso   1.00
O1796  O     0.20726   0.57307   0.72718   0.00000  Uiso   1.00
O1797  O     0.07307   0.79274   0.27282   0.00000  Uiso   1.00
O1798  O     0.42693   0.70726   0.72718   0.00000  Uiso   1.00
O1799  O     0.20726   0.92693   0.72718   0.00000  Uiso   1.00
O1800  O     0.00000   0.75000   0.25000   0.00000  Uiso   1.00
O1801  O     0.29275   0.57307   0.27282   0.00000  Uiso   1.00
O1802  O     0.42693   0.79275   0.72718   0.00000  Uiso   1.00
O1803  O     0.07307   0.70725   0.27282   0.00000  Uiso   1.00
O1804  O     0.29275   0.57307   0.72718   0.00000  Uiso   1.00
O1805  O     0.20726   0.92693   0.27282   0.00000  Uiso   1.00
O1806  O     0.07307   0.70725   0.72718   0.00000  Uiso   1.00
O1807  O     0.42693   0.79275   0.27282   0.00000  Uiso   1.00
O1808  O     0.45726   0.82307   0.77282   0.00000  Uiso   1.00
O1809  O     0.04275   0.67693   0.22718   0.00000  Uiso   1.00
O1810  O     0.17693   0.95725   0.77282   0.00000  Uiso   1.00
O1811  O     0.00000   0.75000   0.75000   0.00000  Uiso   1.00
O1812  O     0.32307   0.54275   0.22718   0.00000  Uiso   1.00
O1813  O     0.04275   0.67693   0.77282   0.00000  Uiso   1.00
O1814  O     0.45726   0.82307   0.22718   0.00000  Uiso   1.00
O1815  O     0.32307   0.54275   0.77282   0.00000  Uiso   1.00
O1816  O     0.17693   0.95725   0.22718   0.00000  Uiso   1.00
O1817  O     0.45726   0.67693   0.22718   0.00000  Uiso   1.00
O1818  O     0.04275   0.82307   0.77282   0.00000  Uiso   1.00
O1819  O     0.17693   0.54275   0.22718   0.00000  Uiso   1.00
O1820  O     0.32307   0.95725   0.77282   0.00000  Uiso   1.00
O1821  O     0.04275   0.82307   0.22718   0.00000  Uiso   1.00
O1822  O     0.25000   0.96964   0.33683   0.00000  Uiso   1.00
O1823  O     0.45726   0.67693   0.77282   0.00000  Uiso   1.00
O1824  O     0.32307   0.95725   0.22718   0.00000  Uiso   1.00
O1825  O     0.17693   0.54275   0.77282   0.00000  Uiso   1.00
O1826  O     0.13251   0.91901   0.18446   0.00000  Uiso   1.00
O1827  O     0.36125   0.58610   0.81839   0.00000  Uiso   1.00
O1828  O     0.05564   0.60823   0.22225   0.00000  Uiso   1.00
O1829  O     0.43990   0.88903   0.78908   0.00000  Uiso   1.00
O1830  O     0.36749   0.58099   0.18446   0.00000  Uiso   1.00
O1831  O     0.13875   0.91390   0.81839   0.00000  Uiso   1.00
O1832  O     0.44436   0.89177   0.22225   0.00000  Uiso   1.00
O1833  O     0.25000   0.53036   0.66317   0.00000  Uiso   1.00
O1834  O     0.06010   0.61097   0.78908   0.00000  Uiso   1.00
O1835  O     0.10823   0.55564   0.77775   0.00000  Uiso   1.00
O1836  O     0.38903   0.93990   0.21092   0.00000  Uiso   1.00
O1837  O     0.08099   0.86749   0.81554   0.00000  Uiso   1.00
O1838  O     0.41390   0.63875   0.18161   0.00000  Uiso   1.00
O1839  O     0.39177   0.94436   0.77775   0.00000  Uiso   1.00
O1840  O     0.11097   0.56010   0.21091   0.00000  Uiso   1.00
O1841  O     0.41901   0.63251   0.81554   0.00000  Uiso   1.00
O1842  O     0.08610   0.86125   0.18161   0.00000  Uiso   1.00
O1843  O     0.38251   0.66901   0.68446   0.00000  Uiso   1.00
O1844  O     0.03036   0.75000   0.33683   0.00000  Uiso   1.00
O1845  O     0.11125   0.83610   0.31839   0.00000  Uiso   1.00
O1846  O     0.30564   0.85823   0.72225   0.00000  Uiso   1.00
O1847  O     0.18990   0.63903   0.28908   0.00000  Uiso   1.00
O1848  O     0.11749   0.83099   0.68446   0.00000  Uiso   1.00
O1849  O     0.38875   0.66390   0.31839   0.00000  Uiso   1.00
O1850  O     0.19436   0.64177   0.72225   0.00000  Uiso   1.00
O1851  O     0.31010   0.86097   0.28909   0.00000  Uiso   1.00
O1852  O     0.35823   0.80564   0.27775   0.00000  Uiso   1.00
O1853  O     0.13903   0.68990   0.71091   0.00000  Uiso   1.00
O1854  O     0.33099   0.61749   0.31554   0.00000  Uiso   1.00
O1855  O     0.46964   0.75000   0.66317   0.00000  Uiso   1.00
O1856  O     0.16390   0.88875   0.68161   0.00000  Uiso   1.00
O1857  O     0.14177   0.69436   0.27774   0.00000  Uiso   1.00
O1858  O     0.36097   0.81010   0.71091   0.00000  Uiso   1.00
O1859  O     0.16901   0.88251   0.31554   0.00000  Uiso   1.00
O1860  O     0.33610   0.61125   0.68161   0.00000  Uiso   1.00
O1861  O     0.17342   0.94690   0.11758   0.00000  Uiso   1.00
O1862  O     0.20717   0.90255   0.07868   0.00000  Uiso   1.00
O1863  O     0.23415   0.92168   0.14547   0.00000  Uiso   1.00
O1864  O     0.31988   0.94014   0.87939   0.00000  Uiso   1.00
O1865  O     0.28411   0.89926   0.92084   0.00000  Uiso   1.00
O1866  O     0.25000   0.53036   0.33683   0.00000  Uiso   1.00
O1867  O     0.25601   0.92000   0.85513   0.00000  Uiso   1.00
O1868  O     0.05986   0.68012   0.12061   0.00000  Uiso   1.00
O1869  O     0.10074   0.71589   0.07916   0.00000  Uiso   1.00
O1870  O     0.08000   0.74399   0.14486   0.00000  Uiso   1.00
O1871  O     0.05310   0.82658   0.88242   0.00000  Uiso   1.00
O1872  O     0.09745   0.79284   0.92132   0.00000  Uiso   1.00
O1873  O     0.07832   0.76585   0.85452   0.00000  Uiso   1.00
O1874  O     0.32658   0.55310   0.11758   0.00000  Uiso   1.00
O1875  O     0.29283   0.59745   0.07868   0.00000  Uiso   1.00
O1876  O     0.26585   0.57832   0.14547   0.00000  Uiso   1.00
S1877  S     0.21074   0.93453   0.10571   0.00000  Uiso   1.00
S1878  S     0.03221   0.68114   0.39350   0.00000  Uiso   1.00
S1879  S     0.31886   0.96779   0.60650   0.00000  Uiso   1.00
S1880  S     0.31547   0.53926   0.39429   0.00000  Uiso   1.00
S1881  S     0.03926   0.81546   0.60571   0.00000  Uiso   1.00
S1882  S     0.46780   0.81886   0.39350   0.00000  Uiso   1.00
S1883  S     0.18114   0.53221   0.60650   0.00000  Uiso   1.00
S1884  S     0.18454   0.96073   0.39429   0.00000  Uiso   1.00
S1885  S     0.28221   0.93114   0.89350   0.00000  Uiso   1.00
S1886  S     0.06886   0.71780   0.10650   0.00000  Uiso   1.00
S1887  S     0.06546   0.78926   0.89429   0.00000  Uiso   1.00
S1888  S     0.28926   0.56547   0.10571   0.00000  Uiso   1.00
S1889  S     0.21779   0.56886   0.89350   0.00000  Uiso   1.00
S1890  S     0.43114   0.78220   0.10650   0.00000  Uiso   1.00
S1891  S     0.43454   0.71074   0.89429   0.00000  Uiso   1.00
S1892  S     0.46074   0.68454   0.60571   0.00000  Uiso   1.00
Zn1893 Zn    0.20660   0.50000   0.21760   0.00000  Uiso   1.00
Zn1894 Zn    0.04340   0.75000   0.28240   0.00000  Uiso   1.00
Zn1895 Zn    0.25000   0.95660   0.71760   0.00000  Uiso   1.00
Zn1896 Zn    0.25000   0.54340   0.28240   0.00000  Uiso   1.00
Zn1897 Zn    0.04340   0.75000   0.71760   0.00000  Uiso   1.00
Zn1898 Zn    0.45660   0.75000   0.28240   0.00000  Uiso   1.00
Zn1899 Zn    0.25000   0.54340   0.71760   0.00000  Uiso   1.00
Zn1900 Zn    0.25000   0.95660   0.28240   0.00000  Uiso   1.00
Zn1901 Zn    0.29340   0.50000   0.78240   0.00000  Uiso   1.00
Zn1902 Zn    0.00000   0.70660   0.21760   0.00000  Uiso   1.00
Zn1903 Zn    0.00000   0.79340   0.78240   0.00000  Uiso   1.00
Zn1904 Zn    0.29340   0.50000   0.21760   0.00000  Uiso   1.00
Zn1905 Zn    0.20660   0.50000   0.78240   0.00000  Uiso   1.00
Zn1906 Zn    0.00000   0.79340   0.21760   0.00000  Uiso   1.00
Zn1907 Zn    0.00000   0.70660   0.78240   0.00000  Uiso   1.00
Zn1908 Zn    0.45660   0.75000   0.71760   0.00000  Uiso   1.00
C1909  C     0.73318   0.97163   0.04130   0.00000  Uiso   1.00
C1910  C     0.51387   0.72011   0.45832   0.00000  Uiso   1.00
C1911  C     0.84799   0.90201   0.75000   0.00000  Uiso   1.00
C1912  C     0.90205   0.65205   0.25000   0.00000  Uiso   1.00
C1913  C     0.59829   0.84829   0.75000   0.00000  Uiso   1.00
C1914  C     0.84827   0.90173   0.25000   0.00000  Uiso   1.00
C1915  C     0.65201   0.59799   0.75000   0.00000  Uiso   1.00
C1916  C     0.59827   0.65173   0.75000   0.00000  Uiso   1.00
C1917  C     0.90201   0.84799   0.25000   0.00000  Uiso   1.00
C1918  C     0.65205   0.90205   0.75000   0.00000  Uiso   1.00
C1919  C     0.84829   0.59829   0.25000   0.00000  Uiso   1.00
C1920  C     0.90173   0.84827   0.75000   0.00000  Uiso   1.00
C1921  C     0.77989   0.98613   0.54167   0.00000  Uiso   1.00
C1922  C     0.59799   0.65201   0.25000   0.00000  Uiso   1.00
C1923  C     0.84795   0.59795   0.75000   0.00000  Uiso   1.00
C1924  C     0.65171   0.90171   0.25000   0.00000  Uiso   1.00
C1925  C     0.75000   0.50000   0.10245   0.00000  Uiso   1.00
C1926  C     0.75000   0.50000   0.89731   0.00000  Uiso   1.00
C1927  C     0.50000   0.75000   0.10269   0.00000  Uiso   1.00
C1928  C     0.50000   0.75000   0.89755   0.00000  Uiso   1.00
C1929  C     0.50000   0.75000   0.60245   0.00000  Uiso   1.00
C1930  C     0.50000   0.75000   0.39731   0.00000  Uiso   1.00
C1931  C     0.75000   0.50000   0.60269   0.00000  Uiso   1.00
C1932  C     0.77837   0.51682   0.45870   0.00000  Uiso   1.00
C1933  C     0.75000   0.50000   0.39755   0.00000  Uiso   1.00
C1934  C     0.60908   0.94955   0.18699   0.00000  Uiso   1.00
C1935  C     0.57433   0.94339   0.16328   0.00000  Uiso   1.00
C1936  C     0.55228   0.97836   0.15954   0.00000  Uiso   1.00
C1937  C     0.83111   0.60172   0.83781   0.00000  Uiso   1.00
C1938  C     0.84316   0.63334   0.86394   0.00000  Uiso   1.00
C1939  C     0.81183   0.64668   0.88933   0.00000  Uiso   1.00
C1940  C     0.53658   0.59166   0.25325   0.00000  Uiso   1.00
C1941  C     0.99820   0.58215   0.23955   0.00000  Uiso   1.00
C1942  C     0.97582   0.56481   0.27205   0.00000  Uiso   1.00
C1943  C     0.51682   0.77837   0.54130   0.00000  Uiso   1.00
C1944  C     0.93573   0.87860   0.82862   0.00000  Uiso   1.00
C1945  C     0.92028   0.90978   0.85325   0.00000  Uiso   1.00
C1946  C     0.92379   0.90180   0.89667   0.00000  Uiso   1.00
C1947  C     0.89092   0.55045   0.18699   0.00000  Uiso   1.00
C1948  C     0.92567   0.55661   0.16327   0.00000  Uiso   1.00
C1949  C     0.94772   0.52165   0.15953   0.00000  Uiso   1.00
C1950  C     0.66889   0.89828   0.83781   0.00000  Uiso   1.00
C1951  C     0.65684   0.86666   0.86394   0.00000  Uiso   1.00
C1952  C     0.68817   0.85332   0.88933   0.00000  Uiso   1.00
C1953  C     0.96342   0.90833   0.25326   0.00000  Uiso   1.00
C1954  C     0.98613   0.77989   0.45832   0.00000  Uiso   1.00
C1955  C     0.50179   0.91788   0.23954   0.00000  Uiso   1.00
C1956  C     0.52417   0.93521   0.27205   0.00000  Uiso   1.00
C1957  C     0.56427   0.62140   0.82862   0.00000  Uiso   1.00
C1958  C     0.57972   0.59022   0.85325   0.00000  Uiso   1.00
C1959  C     0.57621   0.59820   0.89667   0.00000  Uiso   1.00
C1960  C     0.59166   0.53658   0.74675   0.00000  Uiso   1.00
C1961  C     0.58215   0.99820   0.76045   0.00000  Uiso   1.00
C1962  C     0.56481   0.97582   0.72794   0.00000  Uiso   1.00
C1963  C     0.87860   0.93573   0.17138   0.00000  Uiso   1.00
C1964  C     0.90978   0.92028   0.14675   0.00000  Uiso   1.00
C1965  C     0.72011   0.51387   0.54167   0.00000  Uiso   1.00
C1966  C     0.90180   0.92379   0.10333   0.00000  Uiso   1.00
C1967  C     0.55045   0.89092   0.81301   0.00000  Uiso   1.00
C1968  C     0.55661   0.92567   0.83673   0.00000  Uiso   1.00
C1969  C     0.52165   0.94772   0.84046   0.00000  Uiso   1.00
C1970  C     0.89828   0.66889   0.16219   0.00000  Uiso   1.00
C1971  C     0.86666   0.65685   0.13606   0.00000  Uiso   1.00
C1972  C     0.85332   0.68817   0.11067   0.00000  Uiso   1.00
C1973  C     0.90834   0.96342   0.74675   0.00000  Uiso   1.00
C1974  C     0.91785   0.50180   0.76045   0.00000  Uiso   1.00
C1975  C     0.93519   0.52418   0.72794   0.00000  Uiso   1.00
C1976  C     0.72163   0.98318   0.45870   0.00000  Uiso   1.00
C1977  C     0.62140   0.56427   0.17138   0.00000  Uiso   1.00
C1978  C     0.59022   0.57973   0.14675   0.00000  Uiso   1.00
C1979  C     0.59821   0.57622   0.10332   0.00000  Uiso   1.00
C1980  C     0.94955   0.60908   0.81301   0.00000  Uiso   1.00
C1981  C     0.94339   0.57433   0.83673   0.00000  Uiso   1.00
C1982  C     0.97835   0.55228   0.84046   0.00000  Uiso   1.00
C1983  C     0.60172   0.83111   0.16219   0.00000  Uiso   1.00
C1984  C     0.63333   0.84316   0.13606   0.00000  Uiso   1.00
C1985  C     0.64667   0.81183   0.11067   0.00000  Uiso   1.00
C1986  C     0.85908   0.69955   0.68699   0.00000  Uiso   1.00
C1987  C     0.73292   0.97124   0.08190   0.00000  Uiso   1.00
C1988  C     0.82433   0.69339   0.66327   0.00000  Uiso   1.00
C1989  C     0.80228   0.72835   0.65953   0.00000  Uiso   1.00
C1990  C     0.58111   0.85171   0.33781   0.00000  Uiso   1.00
C1991  C     0.59315   0.88334   0.36393   0.00000  Uiso   1.00
C1992  C     0.56182   0.89667   0.38932   0.00000  Uiso   1.00
C1993  C     0.78658   0.84166   0.75325   0.00000  Uiso   1.00
C1994  C     0.74820   0.83215   0.73955   0.00000  Uiso   1.00
C1995  C     0.72582   0.81481   0.77206   0.00000  Uiso   1.00
C1996  C     0.68573   0.62860   0.32862   0.00000  Uiso   1.00
C1997  C     0.67028   0.65978   0.35325   0.00000  Uiso   1.00
C1998  C     0.76412   0.96975   0.91773   0.00000  Uiso   1.00
C1999  C     0.67379   0.65180   0.39667   0.00000  Uiso   1.00
C2000  C     0.64092   0.80045   0.68699   0.00000  Uiso   1.00
C2001  C     0.67567   0.80661   0.66327   0.00000  Uiso   1.00
C2002  C     0.69772   0.77165   0.65954   0.00000  Uiso   1.00
C2003  C     0.91889   0.64828   0.33781   0.00000  Uiso   1.00
C2004  C     0.90685   0.61666   0.36394   0.00000  Uiso   1.00
C2005  C     0.93817   0.60332   0.38933   0.00000  Uiso   1.00
C2006  C     0.71342   0.65834   0.75325   0.00000  Uiso   1.00
C2007  C     0.75180   0.66785   0.73955   0.00000  Uiso   1.00
C2008  C     0.77418   0.68519   0.77206   0.00000  Uiso   1.00
C2009  C     0.53025   0.73588   0.08227   0.00000  Uiso   1.00
C2010  C     0.81427   0.87140   0.32862   0.00000  Uiso   1.00
C2011  C     0.82972   0.84022   0.35325   0.00000  Uiso   1.00
C2012  C     0.82622   0.84821   0.39667   0.00000  Uiso   1.00
C2013  C     0.84166   0.78658   0.24675   0.00000  Uiso   1.00
C2014  C     0.83215   0.74820   0.26046   0.00000  Uiso   1.00
C2015  C     0.81481   0.72582   0.22795   0.00000  Uiso   1.00
C2016  C     0.62860   0.68573   0.67138   0.00000  Uiso   1.00
C2017  C     0.65978   0.67028   0.64675   0.00000  Uiso   1.00
C2018  C     0.65180   0.67379   0.60333   0.00000  Uiso   1.00
C2019  C     0.80045   0.64092   0.31301   0.00000  Uiso   1.00
C2020  C     0.76387   0.97011   0.95832   0.00000  Uiso   1.00
C2021  C     0.52876   0.76708   0.91810   0.00000  Uiso   1.00
C2022  C     0.80661   0.67567   0.33673   0.00000  Uiso   1.00
C2023  C     0.77165   0.69772   0.34047   0.00000  Uiso   1.00
C2024  C     0.64828   0.91889   0.66219   0.00000  Uiso   1.00
C2025  C     0.61666   0.90684   0.63606   0.00000  Uiso   1.00
C2026  C     0.60332   0.93817   0.61067   0.00000  Uiso   1.00
C2027  C     0.65834   0.71342   0.24675   0.00000  Uiso   1.00
C2028  C     0.66785   0.75180   0.26045   0.00000  Uiso   1.00
C2029  C     0.68519   0.77418   0.22794   0.00000  Uiso   1.00
C2030  C     0.87140   0.81427   0.67138   0.00000  Uiso   1.00
C2031  C     0.84022   0.82972   0.64675   0.00000  Uiso   1.00
C2032  C     0.76708   0.52876   0.08190   0.00000  Uiso   1.00
C2033  C     0.84820   0.82621   0.60333   0.00000  Uiso   1.00
C2034  C     0.69955   0.85908   0.31300   0.00000  Uiso   1.00
C2035  C     0.69339   0.82433   0.33673   0.00000  Uiso   1.00
C2036  C     0.72836   0.80228   0.34046   0.00000  Uiso   1.00
C2037  C     0.85172   0.58111   0.66219   0.00000  Uiso   1.00
C2038  C     0.88334   0.59316   0.63606   0.00000  Uiso   1.00
C2039  C     0.89668   0.56183   0.61067   0.00000  Uiso   1.00
C2040  C     0.73588   0.53025   0.91773   0.00000  Uiso   1.00
C2041  C     0.96975   0.76412   0.08227   0.00000  Uiso   1.00
C2042  C     0.97124   0.73292   0.91810   0.00000  Uiso   1.00
C2043  C     0.98292   0.72124   0.58190   0.00000  Uiso   1.00
C2044  C     0.51412   0.71975   0.41773   0.00000  Uiso   1.00
C2045  C     0.78025   0.98588   0.58227   0.00000  Uiso   1.00
C2046  C     0.77876   0.51708   0.41810   0.00000  Uiso   1.00
C2047  C     0.51708   0.77875   0.58190   0.00000  Uiso   1.00
C2048  C     0.52989   0.73613   0.04167   0.00000  Uiso   1.00
C2049  C     0.98588   0.78025   0.41773   0.00000  Uiso   1.00
C2050  C     0.71975   0.51412   0.58227   0.00000  Uiso   1.00
C2051  C     0.72124   0.98292   0.41810   0.00000  Uiso   1.00
C2052  C     0.75000   0.50000   0.02109   0.00000  Uiso   1.00
C2053  C     0.75000   0.50000   0.97854   0.00000  Uiso   1.00
C2054  C     0.50000   0.75000   0.02145   0.00000  Uiso   1.00
C2055  C     0.50000   0.75000   0.97891   0.00000  Uiso   1.00
C2056  C     0.50000   0.75000   0.52109   0.00000  Uiso   1.00
C2057  C     0.50000   0.75000   0.47854   0.00000  Uiso   1.00
C2058  C     0.75000   0.50000   0.52145   0.00000  Uiso   1.00
C2059  C     0.52837   0.76682   0.95870   0.00000  Uiso   1.00
C2060  C     0.75000   0.50000   0.47891   0.00000  Uiso   1.00
C2061  C     0.75000   0.50000   0.35512   0.00000  Uiso   1.00
C2062  C     0.75000   0.50000   0.64497   0.00000  Uiso   1.00
C2063  C     0.50000   0.75000   0.35503   0.00000  Uiso   1.00
C2064  C     0.50000   0.75000   0.64488   0.00000  Uiso   1.00
C2065  C     0.50000   0.75000   0.85512   0.00000  Uiso   1.00
C2066  C     0.50000   0.75000   0.14497   0.00000  Uiso   1.00
C2067  C     0.75000   0.50000   0.85503   0.00000  Uiso   1.00
C2068  C     0.75000   0.50000   0.14488   0.00000  Uiso   1.00
C2069  C     0.67988   0.57012   0.25000   0.00000  Uiso   1.00
C2070  C     0.76682   0.52837   0.04130   0.00000  Uiso   1.00
C2071  C     0.82001   0.92999   0.75000   0.00000  Uiso   1.00
C2072  C     0.93002   0.68002   0.25000   0.00000  Uiso   1.00
C2073  C     0.57012   0.82011   0.75000   0.00000  Uiso   1.00
C2074  C     0.82012   0.92988   0.25000   0.00000  Uiso   1.00
C2075  C     0.67999   0.57001   0.75000   0.00000  Uiso   1.00
C2076  C     0.56999   0.81998   0.25000   0.00000  Uiso   1.00
C2077  C     0.92989   0.67989   0.75000   0.00000  Uiso   1.00
C2078  C     0.68002   0.93001   0.75000   0.00000  Uiso   1.00
C2079  C     0.82012   0.57012   0.25000   0.00000  Uiso   1.00
C2080  C     0.92988   0.82012   0.75000   0.00000  Uiso   1.00
C2081  C     0.73613   0.52989   0.95832   0.00000  Uiso   1.00
C2082  C     0.57001   0.67999   0.25000   0.00000  Uiso   1.00
C2083  C     0.81999   0.56999   0.75000   0.00000  Uiso   1.00
C2084  C     0.67989   0.92988   0.25000   0.00000  Uiso   1.00
C2085  C     0.57012   0.67988   0.75000   0.00000  Uiso   1.00
C2086  C     0.92999   0.82001   0.25000   0.00000  Uiso   1.00
C2087  C     0.62873   0.89744   0.21728   0.00000  Uiso   1.00
C2088  C     0.86817   0.60467   0.78406   0.00000  Uiso   1.00
C2089  C     0.59018   0.61723   0.23511   0.00000  Uiso   1.00
C2090  C     0.90796   0.88187   0.76904   0.00000  Uiso   1.00
C2091  C     0.87127   0.60257   0.21728   0.00000  Uiso   1.00
C2092  C     0.97011   0.76387   0.04167   0.00000  Uiso   1.00
C2093  C     0.63183   0.89533   0.78406   0.00000  Uiso   1.00
C2094  C     0.90982   0.88277   0.23511   0.00000  Uiso   1.00
C2095  C     0.59204   0.61813   0.76904   0.00000  Uiso   1.00
C2096  C     0.61723   0.59018   0.76489   0.00000  Uiso   1.00
C2097  C     0.88187   0.90796   0.23095   0.00000  Uiso   1.00
C2098  C     0.60257   0.87127   0.78272   0.00000  Uiso   1.00
C2099  C     0.89533   0.63183   0.21594   0.00000  Uiso   1.00
C2100  C     0.88277   0.90982   0.76489   0.00000  Uiso   1.00
C2101  C     0.61813   0.59204   0.23095   0.00000  Uiso   1.00
C2102  C     0.89743   0.62873   0.78272   0.00000  Uiso   1.00
C2103  C     0.97163   0.73318   0.95870   0.00000  Uiso   1.00
C2104  C     0.60467   0.86817   0.21594   0.00000  Uiso   1.00
C2105  C     0.87873   0.64743   0.71728   0.00000  Uiso   1.00
C2106  C     0.61817   0.85467   0.28406   0.00000  Uiso   1.00
C2107  C     0.84018   0.86723   0.73511   0.00000  Uiso   1.00
C2108  C     0.65796   0.63187   0.26904   0.00000  Uiso   1.00
C2109  C     0.62127   0.85257   0.71728   0.00000  Uiso   1.00
C2110  C     0.88183   0.64533   0.28406   0.00000  Uiso   1.00
C2111  C     0.65982   0.63277   0.73511   0.00000  Uiso   1.00
C2112  C     0.84204   0.86813   0.26904   0.00000  Uiso   1.00
C2113  C     0.86723   0.84018   0.26489   0.00000  Uiso   1.00
C2114  C     0.98318   0.72163   0.54130   0.00000  Uiso   1.00
C2115  C     0.63187   0.65796   0.73095   0.00000  Uiso   1.00
C2116  C     0.85257   0.62127   0.28272   0.00000  Uiso   1.00
C2117  C     0.64533   0.88183   0.71594   0.00000  Uiso   1.00
C2118  C     0.63277   0.65982   0.26489   0.00000  Uiso   1.00
C2119  C     0.86813   0.84204   0.73095   0.00000  Uiso   1.00
C2120  C     0.64744   0.87873   0.28272   0.00000  Uiso   1.00
C2121  C     0.85467   0.61817   0.71594   0.00000  Uiso   1.00
C2122  C     0.59795   0.84795   0.25000   0.00000  Uiso   1.00
C2123  C     0.90171   0.65171   0.75000   0.00000  Uiso   1.00
C2124  C     0.65173   0.59827   0.25000   0.00000  Uiso   1.00
H2125  H     0.71990   0.95001   0.02520   0.00000  Uiso   1.00
H2126  H     0.52484   0.69727   0.47440   0.00000  Uiso   1.00
H2127  H     0.87551   0.69787   0.09128   0.00000  Uiso   1.00
H2128  H     0.88942   0.96546   0.72146   0.00000  Uiso   1.00
H2129  H     0.93387   0.94958   0.73743   0.00000  Uiso   1.00
H2130  H     0.89272   0.51570   0.77049   0.00000  Uiso   1.00
H2131  H     0.93711   0.50005   0.78532   0.00000  Uiso   1.00
H2132  H     0.96134   0.51173   0.71876   0.00000  Uiso   1.00
H2133  H     0.94060   0.55221   0.73849   0.00000  Uiso   1.00
H2134  H     0.91662   0.52577   0.70252   0.00000  Uiso   1.00
H2135  H     0.62839   0.53684   0.16016   0.00000  Uiso   1.00
H2136  H     0.64639   0.58126   0.16758   0.00000  Uiso   1.00
H2137  H     0.80273   0.97516   0.52560   0.00000  Uiso   1.00
H2138  H     0.56452   0.56507   0.15356   0.00000  Uiso   1.00
H2139  H     0.58650   0.60901   0.15361   0.00000  Uiso   1.00
H2140  H     0.62369   0.59096   0.09586   0.00000  Uiso   1.00
H2141  H     0.57546   0.58818   0.08637   0.00000  Uiso   1.00
H2142  H     0.60101   0.54712   0.09510   0.00000  Uiso   1.00
H2143  H     0.97306   0.62389   0.82570   0.00000  Uiso   1.00
H2144  H     0.95750   0.60209   0.78253   0.00000  Uiso   1.00
H2145  H     0.93340   0.58151   0.86629   0.00000  Uiso   1.00
H2146  H     0.92263   0.55717   0.82221   0.00000  Uiso   1.00
H2147  H     0.98960   0.54584   0.81124   0.00000  Uiso   1.00
H2148  H     0.79999   0.53010   0.47480   0.00000  Uiso   1.00
H2149  H     0.97256   0.52637   0.85592   0.00000  Uiso   1.00
H2150  H     0.99883   0.56781   0.85746   0.00000  Uiso   1.00
H2151  H     0.58015   0.81900   0.14355   0.00000  Uiso   1.00
H2152  H     0.61075   0.80916   0.18239   0.00000  Uiso   1.00
H2153  H     0.62433   0.86590   0.11704   0.00000  Uiso   1.00
H2154  H     0.65631   0.85289   0.15435   0.00000  Uiso   1.00
H2155  H     0.65610   0.78889   0.12911   0.00000  Uiso   1.00
H2156  H     0.66974   0.82127   0.09237   0.00000  Uiso   1.00
H2157  H     0.62448   0.80214   0.09128   0.00000  Uiso   1.00
H2158  H     0.87389   0.72306   0.67430   0.00000  Uiso   1.00
H2159  H     0.53010   0.79999   0.52520   0.00000  Uiso   1.00
H2160  H     0.85209   0.70750   0.71747   0.00000  Uiso   1.00
H2161  H     0.83151   0.68340   0.63371   0.00000  Uiso   1.00
H2162  H     0.80717   0.67263   0.67780   0.00000  Uiso   1.00
H2163  H     0.79584   0.73961   0.68876   0.00000  Uiso   1.00
H2164  H     0.77637   0.72256   0.64408   0.00000  Uiso   1.00
H2165  H     0.81781   0.74883   0.64254   0.00000  Uiso   1.00
H2166  H     0.56900   0.83015   0.35645   0.00000  Uiso   1.00
H2167  H     0.55916   0.86074   0.31760   0.00000  Uiso   1.00
H2168  H     0.61589   0.87434   0.38295   0.00000  Uiso   1.00
H2169  H     0.60288   0.90632   0.34564   0.00000  Uiso   1.00
H2170  H     0.97516   0.80273   0.47440   0.00000  Uiso   1.00
H2171  H     0.53888   0.90610   0.37087   0.00000  Uiso   1.00
H2172  H     0.57126   0.91975   0.40761   0.00000  Uiso   1.00
H2173  H     0.55213   0.87449   0.40872   0.00000  Uiso   1.00
H2174  H     0.78454   0.86058   0.77854   0.00000  Uiso   1.00
H2175  H     0.80042   0.81613   0.76258   0.00000  Uiso   1.00
H2176  H     0.73430   0.85728   0.72951   0.00000  Uiso   1.00
H2177  H     0.74995   0.81289   0.71468   0.00000  Uiso   1.00
H2178  H     0.73827   0.78866   0.78124   0.00000  Uiso   1.00
H2179  H     0.69780   0.80939   0.76151   0.00000  Uiso   1.00
H2180  H     0.72423   0.83338   0.79748   0.00000  Uiso   1.00
H2181  H     0.69727   0.52484   0.52560   0.00000  Uiso   1.00
H2182  H     0.71316   0.62161   0.33984   0.00000  Uiso   1.00
H2183  H     0.66874   0.60361   0.33242   0.00000  Uiso   1.00
H2184  H     0.68494   0.68548   0.34643   0.00000  Uiso   1.00
H2185  H     0.64100   0.66351   0.34639   0.00000  Uiso   1.00
H2186  H     0.65904   0.62632   0.40414   0.00000  Uiso   1.00
H2187  H     0.66182   0.67455   0.41363   0.00000  Uiso   1.00
H2188  H     0.70288   0.64899   0.40490   0.00000  Uiso   1.00
H2189  H     0.62611   0.77694   0.67430   0.00000  Uiso   1.00
H2190  H     0.64791   0.79250   0.71747   0.00000  Uiso   1.00
H2191  H     0.66849   0.81659   0.63371   0.00000  Uiso   1.00
H2192  H     0.70001   0.96990   0.47479   0.00000  Uiso   1.00
H2193  H     0.69283   0.82737   0.67779   0.00000  Uiso   1.00
H2194  H     0.70416   0.76040   0.68876   0.00000  Uiso   1.00
H2195  H     0.72363   0.77744   0.64408   0.00000  Uiso   1.00
H2196  H     0.68219   0.75117   0.64254   0.00000  Uiso   1.00
H2197  H     0.93101   0.66984   0.35644   0.00000  Uiso   1.00
H2198  H     0.94084   0.63925   0.31760   0.00000  Uiso   1.00
H2199  H     0.88411   0.62566   0.38296   0.00000  Uiso   1.00
H2200  H     0.89712   0.59368   0.34565   0.00000  Uiso   1.00
H2201  H     0.96111   0.59389   0.37088   0.00000  Uiso   1.00
H2202  H     0.92874   0.58025   0.40762   0.00000  Uiso   1.00
H2203  H     0.62389   0.97306   0.17430   0.00000  Uiso   1.00
H2204  H     0.94787   0.62551   0.40872   0.00000  Uiso   1.00
H2205  H     0.71546   0.63942   0.77854   0.00000  Uiso   1.00
H2206  H     0.69958   0.68387   0.76258   0.00000  Uiso   1.00
H2207  H     0.76570   0.64273   0.72950   0.00000  Uiso   1.00
H2208  H     0.75005   0.68711   0.71468   0.00000  Uiso   1.00
H2209  H     0.76172   0.71134   0.78125   0.00000  Uiso   1.00
H2210  H     0.80220   0.69062   0.76150   0.00000  Uiso   1.00
H2211  H     0.77578   0.66662   0.79747   0.00000  Uiso   1.00
H2212  H     0.78684   0.87839   0.33984   0.00000  Uiso   1.00
H2213  H     0.83126   0.89639   0.33242   0.00000  Uiso   1.00
H2214  H     0.60209   0.95750   0.21747   0.00000  Uiso   1.00
H2215  H     0.81507   0.81452   0.34644   0.00000  Uiso   1.00
H2216  H     0.85901   0.83650   0.34639   0.00000  Uiso   1.00
H2217  H     0.84096   0.87369   0.40414   0.00000  Uiso   1.00
H2218  H     0.83818   0.82546   0.41363   0.00000  Uiso   1.00
H2219  H     0.79712   0.85101   0.40490   0.00000  Uiso   1.00
H2220  H     0.86059   0.78454   0.22147   0.00000  Uiso   1.00
H2221  H     0.81613   0.80042   0.23742   0.00000  Uiso   1.00
H2222  H     0.85728   0.73431   0.27050   0.00000  Uiso   1.00
H2223  H     0.81289   0.74995   0.28532   0.00000  Uiso   1.00
H2224  H     0.78867   0.73827   0.21876   0.00000  Uiso   1.00
H2225  H     0.58151   0.93341   0.13372   0.00000  Uiso   1.00
H2226  H     0.80940   0.69779   0.23850   0.00000  Uiso   1.00
H2227  H     0.83339   0.72423   0.20253   0.00000  Uiso   1.00
H2228  H     0.62161   0.71316   0.66016   0.00000  Uiso   1.00
H2229  H     0.60361   0.66874   0.66758   0.00000  Uiso   1.00
H2230  H     0.68548   0.68493   0.65357   0.00000  Uiso   1.00
H2231  H     0.66351   0.64100   0.65361   0.00000  Uiso   1.00
H2232  H     0.62631   0.65904   0.59586   0.00000  Uiso   1.00
H2233  H     0.67454   0.66182   0.58637   0.00000  Uiso   1.00
H2234  H     0.64899   0.70288   0.59510   0.00000  Uiso   1.00
H2235  H     0.77694   0.62611   0.32570   0.00000  Uiso   1.00
H2236  H     0.77484   0.94727   0.97440   0.00000  Uiso   1.00
H2237  H     0.55716   0.92263   0.17780   0.00000  Uiso   1.00
H2238  H     0.79250   0.64791   0.28253   0.00000  Uiso   1.00
H2239  H     0.81660   0.66849   0.36629   0.00000  Uiso   1.00
H2240  H     0.82737   0.69283   0.32221   0.00000  Uiso   1.00
H2241  H     0.76040   0.70416   0.31124   0.00000  Uiso   1.00
H2242  H     0.77744   0.72363   0.35592   0.00000  Uiso   1.00
H2243  H     0.75117   0.68219   0.35746   0.00000  Uiso   1.00
H2244  H     0.66984   0.93100   0.64355   0.00000  Uiso   1.00
H2245  H     0.63925   0.94084   0.68240   0.00000  Uiso   1.00
H2246  H     0.62566   0.88411   0.61704   0.00000  Uiso   1.00
H2247  H     0.59368   0.89712   0.65435   0.00000  Uiso   1.00
H2248  H     0.54584   0.98961   0.18876   0.00000  Uiso   1.00
H2249  H     0.59389   0.96111   0.62912   0.00000  Uiso   1.00
H2250  H     0.58025   0.92874   0.59237   0.00000  Uiso   1.00
H2251  H     0.62551   0.94787   0.59128   0.00000  Uiso   1.00
H2252  H     0.63941   0.71546   0.22146   0.00000  Uiso   1.00
H2253  H     0.68387   0.69958   0.23742   0.00000  Uiso   1.00
H2254  H     0.64273   0.76570   0.27049   0.00000  Uiso   1.00
H2255  H     0.68711   0.75005   0.28531   0.00000  Uiso   1.00
H2256  H     0.71133   0.76173   0.21875   0.00000  Uiso   1.00
H2257  H     0.69061   0.80220   0.23849   0.00000  Uiso   1.00
H2258  H     0.66661   0.77577   0.20252   0.00000  Uiso   1.00
H2259  H     0.52637   0.97256   0.14409   0.00000  Uiso   1.00
H2260  H     0.87839   0.78684   0.66016   0.00000  Uiso   1.00
H2261  H     0.89639   0.83126   0.66758   0.00000  Uiso   1.00
H2262  H     0.81452   0.81506   0.65357   0.00000  Uiso   1.00
H2263  H     0.83649   0.85900   0.65361   0.00000  Uiso   1.00
H2264  H     0.87369   0.84096   0.59586   0.00000  Uiso   1.00
H2265  H     0.82546   0.83818   0.58637   0.00000  Uiso   1.00
H2266  H     0.85101   0.79712   0.59510   0.00000  Uiso   1.00
H2267  H     0.72306   0.87389   0.32570   0.00000  Uiso   1.00
H2268  H     0.70750   0.85209   0.28253   0.00000  Uiso   1.00
H2269  H     0.68341   0.83151   0.36628   0.00000  Uiso   1.00
H2270  H     0.56782   0.99883   0.14254   0.00000  Uiso   1.00
H2271  H     0.67263   0.80716   0.32220   0.00000  Uiso   1.00
H2272  H     0.73961   0.79584   0.31124   0.00000  Uiso   1.00
H2273  H     0.72256   0.77637   0.35592   0.00000  Uiso   1.00
H2274  H     0.74883   0.81781   0.35746   0.00000  Uiso   1.00
H2275  H     0.83016   0.56899   0.64355   0.00000  Uiso   1.00
H2276  H     0.86075   0.55916   0.68240   0.00000  Uiso   1.00
H2277  H     0.87434   0.61589   0.61704   0.00000  Uiso   1.00
H2278  H     0.90632   0.60288   0.65435   0.00000  Uiso   1.00
H2279  H     0.90611   0.53889   0.62912   0.00000  Uiso   1.00
H2280  H     0.91975   0.57127   0.59237   0.00000  Uiso   1.00
H2281  H     0.81900   0.58016   0.85645   0.00000  Uiso   1.00
H2282  H     0.87449   0.55213   0.59128   0.00000  Uiso   1.00
H2283  H     0.71698   0.90644   0.16064   0.00000  Uiso   1.00
H2284  H     0.76883   0.89958   0.84230   0.00000  Uiso   1.00
H2285  H     0.60042   0.73117   0.15770   0.00000  Uiso   1.00
H2286  H     0.59356   0.78302   0.83936   0.00000  Uiso   1.00
H2287  H     0.78302   0.59356   0.16064   0.00000  Uiso   1.00
H2288  H     0.73117   0.60042   0.84230   0.00000  Uiso   1.00
H2289  H     0.89958   0.76883   0.15770   0.00000  Uiso   1.00
H2290  H     0.90645   0.71698   0.83936   0.00000  Uiso   1.00
H2291  H     0.96698   0.65645   0.66064   0.00000  Uiso   1.00
H2292  H     0.80916   0.61075   0.81760   0.00000  Uiso   1.00
H2293  H     0.51883   0.64958   0.34230   0.00000  Uiso   1.00
H2294  H     0.85042   0.98117   0.65770   0.00000  Uiso   1.00
H2295  H     0.84356   0.53302   0.33936   0.00000  Uiso   1.00
H2296  H     0.53302   0.84355   0.66064   0.00000  Uiso   1.00
H2297  H     0.98117   0.85042   0.34231   0.00000  Uiso   1.00
H2298  H     0.64958   0.51883   0.65770   0.00000  Uiso   1.00
H2299  H     0.65644   0.96698   0.33936   0.00000  Uiso   1.00
H2300  H     0.86589   0.62434   0.88296   0.00000  Uiso   1.00
H2301  H     0.85288   0.65632   0.84565   0.00000  Uiso   1.00
H2302  H     0.78889   0.65611   0.87088   0.00000  Uiso   1.00
H2303  H     0.82126   0.66975   0.90762   0.00000  Uiso   1.00
H2304  H     0.55273   0.72516   0.02560   0.00000  Uiso   1.00
H2305  H     0.80213   0.62449   0.90872   0.00000  Uiso   1.00
H2306  H     0.53454   0.61058   0.27854   0.00000  Uiso   1.00
H2307  H     0.55042   0.56613   0.26258   0.00000  Uiso   1.00
H2308  H     0.98431   0.60728   0.22951   0.00000  Uiso   1.00
H2309  H     0.99995   0.56289   0.21468   0.00000  Uiso   1.00
H2310  H     0.98827   0.53866   0.28124   0.00000  Uiso   1.00
H2311  H     0.94780   0.55939   0.26150   0.00000  Uiso   1.00
H2312  H     0.97423   0.58338   0.29748   0.00000  Uiso   1.00
H2313  H     0.96316   0.87161   0.83984   0.00000  Uiso   1.00
H2314  H     0.91874   0.85361   0.83242   0.00000  Uiso   1.00
H2315  H     0.54999   0.78010   0.97480   0.00000  Uiso   1.00
H2316  H     0.93493   0.93548   0.84643   0.00000  Uiso   1.00
H2317  H     0.89100   0.91351   0.84639   0.00000  Uiso   1.00
H2318  H     0.90904   0.87631   0.90414   0.00000  Uiso   1.00
H2319  H     0.91182   0.92454   0.91363   0.00000  Uiso   1.00
H2320  H     0.95288   0.89899   0.90490   0.00000  Uiso   1.00
H2321  H     0.87611   0.52694   0.17430   0.00000  Uiso   1.00
H2322  H     0.89791   0.54250   0.21747   0.00000  Uiso   1.00
H2323  H     0.91849   0.56660   0.13371   0.00000  Uiso   1.00
H2324  H     0.94283   0.57737   0.17779   0.00000  Uiso   1.00
H2325  H     0.95416   0.51040   0.18876   0.00000  Uiso   1.00
H2326  H     0.78010   0.54999   0.02520   0.00000  Uiso   1.00
H2327  H     0.97363   0.52744   0.14408   0.00000  Uiso   1.00
H2328  H     0.93219   0.50117   0.14254   0.00000  Uiso   1.00
H2329  H     0.68101   0.91984   0.85644   0.00000  Uiso   1.00
H2330  H     0.69084   0.88925   0.81760   0.00000  Uiso   1.00
H2331  H     0.63411   0.87566   0.88296   0.00000  Uiso   1.00
H2332  H     0.64712   0.84368   0.84565   0.00000  Uiso   1.00
H2333  H     0.71111   0.84389   0.87088   0.00000  Uiso   1.00
H2334  H     0.67874   0.83025   0.90762   0.00000  Uiso   1.00
H2335  H     0.69787   0.87551   0.90872   0.00000  Uiso   1.00
H2336  H     0.96549   0.88938   0.27852   0.00000  Uiso   1.00
H2337  H     0.72516   0.55273   0.97440   0.00000  Uiso   1.00
H2338  H     0.94957   0.93384   0.26262   0.00000  Uiso   1.00
H2339  H     0.51570   0.89277   0.22946   0.00000  Uiso   1.00
H2340  H     0.50001   0.93716   0.21470   0.00000  Uiso   1.00
H2341  H     0.51168   0.96131   0.28130   0.00000  Uiso   1.00
H2342  H     0.55218   0.94069   0.26148   0.00000  Uiso   1.00
H2343  H     0.52582   0.91660   0.29744   0.00000  Uiso   1.00
H2344  H     0.53684   0.62839   0.83984   0.00000  Uiso   1.00
H2345  H     0.58126   0.64639   0.83242   0.00000  Uiso   1.00
H2346  H     0.56507   0.56452   0.84643   0.00000  Uiso   1.00
H2347  H     0.60900   0.58649   0.84639   0.00000  Uiso   1.00
H2348  H     0.94727   0.77484   0.02560   0.00000  Uiso   1.00
H2349  H     0.59096   0.62369   0.90414   0.00000  Uiso   1.00
H2350  H     0.58818   0.57546   0.91363   0.00000  Uiso   1.00
H2351  H     0.54712   0.60101   0.90490   0.00000  Uiso   1.00
H2352  H     0.61058   0.53454   0.72146   0.00000  Uiso   1.00
H2353  H     0.56613   0.55042   0.73742   0.00000  Uiso   1.00
H2354  H     0.60728   0.98430   0.77049   0.00000  Uiso   1.00
H2355  H     0.56289   0.99995   0.78532   0.00000  Uiso   1.00
H2356  H     0.53867   0.98827   0.71876   0.00000  Uiso   1.00
H2357  H     0.55939   0.94779   0.73849   0.00000  Uiso   1.00
H2358  H     0.58338   0.97423   0.70252   0.00000  Uiso   1.00
H2359  H     0.95001   0.71990   0.97480   0.00000  Uiso   1.00
H2360  H     0.87161   0.96316   0.16016   0.00000  Uiso   1.00
H2361  H     0.85361   0.91874   0.16758   0.00000  Uiso   1.00
H2362  H     0.93548   0.93494   0.15357   0.00000  Uiso   1.00
H2363  H     0.91351   0.89100   0.15361   0.00000  Uiso   1.00
H2364  H     0.87631   0.90904   0.09586   0.00000  Uiso   1.00
H2365  H     0.92454   0.91182   0.08637   0.00000  Uiso   1.00
H2366  H     0.89899   0.95288   0.09510   0.00000  Uiso   1.00
H2367  H     0.52694   0.87611   0.82570   0.00000  Uiso   1.00
H2368  H     0.54250   0.89791   0.78253   0.00000  Uiso   1.00
H2369  H     0.56660   0.91849   0.86629   0.00000  Uiso   1.00
H2370  H     0.96990   0.70001   0.52520   0.00000  Uiso   1.00
H2371  H     0.57737   0.94283   0.82221   0.00000  Uiso   1.00
H2372  H     0.51040   0.95416   0.81124   0.00000  Uiso   1.00
H2373  H     0.52744   0.97363   0.85592   0.00000  Uiso   1.00
H2374  H     0.50117   0.93219   0.85746   0.00000  Uiso   1.00
H2375  H     0.91984   0.68100   0.14355   0.00000  Uiso   1.00
H2376  H     0.88925   0.69084   0.18240   0.00000  Uiso   1.00
H2377  H     0.87566   0.63411   0.11704   0.00000  Uiso   1.00
H2378  H     0.84368   0.64712   0.15435   0.00000  Uiso   1.00
H2379  H     0.84389   0.71111   0.12912   0.00000  Uiso   1.00
H2380  H     0.83025   0.67874   0.09238   0.00000  Uiso   1.00
O2381  O     0.75000   0.50000   0.25000   0.00000  Uiso   1.00
O2382  O     0.75000   0.96964   0.66317   0.00000  Uiso   1.00
O2383  O     0.68012   0.55986   0.87939   0.00000  Uiso   1.00
O2384  O     0.71589   0.60074   0.92084   0.00000  Uiso   1.00
O2385  O     0.74399   0.58000   0.85513   0.00000  Uiso   1.00
O2386  O     0.94014   0.81988   0.12061   0.00000  Uiso   1.00
O2387  O     0.89926   0.78411   0.07916   0.00000  Uiso   1.00
O2388  O     0.92001   0.75601   0.14487   0.00000  Uiso   1.00
O2389  O     0.94690   0.67342   0.88242   0.00000  Uiso   1.00
O2390  O     0.90255   0.70717   0.92132   0.00000  Uiso   1.00
O2391  O     0.92168   0.73415   0.85452   0.00000  Uiso   1.00
O2392  O     0.92342   0.69690   0.61758   0.00000  Uiso   1.00
O2393  O     0.96964   0.75000   0.33683   0.00000  Uiso   1.00
O2394  O     0.95717   0.65255   0.57868   0.00000  Uiso   1.00
O2395  O     0.98415   0.67168   0.64547   0.00000  Uiso   1.00
O2396  O     0.56988   0.69014   0.37939   0.00000  Uiso   1.00
O2397  O     0.53411   0.64926   0.42084   0.00000  Uiso   1.00
O2398  O     0.50601   0.67001   0.35513   0.00000  Uiso   1.00
O2399  O     0.80986   0.93012   0.62061   0.00000  Uiso   1.00
O2400  O     0.85074   0.96589   0.57916   0.00000  Uiso   1.00
O2401  O     0.83000   0.99398   0.64487   0.00000  Uiso   1.00
O2402  O     0.80310   0.57658   0.38242   0.00000  Uiso   1.00
O2403  O     0.84745   0.54283   0.42132   0.00000  Uiso   1.00
O2404  O     0.53036   0.75000   0.66317   0.00000  Uiso   1.00
O2405  O     0.82832   0.51585   0.35452   0.00000  Uiso   1.00
O2406  O     0.57658   0.80310   0.61758   0.00000  Uiso   1.00
O2407  O     0.54284   0.84745   0.57868   0.00000  Uiso   1.00
O2408  O     0.51585   0.82832   0.64547   0.00000  Uiso   1.00
O2409  O     0.93012   0.80986   0.37939   0.00000  Uiso   1.00
O2410  O     0.96589   0.85074   0.42084   0.00000  Uiso   1.00
O2411  O     0.99399   0.83000   0.35514   0.00000  Uiso   1.00
O2412  O     0.69014   0.56988   0.62061   0.00000  Uiso   1.00
O2413  O     0.64926   0.53411   0.57916   0.00000  Uiso   1.00
O2414  O     0.67001   0.50602   0.64487   0.00000  Uiso   1.00
O2415  O     0.50000   0.71964   0.83683   0.00000  Uiso   1.00
O2416  O     0.69690   0.92342   0.38241   0.00000  Uiso   1.00
O2417  O     0.65255   0.95716   0.42132   0.00000  Uiso   1.00
O2418  O     0.67168   0.98415   0.35452   0.00000  Uiso   1.00
O2419  O     0.50000   0.78036   0.16317   0.00000  Uiso   1.00
O2420  O     0.78036   0.50000   0.83683   0.00000  Uiso   1.00
O2421  O     0.71964   0.50000   0.16317   0.00000  Uiso   1.00
O2422  O     0.50000   0.78036   0.83683   0.00000  Uiso   1.00
O2423  O     0.50000   0.71964   0.16317   0.00000  Uiso   1.00
O2424  O     0.71964   0.50000   0.83683   0.00000  Uiso   1.00
O2425  O     0.75000   0.50000   0.75000   0.00000  Uiso   1.00
O2426  O     0.78036   0.50000   0.16317   0.00000  Uiso   1.00
O2427  O     0.70726   0.57307   0.27282   0.00000  Uiso   1.00
O2428  O     0.79275   0.92693   0.72718   0.00000  Uiso   1.00
O2429  O     0.92693   0.70726   0.27282   0.00000  Uiso   1.00
O2430  O     0.57307   0.79274   0.72718   0.00000  Uiso   1.00
O2431  O     0.79275   0.92693   0.27282   0.00000  Uiso   1.00
O2432  O     0.70726   0.57307   0.72718   0.00000  Uiso   1.00
O2433  O     0.57307   0.79274   0.27282   0.00000  Uiso   1.00
O2434  O     0.92693   0.70726   0.72718   0.00000  Uiso   1.00
O2435  O     0.70726   0.92693   0.72718   0.00000  Uiso   1.00
O2436  O     0.50000   0.75000   0.25000   0.00000  Uiso   1.00
O2437  O     0.79275   0.57307   0.27282   0.00000  Uiso   1.00
O2438  O     0.92693   0.79275   0.72718   0.00000  Uiso   1.00
O2439  O     0.57307   0.70725   0.27282   0.00000  Uiso   1.00
O2440  O     0.79275   0.57307   0.72718   0.00000  Uiso   1.00
O2441  O     0.70726   0.92693   0.27282   0.00000  Uiso   1.00
O2442  O     0.57307   0.70725   0.72718   0.00000  Uiso   1.00
O2443  O     0.92693   0.79275   0.27282   0.00000  Uiso   1.00
O2444  O     0.95726   0.82307   0.77282   0.00000  Uiso   1.00
O2445  O     0.54275   0.67693   0.22718   0.00000  Uiso   1.00
O2446  O     0.67693   0.95725   0.77282   0.00000  Uiso   1.00
O2447  O     0.50000   0.75000   0.75000   0.00000  Uiso   1.00
O2448  O     0.82307   0.54275   0.22718   0.00000  Uiso   1.00
O2449  O     0.54275   0.67693   0.77282   0.00000  Uiso   1.00
O2450  O     0.95726   0.82307   0.22718   0.00000  Uiso   1.00
O2451  O     0.82307   0.54275   0.77282   0.00000  Uiso   1.00
O2452  O     0.67693   0.95725   0.22718   0.00000  Uiso   1.00
O2453  O     0.95726   0.67693   0.22718   0.00000  Uiso   1.00
O2454  O     0.54275   0.82307   0.77282   0.00000  Uiso   1.00
O2455  O     0.67693   0.54275   0.22718   0.00000  Uiso   1.00
O2456  O     0.82307   0.95725   0.77282   0.00000  Uiso   1.00
O2457  O     0.54275   0.82307   0.22718   0.00000  Uiso   1.00
O2458  O     0.75000   0.96964   0.33683   0.00000  Uiso   1.00
O2459  O     0.95726   0.67693   0.77282   0.00000  Uiso   1.00
O2460  O     0.82307   0.95725   0.22718   0.00000  Uiso   1.00
O2461  O     0.67693   0.54275   0.77282   0.00000  Uiso   1.00
O2462  O     0.63251   0.91901   0.18446   0.00000  Uiso   1.00
O2463  O     0.86125   0.58610   0.81839   0.00000  Uiso   1.00
O2464  O     0.55564   0.60823   0.22225   0.00000  Uiso   1.00
O2465  O     0.93990   0.88903   0.78908   0.00000  Uiso   1.00
O2466  O     0.86749   0.58099   0.18446   0.00000  Uiso   1.00
O2467  O     0.63875   0.91390   0.81839   0.00000  Uiso   1.00
O2468  O     0.94436   0.89177   0.22225   0.00000  Uiso   1.00
O2469  O     0.75000   0.53036   0.66317   0.00000  Uiso   1.00
O2470  O     0.56010   0.61097   0.78908   0.00000  Uiso   1.00
O2471  O     0.60823   0.55564   0.77775   0.00000  Uiso   1.00
O2472  O     0.88903   0.93990   0.21092   0.00000  Uiso   1.00
O2473  O     0.58099   0.86749   0.81554   0.00000  Uiso   1.00
O2474  O     0.91390   0.63875   0.18161   0.00000  Uiso   1.00
O2475  O     0.89177   0.94436   0.77775   0.00000  Uiso   1.00
O2476  O     0.61097   0.56010   0.21091   0.00000  Uiso   1.00
O2477  O     0.91901   0.63251   0.81554   0.00000  Uiso   1.00
O2478  O     0.58610   0.86125   0.18161   0.00000  Uiso   1.00
O2479  O     0.88251   0.66901   0.68446   0.00000  Uiso   1.00
O2480  O     0.53036   0.75000   0.33683   0.00000  Uiso   1.00
O2481  O     0.61125   0.83610   0.31839   0.00000  Uiso   1.00
O2482  O     0.80564   0.85823   0.72225   0.00000  Uiso   1.00
O2483  O     0.68990   0.63903   0.28908   0.00000  Uiso   1.00
O2484  O     0.61749   0.83099   0.68446   0.00000  Uiso   1.00
O2485  O     0.88875   0.66390   0.31839   0.00000  Uiso   1.00
O2486  O     0.69436   0.64177   0.72225   0.00000  Uiso   1.00
O2487  O     0.81010   0.86097   0.28909   0.00000  Uiso   1.00
O2488  O     0.85823   0.80564   0.27775   0.00000  Uiso   1.00
O2489  O     0.63903   0.68990   0.71091   0.00000  Uiso   1.00
O2490  O     0.83099   0.61749   0.31554   0.00000  Uiso   1.00
O2491  O     0.96964   0.75000   0.66317   0.00000  Uiso   1.00
O2492  O     0.66390   0.88875   0.68161   0.00000  Uiso   1.00
O2493  O     0.64177   0.69436   0.27774   0.00000  Uiso   1.00
O2494  O     0.86097   0.81010   0.71091   0.00000  Uiso   1.00
O2495  O     0.66901   0.88251   0.31554   0.00000  Uiso   1.00
O2496  O     0.83610   0.61125   0.68161   0.00000  Uiso   1.00
O2497  O     0.67342   0.94690   0.11758   0.00000  Uiso   1.00
O2498  O     0.70717   0.90255   0.07868   0.00000  Uiso   1.00
O2499  O     0.73415   0.92168   0.14547   0.00000  Uiso   1.00
O2500  O     0.81988   0.94014   0.87939   0.00000  Uiso   1.00
O2501  O     0.78411   0.89926   0.92084   0.00000  Uiso   1.00
O2502  O     0.75000   0.53036   0.33683   0.00000  Uiso   1.00
O2503  O     0.75601   0.92000   0.85513   0.00000  Uiso   1.00
O2504  O     0.55986   0.68012   0.12061   0.00000  Uiso   1.00
O2505  O     0.60074   0.71589   0.07916   0.00000  Uiso   1.00
O2506  O     0.58000   0.74399   0.14486   0.00000  Uiso   1.00
O2507  O     0.55310   0.82658   0.88242   0.00000  Uiso   1.00
O2508  O     0.59745   0.79284   0.92132   0.00000  Uiso   1.00
O2509  O     0.57832   0.76585   0.85452   0.00000  Uiso   1.00
O2510  O     0.82658   0.55310   0.11758   0.00000  Uiso   1.00
O2511  O     0.79283   0.59745   0.07868   0.00000  Uiso   1.00
O2512  O     0.76585   0.57832   0.14547   0.00000  Uiso   1.00
S2513  S     0.71074   0.93453   0.10571   0.00000  Uiso   1.00
S2514  S     0.53221   0.68114   0.39350   0.00000  Uiso   1.00
S2515  S     0.81886   0.96779   0.60650   0.00000  Uiso   1.00
S2516  S     0.81547   0.53926   0.39429   0.00000  Uiso   1.00
S2517  S     0.53926   0.81546   0.60571   0.00000  Uiso   1.00
S2518  S     0.96780   0.81886   0.39350   0.00000  Uiso   1.00
S2519  S     0.68114   0.53221   0.60650   0.00000  Uiso   1.00
S2520  S     0.68454   0.96073   0.39429   0.00000  Uiso   1.00
S2521  S     0.78221   0.93114   0.89350   0.00000  Uiso   1.00
S2522  S     0.56886   0.71780   0.10650   0.00000  Uiso   1.00
S2523  S     0.56546   0.78926   0.89429   0.00000  Uiso   1.00
S2524  S     0.78926   0.56547   0.10571   0.00000  Uiso   1.00
S2525  S     0.71779   0.56886   0.89350   0.00000  Uiso   1.00
S2526  S     0.93114   0.78220   0.10650   0.00000  Uiso   1.00
S2527  S     0.93454   0.71074   0.89429   0.00000  Uiso   1.00
S2528  S     0.96074   0.68454   0.60571   0.00000  Uiso   1.00
Zn2529 Zn    0.70660   0.50000   0.21760   0.00000  Uiso   1.00
Zn2530 Zn    0.54340   0.75000   0.28240   0.00000  Uiso   1.00
Zn2531 Zn    0.75000   0.95660   0.71760   0.00000  Uiso   1.00
Zn2532 Zn    0.75000   0.54340   0.28240   0.00000  Uiso   1.00
Zn2533 Zn    0.54340   0.75000   0.71760   0.00000  Uiso   1.00
Zn2534 Zn    0.95660   0.75000   0.28240   0.00000  Uiso   1.00
Zn2535 Zn    0.75000   0.54340   0.71760   0.00000  Uiso   1.00
Zn2536 Zn    0.75000   0.95660   0.28240   0.00000  Uiso   1.00
Zn2537 Zn    0.79340   0.50000   0.78240   0.00000  Uiso   1.00
Zn2538 Zn    0.50000   0.70660   0.21760   0.00000  Uiso   1.00
Zn2539 Zn    0.50000   0.79340   0.78240   0.00000  Uiso   1.00
Zn2540 Zn    0.79340   0.50000   0.21760   0.00000  Uiso   1.00
Zn2541 Zn    0.70660   0.50000   0.78240   0.00000  Uiso   1.00
Zn2542 Zn    0.50000   0.79340   0.21760   0.00000  Uiso   1.00
Zn2543 Zn    0.50000   0.70660   0.78240   0.00000  Uiso   1.00
Zn2544 Zn    0.95660   0.75000   0.71760   0.00000  Uiso   1.00
loop_
_geom_bond_atom_site_label_1
_geom_bond_atom_site_label_2
_geom_bond_distance
_geom_bond_site_symmetry_2
_ccdc_geom_bond_type
C1     C79     1.395   .     A
C1     C1416   1.396   .     A
C1     H217    1.083   .     S
C2     H218    1.083   .     S
C2     C149    1.397   .     A
C2     C136    1.395   .     A
C3     C192    1.406   .     A
C3     C199    1.406   .     A
C3     C163    1.455   .     S
C4     C191    1.408   .     A
C4     C202    1.408   .     A
C4     C164    1.452   .     S
C5     C201    1.414   .     A
C5     C190    1.414   .     A
C5     C165    1.463   .     S
C6     C189    1.416   .     A
C6     C166    1.465   .     S
C6     C204    1.416   .     A
C7     C203    1.406   .     A
C7     C167    1.455   .     S
C7     C188    1.406   .     A
C8     C207    1.416   .     A
C8     C177    1.465   .     S
C8     C187    1.416   .     A
C9     C186    1.406   .     A
C9     C178    1.455   .     S
C9     C205    1.406   .     A
C10    C185    1.408   .     A
C10    C170    1.452   .     S
C10    C209    1.408   .     A
C11    C171    1.463   .     S
C11    C183    1.414   .     A
C11    C208    1.414   .     A
C12    C172    1.465   .     S
C12    C182    1.416   .     A
C12    C211    1.416   .     A
C13    H229    1.083   .     S
C13    C1422   1.397   .     A
C13    C137    1.394   .     A
C14    C181    1.406   .     A
C14    C174    1.455   .     S
C14    C210    1.406   .     A
C15    C213    1.408   .     A
C15    C180    1.408   .     A
C15    C175    1.452   .     S
C16    C179    1.414   .     A
C16    C176    1.463   .     S
C16    C212    1.414   .     A
C17    C160    1.457   .     S
C17    C1351   1.416   1_545 A
C17    C124    1.416   .     S
C18    C159    1.452   .     S
C18    C1362   1.414   1_545 A
C18    C132    1.414   .     S
C19    C769    1.414   1_455 A
C19    C101    1.414   .     S
C19    C158    1.452   .     S
C20    C770    1.416   1_455 A
C20    C157    1.457   .     S
C20    C113    1.416   .     S
C21    C139    1.416   .     A
C21    C156    1.457   .     S
C21    C771    1.416   1_455 S
C22    C155    1.452   .     S
C22    C136    1.414   .     A
C22    C777    1.414   1_455 S
C23    C154    1.452   .     S
C23    C1409   1.414   1_545 A
C23    C142    1.414   .     S
C24    H240    1.083   .     S
C24    C138    1.395   .     A
C24    C152    1.396   .     S
C25    C1415   1.416   1_545 A
C25    C153    1.457   .     S
C25    C138    1.416   .     S
C26    H306    1.117   .     S
C26    C27     1.531   .     S
C26    O554    1.419   .     S
C26    H295    1.110   .     S
C27    H317    1.112   .     S
C27    C28     1.526   .     S
C27    H329    1.108   .     S
C28    H351    1.110   .     S
C28    H362    1.109   .     S
C28    H340    1.111   .     S
C29    C30     1.533   .     S
C29    H373    1.111   .     S
C29    H384    1.115   .     S
C29    O555    1.416   .     S
C30    H393    1.111   .     S
C30    C31     1.526   .     S
C30    H392    1.112   .     S
C31    H397    1.111   .     S
C31    H395    1.110   .     S
C31    H394    1.111   .     S
C32    H399    1.115   .     S
C32    O556    1.412   .     S
C32    H398    1.115   .     S
C32    C669    1.527   1_455 S
C33    H401    1.111   .     S
C33    C34     1.526   .     S
C33    H400    1.111   .     S
C33    C668    1.527   .     S
C34    H403    1.109   .     S
C34    H404    1.110   .     S
C34    H402    1.111   .     S
C35    C139    1.395   .     A
C35    C148    1.396   .     A
C35    H251    1.083   .     S
C36    H405    1.110   .     S
C36    C37     1.534   .     S
C36    H406    1.117   .     S
C36    O557    1.419   .     S
C37    C38     1.526   .     S
C37    H409    1.110   .     S
C37    H408    1.111   .     S
C38    H410    1.111   .     S
C38    H412    1.111   .     S
C38    H411    1.110   .     S
C39    C40     1.531   .     S
C39    H413    1.110   .     S
C39    O558    1.419   .     S
C39    H414    1.117   .     S
C40    H415    1.112   .     S
C40    H416    1.108   .     S
C40    C41     1.526   .     S
C41    H417    1.111   .     S
C41    H419    1.110   .     S
C41    H420    1.109   .     S
C42    H421    1.111   .     S
C42    O559    1.416   .     S
C42    C43     1.533   .     S
C42    H422    1.115   .     S
C43    C44     1.526   .     S
C43    H424    1.111   .     S
C43    H423    1.112   .     S
C44    H427    1.111   .     S
C44    H426    1.110   .     S
C44    H425    1.111   .     S
C45    H430    1.115   .     S
C45    O560    1.412   .     S
C45    H428    1.115   .     S
C45    C683    1.527   .     S
C46    C141    1.394   .     A
C46    H262    1.083   .     S
C46    C785    1.397   .     S
C47    C48     1.526   .     S
C47    H432    1.111   .     S
C47    H431    1.111   .     S
C47    C681    1.527   1_455 S
C48    H433    1.111   .     S
C48    H435    1.110   .     S
C48    H434    1.109   .     S
C49    H437    1.117   .     S
C49    C50     1.534   .     S
C49    H436    1.110   .     S
C49    O562    1.419   .     S
C50    H439    1.110   .     S
C50    C51     1.526   .     S
C50    H438    1.111   .     S
C51    H443    1.111   .     S
C51    H441    1.111   .     S
C51    H442    1.110   .     S
C52    O563    1.412   .     S
C52    H444    1.115   .     S
C52    H445    1.115   .     S
C52    C1325   1.527   1_545 S
C53    H447    1.111   .     S
C53    H446    1.111   .     S
C53    C54     1.526   .     S
C53    C1324   1.527   .     S
C54    H450    1.110   .     S
C54    H449    1.109   .     S
C54    H448    1.111   .     S
C55    C56     1.534   .     S
C55    H452    1.110   .     S
C55    H453    1.117   .     S
C55    O564    1.419   .     S
C56    H455    1.110   .     S
C56    C58     1.526   .     S
C56    H454    1.111   .     S
C57    C142    1.394   .     A
C57    H273    1.083   .     S
C57    C150    1.397   .     S
C58    H457    1.110   .     S
C58    H458    1.111   .     S
C58    H456    1.111   .     S
C59    C60     1.531   .     S
C59    H459    1.110   .     S
C59    O565    1.419   .     S
C59    H460    1.117   .     S
C60    H461    1.112   .     S
C60    H463    1.108   .     S
C60    C61     1.526   .     S
C61    H465    1.110   .     S
C61    H466    1.109   .     S
C61    H464    1.111   .     S
C62    H467    1.111   .     S
C62    O566    1.416   .     S
C62    C63     1.533   .     S
C62    H468    1.115   .     S
C63    H469    1.112   .     S
C63    C64     1.526   .     S
C63    H470    1.111   .     S
C64    H471    1.111   .     S
C64    H219    1.111   .     S
C64    H472    1.110   .     S
C65    H221    1.115   .     S
C65    H220    1.115   .     S
C65    O567    1.412   .     S
C65    C1338   1.527   .     S
C66    H222    1.111   .     S
C66    C67     1.526   .     S
C66    H223    1.111   .     S
C66    C1337   1.527   1_545 S
C67    H226    1.110   .     S
C67    H225    1.110   .     S
C67    H224    1.111   .     S
C68    C143    1.395   .     A
C68    H284    1.083   .     S
C68    C1424   1.396   .     A
C69    O568    1.419   .     S
C69    C70     1.534   .     S
C69    H228    1.117   .     S
C69    H227    1.110   .     S
C70    H231    1.110   .     S
C70    C71     1.526   .     S
C70    H230    1.111   .     S
C71    H234    1.111   .     S
C71    H233    1.110   .     S
C71    H232    1.111   .     S
C72    H236    1.117   .     S
C72    C73     1.531   .     S
C72    O569    1.419   .     S
C72    H235    1.110   .     S
C73    C74     1.526   .     S
C73    H238    1.108   .     S
C73    H237    1.112   .     S
C74    H242    1.109   .     S
C74    H239    1.111   .     S
C74    H241    1.110   .     S
C75    H244    1.115   .     S
C75    O570    1.416   .     S
C75    C76     1.533   .     S
C75    H243    1.111   .     S
C76    H245    1.112   .     S
C76    C77     1.526   .     S
C76    H246    1.111   .     S
C77    H247    1.111   .     S
C77    H249    1.111   .     S
C77    H248    1.110   .     S
C78    H252    1.117   .     S
C78    C80     1.531   .     S
C78    O571    1.419   .     S
C78    H250    1.110   .     S
C79    S605    1.774   .     S
C79    C1289   1.416   .     A
C80    H254    1.108   .     S
C80    H253    1.112   .     S
C80    C81     1.526   .     S
C81    H255    1.111   .     S
C81    H257    1.109   .     S
C81    H256    1.110   .     S
C82    H258    1.111   .     S
C82    C83     1.533   .     S
C82    H259    1.115   .     S
C82    O573    1.416   .     S
C83    H260    1.112   .     S
C83    C84     1.526   .     S
C83    H261    1.111   .     S
C84    H263    1.111   .     S
C84    H264    1.110   .     S
C84    H265    1.111   .     S
C85    H267    1.115   .     S
C85    O574    1.412   .     S
C85    C86     1.527   .     S
C85    H266    1.115   .     S
C86    H268    1.111   .     S
C86    H269    1.111   .     S
C86    C87     1.526   .     S
C87    H272    1.110   .     S
C87    H270    1.111   .     S
C87    H271    1.109   .     S
C88    C89     1.534   .     S
C88    H275    1.117   .     S
C88    O575    1.419   .     S
C88    H274    1.110   .     S
C89    C91     1.526   .     S
C89    H277    1.110   .     S
C89    H276    1.111   .     S
C90    S613    1.775   .     S
C90    C1290   1.414   .     A
C90    C112    1.395   .     A
C91    H278    1.111   .     S
C91    H279    1.110   .     S
C91    H280    1.111   .     S
C92    H282    1.117   .     S
C92    H281    1.110   .     S
C92    O576    1.419   .     S
C92    C93     1.531   .     S
C93    H285    1.108   .     S
C93    C94     1.526   .     S
C93    H283    1.112   .     S
C94    H287    1.110   .     S
C94    H288    1.109   .     S
C94    H286    1.111   .     S
C95    H290    1.115   .     S
C95    O577    1.416   .     S
C95    H289    1.111   .     S
C95    C96     1.533   .     S
C96    H292    1.111   .     S
C96    H291    1.112   .     S
C96    C97     1.526   .     S
C97    H294    1.110   .     S
C97    H296    1.111   .     S
C97    H293    1.111   .     S
C98    O578    1.412   .     S
C98    C99     1.527   .     S
C98    H297    1.115   .     S
C98    H298    1.115   .     S
C99    H299    1.111   .     S
C99    H300    1.111   .     S
C99    C100    1.526   .     S
C100   H303    1.110   .     S
C100   H301    1.111   .     S
C100   H302    1.109   .     S
C101   S614    1.775   .     S
C101   C140    1.394   .     A
C102   O579    1.419   .     S
C102   H305    1.117   .     S
C102   C103    1.534   .     S
C102   H304    1.110   .     S
C103   C104    1.526   .     S
C103   H308    1.110   .     S
C103   H307    1.111   .     S
C104   H311    1.111   .     S
C104   H310    1.110   .     S
C104   H309    1.111   .     S
C105   H312    1.115   .     S
C105   O580    1.412   .     S
C105   H313    1.115   .     S
C105   C106    1.527   .     S
C106   C107    1.526   .     S
C106   H315    1.111   .     S
C106   H314    1.111   .     S
C107   H318    1.109   .     S
C107   H316    1.111   .     S
C107   H319    1.110   .     S
C108   C109    1.534   .     S
C108   H321    1.117   .     S
C108   H320    1.110   .     S
C108   O581    1.419   .     S
C109   H323    1.110   .     S
C109   H322    1.111   .     S
C109   C110    1.526   .     S
C110   H326    1.111   .     S
C110   H324    1.111   .     S
C110   H325    1.110   .     S
C111   H330    1.117   .     S
C111   O582    1.419   .     S
C111   C114    1.531   .     S
C111   H327    1.110   .     S
C112   H328    1.083   .     S
C112   C1417   1.397   .     A
C113   C151    1.395   .     A
C113   S615    1.774   .     S
C114   C115    1.526   .     S
C114   H332    1.108   .     S
C114   H331    1.112   .     S
C115   H333    1.111   .     S
C115   H335    1.109   .     S
C115   H334    1.110   .     S
C116   O584    1.416   .     S
C116   H337    1.115   .     S
C116   H336    1.111   .     S
C116   C117    1.533   .     S
C117   H339    1.111   .     S
C117   C118    1.526   .     S
C117   H338    1.112   .     S
C118   H342    1.110   .     S
C118   H343    1.111   .     S
C118   H341    1.111   .     S
C119   H345    1.115   .     S
C119   H344    1.115   .     S
C119   C120    1.527   .     S
C119   O585    1.412   .     S
C120   H347    1.111   .     S
C120   H346    1.111   .     S
C120   C121    1.526   .     S
C121   H350    1.110   .     S
C121   H348    1.111   .     S
C121   H349    1.109   .     S
C122   O586    1.419   .     S
C122   H352    1.110   .     S
C122   H353    1.117   .     S
C122   C123    1.534   .     S
C123   H355    1.110   .     S
C123   H354    1.111   .     S
C123   C125    1.526   .     S
C124   S616    1.775   .     S
C124   C162    1.395   .     A
C125   H358    1.111   .     S
C125   H357    1.110   .     S
C125   H356    1.111   .     S
C126   C127    1.531   .     S
C126   H360    1.117   .     S
C126   H359    1.110   .     S
C126   O587    1.419   .     S
C127   H363    1.108   .     S
C127   H361    1.112   .     S
C127   C128    1.526   .     S
C128   H364    1.111   .     S
C128   H365    1.110   .     S
C128   H366    1.109   .     S
C129   H368    1.115   .     S
C129   C130    1.533   .     S
C129   O588    1.416   .     S
C129   H367    1.111   .     S
C130   H370    1.111   .     S
C130   C131    1.526   .     S
C130   H369    1.112   .     S
C131   H372    1.110   .     S
C131   H371    1.111   .     S
C131   H374    1.111   .     S
C132   S617    1.775   .     S
C132   C173    1.394   .     A
C133   C655    1.414   .     A
C133   S618    1.775   .     S
C133   C184    1.394   .     A
C134   C656    1.416   .     A
C134   C195    1.395   .     A
C134   S619    1.775   .     S
C135   S620    1.774   .     S
C135   C206    1.395   .     A
C135   C657    1.416   .     S
C136   S606    1.775   .     S
C137   S607    1.775   .     S
C137   C1295   1.414   .     A
C138   S608    1.775   .     S
C139   S609    1.774   .     S
C140   H396    1.083   .     S
C140   C146    1.397   .     S
C141   S610    1.775   .     S
C141   C658    1.414   .     S
C142   S611    1.775   .     S
C143   C1297   1.416   .     A
C143   S612    1.775   .     S
C144   C1273   1.396   1_545 A
C144   C145    1.461   1_554 S
C144   C162    1.396   .     S
C145   C1384   1.397   1_545 A
C145   C144    1.461   1_556 S
C145   C173    1.397   .     S
C146   C820    1.397   1_455 A
C146   C147    1.461   1_554 S
C147   C831    1.396   1_455 A
C147   C146    1.461   1_556 S
C147   C151    1.396   .     S
C148   C149    1.461   .     S
C148   C842    1.396   1_455 S
C149   C682    1.397   1_455 S
C150   C1285   1.397   1_545 A
C150   C152    1.461   .     S
C151   H407    1.083   .     S
C152   C1340   1.396   1_545 A
C153   O1822   1.280   1_545 A
C153   O594    1.280   .     S
C154   O1746   1.279   1_545 A
C154   O561    1.279   .     S
C155   O572    1.279   .     A
C155   O1121   1.279   1_455 S
C156   O496    1.280   .     A
C156   O1219   1.280   1_455 S
C157   O507    1.280   .     S
C157   O514    1.280   .     S
C158   O511    1.279   .     A
C158   O515    1.279   .     S
C159   O512    1.279   .     S
C159   O516    1.279   .     S
C160   O513    1.280   .     S
C160   O518    1.280   .     S
C161   O519    1.280   .     A
C161   C216    1.465   .     S
C161   O547    1.280   .     A
C162   H418    1.083   .     S
C163   O548    1.277   .     A
C163   O520    1.277   .     A
C164   O545    1.277   .     A
C164   O521    1.277   .     A
C165   O546    1.280   .     A
C165   O522    1.280   .     A
C166   O523    1.280   .     A
C166   O552    1.280   .     A
C167   O524    1.277   .     A
C167   O553    1.277   .     A
C168   O525    1.277   .     A
C168   O549    1.277   .     A
C168   C214    1.452   .     S
C169   C215    1.463   .     S
C169   O551    1.280   .     A
C169   O526    1.280   .     A
C170   O527    1.277   .     A
C170   O538    1.277   .     A
C171   O529    1.280   .     A
C171   O540    1.280   .     A
C172   O536    1.280   .     A
C172   O530    1.280   .     A
C173   H429    1.083   .     S
C174   O531    1.277   .     A
C174   O537    1.277   .     A
C175   O543    1.277   .     A
C175   O532    1.277   .     A
C176   O533    1.280   .     A
C176   O544    1.280   .     A
C177   O541    1.280   .     A
C177   O534    1.280   .     A
C178   O535    1.277   .     A
C178   O542    1.277   .     A
C179   O554    1.385   .     S
C179   C196    1.391   .     A
C180   O555    1.386   .     S
C180   C194    1.391   .     A
C181   C193    1.392   .     A
C181   O556    1.383   .     S
C182   C192    1.392   .     A
C182   O557    1.385   .     S
C183   O558    1.385   .     S
C183   C191    1.391   .     A
C184   C782    1.397   .     A
C184   H440    1.083   .     S
C185   C190    1.391   .     A
C185   O559    1.386   .     S
C186   O560    1.383   .     S
C186   C189    1.392   .     A
C187   O562    1.385   .     S
C187   C188    1.392   .     A
C188   O563    1.383   .     S
C189   O564    1.385   .     S
C190   O565    1.385   .     S
C191   O566    1.386   .     S
C192   O567    1.383   .     S
C193   O568    1.385   .     S
C193   C216    1.416   .     A
C194   C215    1.414   .     A
C194   O569    1.385   .     S
C195   H451    1.083   .     S
C195   C783    1.396   .     A
C196   O570    1.386   .     S
C196   C214    1.408   .     A
C197   O571    1.385   .     S
C197   C213    1.391   .     A
C197   C215    1.414   .     A
C198   C214    1.408   .     A
C198   O573    1.386   .     S
C198   C212    1.391   .     A
C199   O574    1.383   .     S
C199   C211    1.392   .     A
C200   C216    1.416   .     A
C200   C210    1.392   .     A
C200   O575    1.385   .     S
C201   C209    1.391   .     A
C201   O576    1.385   .     S
C202   O577    1.386   .     S
C202   C208    1.391   .     A
C203   O578    1.383   .     S
C203   C207    1.392   .     A
C204   C205    1.392   .     A
C204   O579    1.385   .     S
C205   O580    1.383   .     S
C206   H462    1.083   .     S
C206   C784    1.396   .     S
C207   O581    1.385   .     S
C208   O582    1.385   .     S
C209   O584    1.386   .     S
C210   O585    1.383   .     S
C211   O586    1.385   .     S
C212   O587    1.385   .     S
C213   O588    1.386   .     S
H375   O591    0.991   .     S
H376   O595    0.991   .     S
H377   O598    0.991   .     S
H378   O601    0.991   .     S
H379   O604    0.991   .     S
H380   O477    0.991   .     S
H381   O480    0.991   .     S
H382   O483    0.991   .     S
H383   O487    0.991   .     S
H385   O490    0.991   .     S
H386   O493    0.991   .     S
H387   O497    0.991   .     S
H388   O500    0.991   .     S
H389   O503    0.990   .     S
H390   O506    0.990   .     S
H391   O510    0.991   .     S
O473   Zn632   1.945   .     S
O473   Zn624   1.945   .     S
O473   Zn621   1.945   .     S
O473   Zn1900  1.945   1_545 S
O474   C1426   1.279   .     A
O474   Zn623   1.930   .     S
O475   S617    1.503   .     D
O476   S617    1.503   .     D
O477   S617    1.682   .     S
O478   S618    1.503   .     D
O479   S618    1.503   .     D
O480   S618    1.682   .     S
O481   S619    1.502   .     D
O482   S619    1.503   .     D
O483   S619    1.683   .     S
O484   S620    1.502   .     D
O485   Zn626   1.930   .     S
O485   C791    1.279   .     S
O486   S620    1.503   .     D
O487   S620    1.683   .     S
O488   S606    1.503   .     D
O489   S606    1.503   .     D
O490   S606    1.682   .     S
O491   S607    1.503   .     D
O492   S607    1.503   .     D
O493   S607    1.682   .     S
O494   S608    1.502   .     D
O495   S608    1.503   .     D
O496   Zn625   1.930   .     S
O497   S608    1.683   .     S
O498   S609    1.502   .     D
O499   S609    1.503   .     D
O500   S609    1.683   .     S
O501   S610    1.503   .     D
O502   S610    1.503   .     D
O503   S610    1.682   .     S
O504   S611    1.503   .     D
O505   S611    1.503   .     D
O506   S611    1.682   .     S
O507   Zn635   1.930   .     S
O508   S612    1.502   .     D
O509   S612    1.503   .     D
O510   S612    1.683   .     S
O511   Zn634   1.930   .     S
O512   Zn629   1.930   .     S
O513   Zn621   1.930   .     S
O514   Zn631   1.930   .     S
O515   Zn630   1.930   .     S
O516   Zn633   1.930   .     S
O517   Zn627   1.945   .     S
O517   Zn1895  1.945   1_545 S
O517   Zn629   1.945   .     S
O517   Zn633   1.945   .     S
O518   Zn632   1.930   .     S
O519   Zn624   1.942   .     S
O520   Zn623   1.942   .     S
O521   Zn626   1.938   .     S
O522   Zn625   1.938   .     S
O523   Zn628   1.942   .     S
O524   Zn627   1.942   .     S
O525   Zn622   1.938   .     S
O526   Zn636   1.938   .     S
O527   Zn623   1.938   .     S
O528   Zn622   1.945   .     S
O528   Zn1262  1.945   1_455 S
O528   Zn630   1.945   .     S
O528   Zn634   1.945   .     S
O529   Zn624   1.938   .     S
O530   Zn636   1.942   .     S
O531   Zn622   1.942   .     S
O532   Zn627   1.938   .     S
O533   Zn628   1.938   .     S
O534   Zn625   1.942   .     S
O535   Zn626   1.942   .     S
O536   Zn1267  1.942   .     S
O537   Zn630   1.942   .     S
O538   Zn1905  1.938   .     S
O539   Zn635   1.945   .     S
O539   Zn1272  1.945   1_455 S
O539   Zn625   1.945   .     S
O539   Zn631   1.945   .     S
O540   Zn632   1.938   .     S
O541   Zn635   1.942   .     S
O542   Zn1270  1.942   .     S
O543   Zn629   1.938   .     S
O544   Zn1893  1.938   .     S
O545   Zn1266  1.938   .     S
O546   Zn631   1.938   .     S
O547   Zn621   1.942   .     S
O548   Zn1901  1.942   .     S
O549   Zn634   1.938   .     S
O550   C1425   1.280   .     A
O550   Zn628   1.930   .     S
O551   Zn1271  1.938   .     S
O552   Zn1904  1.942   .     S
O553   Zn633   1.942   .     S
O561   Zn627   1.930   .     S
O572   Zn622   1.930   .     S
O583   Zn636   1.930   .     S
O583   C792    1.280   .     S
O589   S605    1.502   .     D
O590   S605    1.503   .     D
O591   S605    1.683   .     S
O592   S613    1.503   .     D
O593   S613    1.503   .     D
O594   Zn624   1.930   .     S
O595   S613    1.682   .     S
O596   S614    1.503   .     D
O597   S614    1.503   .     D
O598   S614    1.682   .     S
O599   S615    1.502   .     D
O600   S615    1.503   .     D
O601   S615    1.683   .     S
O602   S616    1.502   .     D
O603   S616    1.503   .     D
O604   S616    1.683   .     S
Zn621  O1816   1.938   1_545 S
Zn623  O1789   1.945   .     S
Zn626  O1164   1.945   .     S
Zn628  O1745   1.945   .     S
Zn629  O1820   1.942   1_545 S
Zn630  O1181   1.938   1_455 S
Zn631  O1172   1.942   1_455 S
Zn632  O1824   1.942   1_545 S
Zn633  O1810   1.938   1_545 S
Zn634  O1178   1.942   1_455 S
Zn635  O1187   1.938   1_455 S
Zn636  O1175   1.945   .     S
C637   C715    1.395   .     A
C637   C2052   1.396   .     A
C637   H853    1.083   .     S
C638   H854    1.083   .     S
C638   C785    1.397   .     A
C638   C772    1.395   .     A
C639   C828    1.406   .     A
C639   C835    1.406   .     A
C639   C799    1.455   .     S
C640   C827    1.408   .     A
C640   C838    1.408   .     A
C640   C800    1.452   .     S
C641   C837    1.414   .     A
C641   C826    1.414   .     A
C641   C801    1.463   .     S
C642   C825    1.416   .     A
C642   C802    1.465   .     S
C642   C840    1.416   .     A
C643   C839    1.406   .     A
C643   C803    1.455   .     S
C643   C824    1.406   .     A
C644   C843    1.416   .     A
C644   C813    1.465   .     S
C644   C823    1.416   .     A
C645   C822    1.406   .     A
C645   C814    1.455   .     S
C645   C841    1.406   .     A
C646   C821    1.408   .     A
C646   C806    1.452   .     S
C646   C845    1.408   .     A
C647   C807    1.463   .     S
C647   C819    1.414   .     A
C647   C844    1.414   .     A
C648   C808    1.465   .     S
C648   C818    1.416   .     A
C648   C847    1.416   .     A
C649   H865    1.083   .     S
C649   C2058   1.397   .     A
C649   C773    1.394   .     A
C650   C817    1.406   .     A
C650   C810    1.455   .     S
C650   C846    1.406   .     A
C651   C849    1.408   .     A
C651   C816    1.408   .     A
C651   C811    1.452   .     S
C652   C815    1.414   .     A
C652   C812    1.463   .     S
C652   C848    1.414   .     A
C653   C796    1.457   .     S
C653   C1987   1.416   1_545 A
C653   C760    1.416   .     S
C654   C795    1.452   .     S
C654   C1998   1.414   1_545 A
C654   C768    1.414   .     S
C655   C737    1.414   .     S
C655   C794    1.452   .     S
C656   C793    1.457   .     S
C656   C749    1.416   .     S
C657   C775    1.416   .     A
C657   C792    1.457   .     S
C658   C791    1.452   .     S
C658   C772    1.414   .     A
C659   C790    1.452   .     S
C659   C2045   1.414   1_545 A
C659   C778    1.414   .     S
C660   H876    1.083   .     S
C660   C774    1.395   .     A
C660   C788    1.396   .     S
C661   C2051   1.416   1_545 A
C661   C789    1.457   .     S
C661   C774    1.416   .     S
C662   H942    1.117   .     S
C662   C663    1.531   .     S
C662   O1190   1.419   .     S
C662   H931    1.110   .     S
C663   H953    1.112   .     S
C663   C664    1.526   .     S
C663   H965    1.108   .     S
C664   H987    1.110   .     S
C664   H998    1.109   .     S
C664   H976    1.111   .     S
C665   C666    1.533   .     S
C665   H1009   1.111   .     S
C665   H1020   1.115   .     S
C665   O1191   1.416   .     S
C666   H1029   1.111   .     S
C666   C667    1.526   .     S
C666   H1028   1.112   .     S
C667   H1033   1.111   .     S
C667   H1031   1.110   .     S
C667   H1030   1.111   .     S
C668   H1035   1.115   .     S
C668   O1192   1.412   .     S
C668   H1034   1.115   .     S
C669   H1037   1.111   .     S
C669   C670    1.526   .     S
C669   H1036   1.111   .     S
C669   C32     1.527   1_655 S
C670   H1039   1.109   .     S
C670   H1040   1.110   .     S
C670   H1038   1.111   .     S
C671   C775    1.395   .     A
C671   C784    1.396   .     A
C671   H887    1.083   .     S
C672   H1041   1.110   .     S
C672   C673    1.534   .     S
C672   H1042   1.117   .     S
C672   O1193   1.419   .     S
C673   C674    1.526   .     S
C673   H1045   1.110   .     S
C673   H1044   1.111   .     S
C674   H1046   1.111   .     S
C674   H1048   1.111   .     S
C674   H1047   1.110   .     S
C675   C676    1.531   .     S
C675   H1049   1.110   .     S
C675   O1194   1.419   .     S
C675   H1050   1.117   .     S
C676   H1051   1.112   .     S
C676   H1052   1.108   .     S
C676   C677    1.526   .     S
C677   H1053   1.111   .     S
C677   H1055   1.110   .     S
C677   H1056   1.109   .     S
C678   H1057   1.111   .     S
C678   O1195   1.416   .     S
C678   C679    1.533   .     S
C678   H1058   1.115   .     S
C679   C680    1.526   .     S
C679   H1060   1.111   .     S
C679   H1059   1.112   .     S
C680   H1063   1.111   .     S
C680   H1062   1.110   .     S
C680   H1061   1.111   .     S
C681   H1066   1.115   .     S
C681   O1196   1.412   .     S
C681   H1064   1.115   .     S
C681   C47     1.527   1_655 S
C682   C777    1.394   .     A
C682   H898    1.083   .     S
C682   C149    1.397   1_655 S
C683   C684    1.526   .     S
C683   H1068   1.111   .     S
C683   H1067   1.111   .     S
C684   H1069   1.111   .     S
C684   H1071   1.110   .     S
C684   H1070   1.109   .     S
C685   H1073   1.117   .     S
C685   C686    1.534   .     S
C685   H1072   1.110   .     S
C685   O1198   1.419   .     S
C686   H1075   1.110   .     S
C686   C687    1.526   .     S
C686   H1074   1.111   .     S
C687   H1079   1.111   .     S
C687   H1077   1.111   .     S
C687   H1078   1.110   .     S
C688   O1199   1.412   .     S
C688   H1080   1.115   .     S
C688   H1081   1.115   .     S
C688   C1961   1.527   1_545 S
C689   H1083   1.111   .     S
C689   H1082   1.111   .     S
C689   C690    1.526   .     S
C689   C1960   1.527   .     S
C690   H1086   1.110   .     S
C690   H1085   1.109   .     S
C690   H1084   1.111   .     S
C691   C692    1.534   .     S
C691   H1088   1.110   .     S
C691   H1089   1.117   .     S
C691   O1200   1.419   .     S
C692   H1091   1.110   .     S
C692   C694    1.526   .     S
C692   H1090   1.111   .     S
C693   C778    1.394   .     A
C693   H909    1.083   .     S
C693   C786    1.397   .     S
C694   H1093   1.110   .     S
C694   H1094   1.111   .     S
C694   H1092   1.111   .     S
C695   C696    1.531   .     S
C695   H1095   1.110   .     S
C695   O1201   1.419   .     S
C695   H1096   1.117   .     S
C696   H1097   1.112   .     S
C696   H1099   1.108   .     S
C696   C697    1.526   .     S
C697   H1101   1.110   .     S
C697   H1102   1.109   .     S
C697   H1100   1.111   .     S
C698   H1103   1.111   .     S
C698   O1202   1.416   .     S
C698   C699    1.533   .     S
C698   H1104   1.115   .     S
C699   H1105   1.112   .     S
C699   C700    1.526   .     S
C699   H1106   1.111   .     S
C700   H1107   1.111   .     S
C700   H855    1.111   .     S
C700   H1108   1.110   .     S
C701   H857    1.115   .     S
C701   H856    1.115   .     S
C701   O1203   1.412   .     S
C701   C1974   1.527   .     S
C702   H858    1.111   .     S
C702   C703    1.526   .     S
C702   H859    1.111   .     S
C702   C1973   1.527   1_545 S
C703   H862    1.110   .     S
C703   H861    1.110   .     S
C703   H860    1.111   .     S
C704   C779    1.395   .     A
C704   H920    1.083   .     S
C704   C2060   1.396   .     A
C705   O1204   1.419   .     S
C705   C706    1.534   .     S
C705   H864    1.117   .     S
C705   H863    1.110   .     S
C706   H867    1.110   .     S
C706   C707    1.526   .     S
C706   H866    1.111   .     S
C707   H870    1.111   .     S
C707   H869    1.110   .     S
C707   H868    1.111   .     S
C708   H872    1.117   .     S
C708   C709    1.531   .     S
C708   O1205   1.419   .     S
C708   H871    1.110   .     S
C709   C710    1.526   .     S
C709   H874    1.108   .     S
C709   H873    1.112   .     S
C710   H878    1.109   .     S
C710   H875    1.111   .     S
C710   H877    1.110   .     S
C711   H880    1.115   .     S
C711   O1206   1.416   .     S
C711   C712    1.533   .     S
C711   H879    1.111   .     S
C712   H881    1.112   .     S
C712   C713    1.526   .     S
C712   H882    1.111   .     S
C713   H883    1.111   .     S
C713   H885    1.111   .     S
C713   H884    1.110   .     S
C714   H888    1.117   .     S
C714   C716    1.531   .     S
C714   O1207   1.419   .     S
C714   H886    1.110   .     S
C715   S1241   1.774   .     S
C715   C1925   1.416   .     A
C716   H890    1.108   .     S
C716   H889    1.112   .     S
C716   C717    1.526   .     S
C717   H891    1.111   .     S
C717   H893    1.109   .     S
C717   H892    1.110   .     S
C718   H894    1.111   .     S
C718   C719    1.533   .     S
C718   H895    1.115   .     S
C718   O1209   1.416   .     S
C719   H896    1.112   .     S
C719   C720    1.526   .     S
C719   H897    1.111   .     S
C720   H899    1.111   .     S
C720   H900    1.110   .     S
C720   H901    1.111   .     S
C721   H903    1.115   .     S
C721   O1210   1.412   .     S
C721   C722    1.527   .     S
C721   H902    1.115   .     S
C722   H904    1.111   .     S
C722   H905    1.111   .     S
C722   C723    1.526   .     S
C723   H908    1.110   .     S
C723   H906    1.111   .     S
C723   H907    1.109   .     S
C724   C725    1.534   .     S
C724   H911    1.117   .     S
C724   O1211   1.419   .     S
C724   H910    1.110   .     S
C725   C727    1.526   .     S
C725   H913    1.110   .     S
C725   H912    1.111   .     S
C726   S1249   1.775   .     S
C726   C1926   1.414   .     A
C726   C748    1.395   .     A
C727   H914    1.111   .     S
C727   H915    1.110   .     S
C727   H916    1.111   .     S
C728   H918    1.117   .     S
C728   H917    1.110   .     S
C728   O1212   1.419   .     S
C728   C729    1.531   .     S
C729   H921    1.108   .     S
C729   C730    1.526   .     S
C729   H919    1.112   .     S
C730   H923    1.110   .     S
C730   H924    1.109   .     S
C730   H922    1.111   .     S
C731   H926    1.115   .     S
C731   O1213   1.416   .     S
C731   H925    1.111   .     S
C731   C732    1.533   .     S
C732   H928    1.111   .     S
C732   H927    1.112   .     S
C732   C733    1.526   .     S
C733   H930    1.110   .     S
C733   H932    1.111   .     S
C733   H929    1.111   .     S
C734   O1214   1.412   .     S
C734   C735    1.527   .     S
C734   H933    1.115   .     S
C734   H934    1.115   .     S
C735   H935    1.111   .     S
C735   H936    1.111   .     S
C735   C736    1.526   .     S
C736   H939    1.110   .     S
C736   H937    1.111   .     S
C736   H938    1.109   .     S
C737   S1250   1.775   .     S
C737   C776    1.394   .     A
C738   O1215   1.419   .     S
C738   H941    1.117   .     S
C738   C739    1.534   .     S
C738   H940    1.110   .     S
C739   C740    1.526   .     S
C739   H944    1.110   .     S
C739   H943    1.111   .     S
C740   H947    1.111   .     S
C740   H946    1.110   .     S
C740   H945    1.111   .     S
C741   H948    1.115   .     S
C741   O1216   1.412   .     S
C741   H949    1.115   .     S
C741   C742    1.527   .     S
C742   C743    1.526   .     S
C742   H951    1.111   .     S
C742   H950    1.111   .     S
C743   H954    1.109   .     S
C743   H952    1.111   .     S
C743   H955    1.110   .     S
C744   C745    1.534   .     S
C744   H957    1.117   .     S
C744   H956    1.110   .     S
C744   O1217   1.419   .     S
C745   H959    1.110   .     S
C745   H958    1.111   .     S
C745   C746    1.526   .     S
C746   H962    1.111   .     S
C746   H960    1.111   .     S
C746   H961    1.110   .     S
C747   H966    1.117   .     S
C747   O1218   1.419   .     S
C747   C750    1.531   .     S
C747   H963    1.110   .     S
C748   H964    1.083   .     S
C748   C2053   1.397   .     A
C749   C787    1.395   .     A
C749   S1251   1.774   .     S
C750   C751    1.526   .     S
C750   H968    1.108   .     S
C750   H967    1.112   .     S
C751   H969    1.111   .     S
C751   H971    1.109   .     S
C751   H970    1.110   .     S
C752   O1220   1.416   .     S
C752   H973    1.115   .     S
C752   H972    1.111   .     S
C752   C753    1.533   .     S
C753   H975    1.111   .     S
C753   C754    1.526   .     S
C753   H974    1.112   .     S
C754   H978    1.110   .     S
C754   H979    1.111   .     S
C754   H977    1.111   .     S
C755   H981    1.115   .     S
C755   H980    1.115   .     S
C755   C756    1.527   .     S
C755   O1221   1.412   .     S
C756   H983    1.111   .     S
C756   H982    1.111   .     S
C756   C757    1.526   .     S
C757   H986    1.110   .     S
C757   H984    1.111   .     S
C757   H985    1.109   .     S
C758   O1222   1.419   .     S
C758   H988    1.110   .     S
C758   H989    1.117   .     S
C758   C759    1.534   .     S
C759   H991    1.110   .     S
C759   H990    1.111   .     S
C759   C761    1.526   .     S
C760   S1252   1.775   .     S
C760   C798    1.395   .     A
C761   H994    1.111   .     S
C761   H993    1.110   .     S
C761   H992    1.111   .     S
C762   C763    1.531   .     S
C762   H996    1.117   .     S
C762   H995    1.110   .     S
C762   O1223   1.419   .     S
C763   H999    1.108   .     S
C763   H997    1.112   .     S
C763   C764    1.526   .     S
C764   H1000   1.111   .     S
C764   H1001   1.110   .     S
C764   H1002   1.109   .     S
C765   H1004   1.115   .     S
C765   C766    1.533   .     S
C765   O1224   1.416   .     S
C765   H1003   1.111   .     S
C766   H1006   1.111   .     S
C766   C767    1.526   .     S
C766   H1005   1.112   .     S
C767   H1008   1.110   .     S
C767   H1007   1.111   .     S
C767   H1010   1.111   .     S
C768   S1253   1.775   .     S
C768   C809    1.394   .     A
C769   C19     1.414   1_655 A
C769   S1254   1.775   .     S
C769   C820    1.394   .     A
C770   C20     1.416   1_655 A
C770   C831    1.395   .     A
C770   S1255   1.775   .     S
C771   S1256   1.774   .     S
C771   C842    1.395   .     A
C771   C21     1.416   1_655 S
C772   S1242   1.775   .     S
C773   S1243   1.775   .     S
C773   C1931   1.414   .     A
C774   S1244   1.775   .     S
C775   S1245   1.774   .     S
C776   H1032   1.083   .     S
C776   C782    1.397   .     S
C777   S1246   1.775   .     S
C777   C22     1.414   1_655 S
C778   S1247   1.775   .     S
C779   C1933   1.416   .     A
C779   S1248   1.775   .     S
C780   C1909   1.396   1_545 A
C780   C781    1.461   1_554 S
C780   C798    1.396   .     S
C781   C2020   1.397   1_545 A
C781   C780    1.461   1_556 S
C781   C809    1.397   .     S
C782   C783    1.461   1_554 S
C783   C782    1.461   1_556 S
C783   C787    1.396   .     S
C784   C785    1.461   .     S
C786   C1921   1.397   1_545 A
C786   C788    1.461   .     S
C787   H1043   1.083   .     S
C788   C1976   1.396   1_545 A
C789   O2458   1.280   1_545 A
C789   O1230   1.280   .     S
C790   O2382   1.279   1_545 A
C790   O1197   1.279   .     S
C791   O1208   1.279   .     A
C792   O1132   1.280   .     A
C793   O1143   1.280   .     S
C793   O1150   1.280   .     S
C794   O1147   1.279   .     A
C794   O1151   1.279   .     S
C795   O1148   1.279   .     S
C795   O1152   1.279   .     S
C796   O1149   1.280   .     S
C796   O1154   1.280   .     S
C797   O1155   1.280   .     A
C797   C852    1.465   .     S
C797   O1183   1.280   .     A
C798   H1054   1.083   .     S
C799   O1184   1.277   .     A
C799   O1156   1.277   .     A
C800   O1181   1.277   .     A
C800   O1157   1.277   .     A
C801   O1182   1.280   .     A
C801   O1158   1.280   .     A
C802   O1159   1.280   .     A
C802   O1188   1.280   .     A
C803   O1160   1.277   .     A
C803   O1189   1.277   .     A
C804   O1161   1.277   .     A
C804   O1185   1.277   .     A
C804   C850    1.452   .     S
C805   C851    1.463   .     S
C805   O1187   1.280   .     A
C805   O1162   1.280   .     A
C806   O1163   1.277   .     A
C806   O1174   1.277   .     A
C807   O1165   1.280   .     A
C807   O1176   1.280   .     A
C808   O1172   1.280   .     A
C808   O1166   1.280   .     A
C809   H1065   1.083   .     S
C810   O1167   1.277   .     A
C810   O1173   1.277   .     A
C811   O1179   1.277   .     A
C811   O1168   1.277   .     A
C812   O1169   1.280   .     A
C812   O1180   1.280   .     A
C813   O1177   1.280   .     A
C813   O1170   1.280   .     A
C814   O1171   1.277   .     A
C814   O1178   1.277   .     A
C815   O1190   1.385   .     S
C815   C832    1.391   .     A
C816   O1191   1.386   .     S
C816   C830    1.391   .     A
C817   C829    1.392   .     A
C817   O1192   1.383   .     S
C818   C828    1.392   .     A
C818   O1193   1.385   .     S
C819   O1194   1.385   .     S
C819   C827    1.391   .     A
C820   C146    1.397   1_655 A
C820   H1076   1.083   .     S
C821   C826    1.391   .     A
C821   O1195   1.386   .     S
C822   O1196   1.383   .     S
C822   C825    1.392   .     A
C823   O1198   1.385   .     S
C823   C824    1.392   .     A
C824   O1199   1.383   .     S
C825   O1200   1.385   .     S
C826   O1201   1.385   .     S
C827   O1202   1.386   .     S
C828   O1203   1.383   .     S
C829   O1204   1.385   .     S
C829   C852    1.416   .     A
C830   C851    1.414   .     A
C830   O1205   1.385   .     S
C831   H1087   1.083   .     S
C831   C147    1.396   1_655 A
C832   O1206   1.386   .     S
C832   C850    1.408   .     A
C833   O1207   1.385   .     S
C833   C849    1.391   .     A
C833   C851    1.414   .     A
C834   C850    1.408   .     A
C834   O1209   1.386   .     S
C834   C848    1.391   .     A
C835   O1210   1.383   .     S
C835   C847    1.392   .     A
C836   C852    1.416   .     A
C836   C846    1.392   .     A
C836   O1211   1.385   .     S
C837   C845    1.391   .     A
C837   O1212   1.385   .     S
C838   O1213   1.386   .     S
C838   C844    1.391   .     A
C839   O1214   1.383   .     S
C839   C843    1.392   .     A
C840   C841    1.392   .     A
C840   O1215   1.385   .     S
C841   O1216   1.383   .     S
C842   H1098   1.083   .     S
C842   C148    1.396   1_655 S
C843   O1217   1.385   .     S
C844   O1218   1.385   .     S
C845   O1220   1.386   .     S
C846   O1221   1.383   .     S
C847   O1222   1.385   .     S
C848   O1223   1.385   .     S
C849   O1224   1.386   .     S
H1011  O1227   0.991   .     S
H1012  O1231   0.991   .     S
H1013  O1234   0.991   .     S
H1014  O1237   0.991   .     S
H1015  O1240   0.991   .     S
H1016  O1113   0.991   .     S
H1017  O1116   0.991   .     S
H1018  O1119   0.991   .     S
H1019  O1123   0.991   .     S
H1021  O1126   0.991   .     S
H1022  O1129   0.991   .     S
H1023  O1133   0.991   .     S
H1024  O1136   0.991   .     S
H1025  O1139   0.990   .     S
H1026  O1142   0.990   .     S
H1027  O1146   0.991   .     S
O1109  Zn1268  1.945   .     S
O1109  Zn1260  1.945   .     S
O1109  Zn1257  1.945   .     S
O1109  Zn2536  1.945   1_545 S
O1110  C2062   1.279   .     A
O1110  Zn1259  1.930   .     S
O1111  S1253   1.503   .     D
O1112  S1253   1.503   .     D
O1113  S1253   1.682   .     S
O1114  S1254   1.503   .     D
O1115  S1254   1.503   .     D
O1116  S1254   1.682   .     S
O1117  S1255   1.502   .     D
O1118  S1255   1.503   .     D
O1119  S1255   1.683   .     S
O1120  S1256   1.502   .     D
O1121  Zn1262  1.930   .     S
O1121  C155    1.279   1_655 S
O1122  S1256   1.503   .     D
O1123  S1256   1.683   .     S
O1124  S1242   1.503   .     D
O1125  S1242   1.503   .     D
O1126  S1242   1.682   .     S
O1127  S1243   1.503   .     D
O1128  S1243   1.503   .     D
O1129  S1243   1.682   .     S
O1130  S1244   1.502   .     D
O1131  S1244   1.503   .     D
O1132  Zn1261  1.930   .     S
O1133  S1244   1.683   .     S
O1134  S1245   1.502   .     D
O1135  S1245   1.503   .     D
O1136  S1245   1.683   .     S
O1137  S1246   1.503   .     D
O1138  S1246   1.503   .     D
O1139  S1246   1.682   .     S
O1140  S1247   1.503   .     D
O1141  S1247   1.503   .     D
O1142  S1247   1.682   .     S
O1143  Zn1271  1.930   .     S
O1144  S1248   1.502   .     D
O1145  S1248   1.503   .     D
O1146  S1248   1.683   .     S
O1147  Zn1270  1.930   .     S
O1148  Zn1265  1.930   .     S
O1149  Zn1257  1.930   .     S
O1150  Zn1267  1.930   .     S
O1151  Zn1266  1.930   .     S
O1152  Zn1269  1.930   .     S
O1153  Zn1263  1.945   .     S
O1153  Zn2531  1.945   1_545 S
O1153  Zn1265  1.945   .     S
O1153  Zn1269  1.945   .     S
O1154  Zn1268  1.930   .     S
O1155  Zn1260  1.942   .     S
O1156  Zn1259  1.942   .     S
O1157  Zn1262  1.938   .     S
O1158  Zn1261  1.938   .     S
O1159  Zn1264  1.942   .     S
O1160  Zn1263  1.942   .     S
O1161  Zn1258  1.938   .     S
O1162  Zn1272  1.938   .     S
O1163  Zn1259  1.938   .     S
O1164  Zn1258  1.945   .     S
O1164  Zn1266  1.945   .     S
O1164  Zn1270  1.945   .     S
O1165  Zn1260  1.938   .     S
O1166  Zn1272  1.942   .     S
O1167  Zn1258  1.942   .     S
O1168  Zn1263  1.938   .     S
O1169  Zn1264  1.938   .     S
O1170  Zn1261  1.942   .     S
O1171  Zn1262  1.942   .     S
O1172  Zn631   1.942   1_655 S
O1173  Zn1266  1.942   .     S
O1174  Zn2541  1.938   .     S
O1175  Zn1271  1.945   .     S
O1175  Zn1261  1.945   .     S
O1175  Zn1267  1.945   .     S
O1176  Zn1268  1.938   .     S
O1177  Zn1271  1.942   .     S
O1178  Zn634   1.942   1_655 S
O1179  Zn1265  1.938   .     S
O1180  Zn2529  1.938   .     S
O1181  Zn630   1.938   1_655 S
O1182  Zn1267  1.938   .     S
O1183  Zn1257  1.942   .     S
O1184  Zn2537  1.942   .     S
O1185  Zn1270  1.938   .     S
O1186  C2061   1.280   .     A
O1186  Zn1264  1.930   .     S
O1187  Zn635   1.938   1_655 S
O1188  Zn2540  1.942   .     S
O1189  Zn1269  1.942   .     S
O1197  Zn1263  1.930   .     S
O1208  Zn1258  1.930   .     S
O1219  Zn1272  1.930   .     S
O1219  C156    1.280   1_655 S
O1225  S1241   1.502   .     D
O1226  S1241   1.503   .     D
O1227  S1241   1.683   .     S
O1228  S1249   1.503   .     D
O1229  S1249   1.503   .     D
O1230  Zn1260  1.930   .     S
O1231  S1249   1.682   .     S
O1232  S1250   1.503   .     D
O1233  S1250   1.503   .     D
O1234  S1250   1.682   .     S
O1235  S1251   1.502   .     D
O1236  S1251   1.503   .     D
O1237  S1251   1.683   .     S
O1238  S1252   1.502   .     D
O1239  S1252   1.503   .     D
O1240  S1252   1.683   .     S
Zn1257 O2452   1.938   1_545 S
Zn1259 O2425   1.945   .     S
Zn1262 O528    1.945   1_655 S
Zn1264 O2381   1.945   .     S
Zn1265 O2456   1.942   1_545 S
Zn1268 O2460   1.942   1_545 S
Zn1269 O2446   1.938   1_545 S
Zn1272 O539    1.945   1_655 S
C1273  C1351   1.395   .     A
C1273  C144    1.396   1_565 A
C1273  H1489   1.083   .     S
C1274  H1490   1.083   .     S
C1274  C1421   1.397   .     A
C1274  C1408   1.395   .     A
C1275  C1464   1.406   .     A
C1275  C1471   1.406   .     A
C1275  C1435   1.455   .     S
C1276  C1463   1.408   .     A
C1276  C1474   1.408   .     A
C1276  C1436   1.452   .     S
C1277  C1473   1.414   .     A
C1277  C1462   1.414   .     A
C1277  C1437   1.463   .     S
C1278  C1461   1.416   .     A
C1278  C1438   1.465   .     S
C1278  C1476   1.416   .     A
C1279  C1475   1.406   .     A
C1279  C1439   1.455   .     S
C1279  C1460   1.406   .     A
C1280  C1479   1.416   .     A
C1280  C1449   1.465   .     S
C1280  C1459   1.416   .     A
C1281  C1458   1.406   .     A
C1281  C1450   1.455   .     S
C1281  C1477   1.406   .     A
C1282  C1457   1.408   .     A
C1282  C1442   1.452   .     S
C1282  C1481   1.408   .     A
C1283  C1443   1.463   .     S
C1283  C1455   1.414   .     A
C1283  C1480   1.414   .     A
C1284  C1444   1.465   .     S
C1284  C1454   1.416   .     A
C1284  C1483   1.416   .     A
C1285  H1501   1.083   .     S
C1285  C150    1.397   1_565 A
C1285  C1409   1.394   .     A
C1286  C1453   1.406   .     A
C1286  C1446   1.455   .     S
C1286  C1482   1.406   .     A
C1287  C1485   1.408   .     A
C1287  C1452   1.408   .     A
C1287  C1447   1.452   .     S
C1288  C1451   1.414   .     A
C1288  C1448   1.463   .     S
C1288  C1484   1.414   .     A
C1289  C1432   1.457   .     S
C1289  C1396   1.416   .     S
C1290  C1431   1.452   .     S
C1290  C1404   1.414   .     S
C1291  C2041   1.414   1_455 A
C1291  C1373   1.414   .     S
C1291  C1430   1.452   .     S
C1292  C2042   1.416   1_455 A
C1292  C1429   1.457   .     S
C1292  C1385   1.416   .     S
C1293  C1411   1.416   .     A
C1293  C1428   1.457   .     S
C1293  C2043   1.416   1_455 S
C1294  C1427   1.452   .     S
C1294  C1408   1.414   .     A
C1294  C2049   1.414   1_455 S
C1295  C1426   1.452   .     S
C1295  C1414   1.414   .     S
C1296  H1512   1.083   .     S
C1296  C1410   1.395   .     A
C1296  C1424   1.396   .     S
C1297  C1425   1.457   .     S
C1297  C1410   1.416   .     S
C1298  H1578   1.117   .     S
C1298  C1299   1.531   .     S
C1298  O1826   1.419   .     S
C1298  H1567   1.110   .     S
C1299  H1589   1.112   .     S
C1299  C1300   1.526   .     S
C1299  H1601   1.108   .     S
C1300  H1623   1.110   .     S
C1300  H1634   1.109   .     S
C1300  H1612   1.111   .     S
C1301  C1302   1.533   .     S
C1301  H1645   1.111   .     S
C1301  H1656   1.115   .     S
C1301  O1827   1.416   .     S
C1302  H1665   1.111   .     S
C1302  C1303   1.526   .     S
C1302  H1664   1.112   .     S
C1303  H1669   1.111   .     S
C1303  H1667   1.110   .     S
C1303  H1666   1.111   .     S
C1304  H1671   1.115   .     S
C1304  O1828   1.412   .     S
C1304  H1670   1.115   .     S
C1304  C1941   1.527   1_455 S
C1305  H1673   1.111   .     S
C1305  C1306   1.526   .     S
C1305  H1672   1.111   .     S
C1305  C1940   1.527   .     S
C1306  H1675   1.109   .     S
C1306  H1676   1.110   .     S
C1306  H1674   1.111   .     S
C1307  C1411   1.395   .     A
C1307  C1420   1.396   .     A
C1307  H1523   1.083   .     S
C1308  H1677   1.110   .     S
C1308  C1309   1.534   .     S
C1308  H1678   1.117   .     S
C1308  O1829   1.419   .     S
C1309  C1310   1.526   .     S
C1309  H1681   1.110   .     S
C1309  H1680   1.111   .     S
C1310  H1682   1.111   .     S
C1310  H1684   1.111   .     S
C1310  H1683   1.110   .     S
C1311  C1312   1.531   .     S
C1311  H1685   1.110   .     S
C1311  O1830   1.419   .     S
C1311  H1686   1.117   .     S
C1312  H1687   1.112   .     S
C1312  H1688   1.108   .     S
C1312  C1313   1.526   .     S
C1313  H1689   1.111   .     S
C1313  H1691   1.110   .     S
C1313  H1692   1.109   .     S
C1314  H1693   1.111   .     S
C1314  O1831   1.416   .     S
C1314  C1315   1.533   .     S
C1314  H1694   1.115   .     S
C1315  C1316   1.526   .     S
C1315  H1696   1.111   .     S
C1315  H1695   1.112   .     S
C1316  H1699   1.111   .     S
C1316  H1698   1.110   .     S
C1316  H1697   1.111   .     S
C1317  H1702   1.115   .     S
C1317  O1832   1.412   .     S
C1317  H1700   1.115   .     S
C1317  C1955   1.527   .     S
C1318  C1413   1.394   .     A
C1318  H1534   1.083   .     S
C1318  C2057   1.397   .     S
C1319  C1320   1.526   .     S
C1319  H1704   1.111   .     S
C1319  H1703   1.111   .     S
C1319  C1953   1.527   1_455 S
C1320  H1705   1.111   .     S
C1320  H1707   1.110   .     S
C1320  H1706   1.109   .     S
C1321  H1709   1.117   .     S
C1321  C1322   1.534   .     S
C1321  H1708   1.110   .     S
C1321  O1834   1.419   .     S
C1322  H1711   1.110   .     S
C1322  C1323   1.526   .     S
C1322  H1710   1.111   .     S
C1323  H1715   1.111   .     S
C1323  H1713   1.111   .     S
C1323  H1714   1.110   .     S
C1324  O1835   1.412   .     S
C1324  H1716   1.115   .     S
C1324  H1717   1.115   .     S
C1325  H1719   1.111   .     S
C1325  H1718   1.111   .     S
C1325  C1326   1.526   .     S
C1325  C52     1.527   1_565 S
C1326  H1722   1.110   .     S
C1326  H1721   1.109   .     S
C1326  H1720   1.111   .     S
C1327  C1328   1.534   .     S
C1327  H1724   1.110   .     S
C1327  H1725   1.117   .     S
C1327  O1836   1.419   .     S
C1328  H1727   1.110   .     S
C1328  C1330   1.526   .     S
C1328  H1726   1.111   .     S
C1329  C1414   1.394   .     A
C1329  H1545   1.083   .     S
C1329  C1422   1.397   .     S
C1330  H1729   1.110   .     S
C1330  H1730   1.111   .     S
C1330  H1728   1.111   .     S
C1331  C1332   1.531   .     S
C1331  H1731   1.110   .     S
C1331  O1837   1.419   .     S
C1331  H1732   1.117   .     S
C1332  H1733   1.112   .     S
C1332  H1735   1.108   .     S
C1332  C1333   1.526   .     S
C1333  H1737   1.110   .     S
C1333  H1738   1.109   .     S
C1333  H1736   1.111   .     S
C1334  H1739   1.111   .     S
C1334  O1838   1.416   .     S
C1334  C1335   1.533   .     S
C1334  H1740   1.115   .     S
C1335  H1741   1.112   .     S
C1335  C1336   1.526   .     S
C1335  H1742   1.111   .     S
C1336  H1743   1.111   .     S
C1336  H1491   1.111   .     S
C1336  H1744   1.110   .     S
C1337  H1493   1.115   .     S
C1337  H1492   1.115   .     S
C1337  O1839   1.412   .     S
C1337  C66     1.527   1_565 S
C1338  H1494   1.111   .     S
C1338  C1339   1.526   .     S
C1338  H1495   1.111   .     S
C1339  H1498   1.110   .     S
C1339  H1497   1.110   .     S
C1339  H1496   1.111   .     S
C1340  C1415   1.395   .     A
C1340  H1556   1.083   .     S
C1340  C152    1.396   1_565 A
C1341  O1840   1.419   .     S
C1341  C1342   1.534   .     S
C1341  H1500   1.117   .     S
C1341  H1499   1.110   .     S
C1342  H1503   1.110   .     S
C1342  C1343   1.526   .     S
C1342  H1502   1.111   .     S
C1343  H1506   1.111   .     S
C1343  H1505   1.110   .     S
C1343  H1504   1.111   .     S
C1344  H1508   1.117   .     S
C1344  C1345   1.531   .     S
C1344  O1841   1.419   .     S
C1344  H1507   1.110   .     S
C1345  C1346   1.526   .     S
C1345  H1510   1.108   .     S
C1345  H1509   1.112   .     S
C1346  H1514   1.109   .     S
C1346  H1511   1.111   .     S
C1346  H1513   1.110   .     S
C1347  H1516   1.115   .     S
C1347  O1842   1.416   .     S
C1347  C1348   1.533   .     S
C1347  H1515   1.111   .     S
C1348  H1517   1.112   .     S
C1348  C1349   1.526   .     S
C1348  H1518   1.111   .     S
C1349  H1519   1.111   .     S
C1349  H1521   1.111   .     S
C1349  H1520   1.110   .     S
C1350  H1524   1.117   .     S
C1350  C1352   1.531   .     S
C1350  O1843   1.419   .     S
C1350  H1522   1.110   .     S
C1351  S1877   1.774   .     S
C1351  C17     1.416   1_565 A
C1352  H1526   1.108   .     S
C1352  H1525   1.112   .     S
C1352  C1353   1.526   .     S
C1353  H1527   1.111   .     S
C1353  H1529   1.109   .     S
C1353  H1528   1.110   .     S
C1354  H1530   1.111   .     S
C1354  C1355   1.533   .     S
C1354  H1531   1.115   .     S
C1354  O1845   1.416   .     S
C1355  H1532   1.112   .     S
C1355  C1356   1.526   .     S
C1355  H1533   1.111   .     S
C1356  H1535   1.111   .     S
C1356  H1536   1.110   .     S
C1356  H1537   1.111   .     S
C1357  H1539   1.115   .     S
C1357  O1846   1.412   .     S
C1357  C1358   1.527   .     S
C1357  H1538   1.115   .     S
C1358  H1540   1.111   .     S
C1358  H1541   1.111   .     S
C1358  C1359   1.526   .     S
C1359  H1544   1.110   .     S
C1359  H1542   1.111   .     S
C1359  H1543   1.109   .     S
C1360  C1361   1.534   .     S
C1360  H1547   1.117   .     S
C1360  O1847   1.419   .     S
C1360  H1546   1.110   .     S
C1361  C1363   1.526   .     S
C1361  H1549   1.110   .     S
C1361  H1548   1.111   .     S
C1362  S1885   1.775   .     S
C1362  C18     1.414   1_565 A
C1362  C1384   1.395   .     A
C1363  H1550   1.111   .     S
C1363  H1551   1.110   .     S
C1363  H1552   1.111   .     S
C1364  H1554   1.117   .     S
C1364  H1553   1.110   .     S
C1364  O1848   1.419   .     S
C1364  C1365   1.531   .     S
C1365  H1557   1.108   .     S
C1365  C1366   1.526   .     S
C1365  H1555   1.112   .     S
C1366  H1559   1.110   .     S
C1366  H1560   1.109   .     S
C1366  H1558   1.111   .     S
C1367  H1562   1.115   .     S
C1367  O1849   1.416   .     S
C1367  H1561   1.111   .     S
C1367  C1368   1.533   .     S
C1368  H1564   1.111   .     S
C1368  H1563   1.112   .     S
C1368  C1369   1.526   .     S
C1369  H1566   1.110   .     S
C1369  H1568   1.111   .     S
C1369  H1565   1.111   .     S
C1370  O1850   1.412   .     S
C1370  C1371   1.527   .     S
C1370  H1569   1.115   .     S
C1370  H1570   1.115   .     S
C1371  H1571   1.111   .     S
C1371  H1572   1.111   .     S
C1371  C1372   1.526   .     S
C1372  H1575   1.110   .     S
C1372  H1573   1.111   .     S
C1372  H1574   1.109   .     S
C1373  S1886   1.775   .     S
C1373  C1412   1.394   .     A
C1374  O1851   1.419   .     S
C1374  H1577   1.117   .     S
C1374  C1375   1.534   .     S
C1374  H1576   1.110   .     S
C1375  C1376   1.526   .     S
C1375  H1580   1.110   .     S
C1375  H1579   1.111   .     S
C1376  H1583   1.111   .     S
C1376  H1582   1.110   .     S
C1376  H1581   1.111   .     S
C1377  H1584   1.115   .     S
C1377  O1852   1.412   .     S
C1377  H1585   1.115   .     S
C1377  C1378   1.527   .     S
C1378  C1379   1.526   .     S
C1378  H1587   1.111   .     S
C1378  H1586   1.111   .     S
C1379  H1590   1.109   .     S
C1379  H1588   1.111   .     S
C1379  H1591   1.110   .     S
C1380  C1381   1.534   .     S
C1380  H1593   1.117   .     S
C1380  H1592   1.110   .     S
C1380  O1853   1.419   .     S
C1381  H1595   1.110   .     S
C1381  H1594   1.111   .     S
C1381  C1382   1.526   .     S
C1382  H1598   1.111   .     S
C1382  H1596   1.111   .     S
C1382  H1597   1.110   .     S
C1383  H1602   1.117   .     S
C1383  O1854   1.419   .     S
C1383  C1386   1.531   .     S
C1383  H1599   1.110   .     S
C1384  H1600   1.083   .     S
C1384  C145    1.397   1_565 A
C1385  C1423   1.395   .     A
C1385  S1887   1.774   .     S
C1386  C1387   1.526   .     S
C1386  H1604   1.108   .     S
C1386  H1603   1.112   .     S
C1387  H1605   1.111   .     S
C1387  H1607   1.109   .     S
C1387  H1606   1.110   .     S
C1388  O1856   1.416   .     S
C1388  H1609   1.115   .     S
C1388  H1608   1.111   .     S
C1388  C1389   1.533   .     S
C1389  H1611   1.111   .     S
C1389  C1390   1.526   .     S
C1389  H1610   1.112   .     S
C1390  H1614   1.110   .     S
C1390  H1615   1.111   .     S
C1390  H1613   1.111   .     S
C1391  H1617   1.115   .     S
C1391  H1616   1.115   .     S
C1391  C1392   1.527   .     S
C1391  O1857   1.412   .     S
C1392  H1619   1.111   .     S
C1392  H1618   1.111   .     S
C1392  C1393   1.526   .     S
C1393  H1622   1.110   .     S
C1393  H1620   1.111   .     S
C1393  H1621   1.109   .     S
C1394  O1858   1.419   .     S
C1394  H1624   1.110   .     S
C1394  H1625   1.117   .     S
C1394  C1395   1.534   .     S
C1395  H1627   1.110   .     S
C1395  H1626   1.111   .     S
C1395  C1397   1.526   .     S
C1396  S1888   1.775   .     S
C1396  C1434   1.395   .     A
C1397  H1630   1.111   .     S
C1397  H1629   1.110   .     S
C1397  H1628   1.111   .     S
C1398  C1399   1.531   .     S
C1398  H1632   1.117   .     S
C1398  H1631   1.110   .     S
C1398  O1859   1.419   .     S
C1399  H1635   1.108   .     S
C1399  H1633   1.112   .     S
C1399  C1400   1.526   .     S
C1400  H1636   1.111   .     S
C1400  H1637   1.110   .     S
C1400  H1638   1.109   .     S
C1401  H1640   1.115   .     S
C1401  C1402   1.533   .     S
C1401  O1860   1.416   .     S
C1401  H1639   1.111   .     S
C1402  H1642   1.111   .     S
C1402  C1403   1.526   .     S
C1402  H1641   1.112   .     S
C1403  H1644   1.110   .     S
C1403  H1643   1.111   .     S
C1403  H1646   1.111   .     S
C1404  S1889   1.775   .     S
C1404  C1445   1.394   .     A
C1405  C1927   1.414   .     A
C1405  S1890   1.775   .     S
C1405  C1456   1.394   .     A
C1406  C1928   1.416   .     A
C1406  C1467   1.395   .     A
C1406  S1891   1.775   .     S
C1407  S1892   1.774   .     S
C1407  C1478   1.395   .     A
C1407  C1929   1.416   .     S
C1408  S1878   1.775   .     S
C1409  S1879   1.775   .     S
C1409  C23     1.414   1_565 A
C1410  S1880   1.775   .     S
C1411  S1881   1.774   .     S
C1412  H1668   1.083   .     S
C1412  C1418   1.397   .     S
C1413  S1882   1.775   .     S
C1413  C1930   1.414   .     S
C1414  S1883   1.775   .     S
C1415  C25     1.416   1_565 A
C1415  S1884   1.775   .     S
C1416  C1417   1.461   1_554 S
C1416  C1434   1.396   .     S
C1417  C1416   1.461   1_556 S
C1417  C1445   1.397   .     S
C1418  C2092   1.397   1_455 A
C1418  C1419   1.461   1_554 S
C1419  C2103   1.396   1_455 A
C1419  C1418   1.461   1_556 S
C1419  C1423   1.396   .     S
C1420  C1421   1.461   .     S
C1420  C2114   1.396   1_455 S
C1421  C1954   1.397   1_455 S
C1422  C1424   1.461   .     S
C1423  H1679   1.083   .     S
C1425  O1866   1.280   .     S
C1426  O1833   1.279   .     S
C1427  O1844   1.279   .     A
C1427  O2393   1.279   1_455 S
C1428  O1768   1.280   .     A
C1428  O2491   1.280   1_455 S
C1429  O1779   1.280   .     S
C1429  O1786   1.280   .     S
C1430  O1783   1.279   .     A
C1430  O1787   1.279   .     S
C1431  O1784   1.279   .     S
C1431  O1788   1.279   .     S
C1432  O1785   1.280   .     S
C1432  O1790   1.280   .     S
C1433  O1791   1.280   .     A
C1433  C1488   1.465   .     S
C1433  O1819   1.280   .     A
C1434  H1690   1.083   .     S
C1435  O1820   1.277   .     A
C1435  O1792   1.277   .     A
C1436  O1817   1.277   .     A
C1436  O1793   1.277   .     A
C1437  O1818   1.280   .     A
C1437  O1794   1.280   .     A
C1438  O1795   1.280   .     A
C1438  O1824   1.280   .     A
C1439  O1796   1.277   .     A
C1439  O1825   1.277   .     A
C1440  O1797   1.277   .     A
C1440  O1821   1.277   .     A
C1440  C1486   1.452   .     S
C1441  C1487   1.463   .     S
C1441  O1823   1.280   .     A
C1441  O1798   1.280   .     A
C1442  O1799   1.277   .     A
C1442  O1810   1.277   .     A
C1443  O1801   1.280   .     A
C1443  O1812   1.280   .     A
C1444  O1808   1.280   .     A
C1444  O1802   1.280   .     A
C1445  H1701   1.083   .     S
C1446  O1803   1.277   .     A
C1446  O1809   1.277   .     A
C1447  O1815   1.277   .     A
C1447  O1804   1.277   .     A
C1448  O1805   1.280   .     A
C1448  O1816   1.280   .     A
C1449  O1813   1.280   .     A
C1449  O1806   1.280   .     A
C1450  O1807   1.277   .     A
C1450  O1814   1.277   .     A
C1451  O1826   1.385   .     S
C1451  C1468   1.391   .     A
C1452  O1827   1.386   .     S
C1452  C1466   1.391   .     A
C1453  C1465   1.392   .     A
C1453  O1828   1.383   .     S
C1454  C1464   1.392   .     A
C1454  O1829   1.385   .     S
C1455  O1830   1.385   .     S
C1455  C1463   1.391   .     A
C1456  C2054   1.397   .     A
C1456  H1712   1.083   .     S
C1457  C1462   1.391   .     A
C1457  O1831   1.386   .     S
C1458  O1832   1.383   .     S
C1458  C1461   1.392   .     A
C1459  O1834   1.385   .     S
C1459  C1460   1.392   .     A
C1460  O1835   1.383   .     S
C1461  O1836   1.385   .     S
C1462  O1837   1.385   .     S
C1463  O1838   1.386   .     S
C1464  O1839   1.383   .     S
C1465  O1840   1.385   .     S
C1465  C1488   1.416   .     A
C1466  C1487   1.414   .     A
C1466  O1841   1.385   .     S
C1467  H1723   1.083   .     S
C1467  C2055   1.396   .     A
C1468  O1842   1.386   .     S
C1468  C1486   1.408   .     A
C1469  O1843   1.385   .     S
C1469  C1485   1.391   .     A
C1469  C1487   1.414   .     A
C1470  C1486   1.408   .     A
C1470  O1845   1.386   .     S
C1470  C1484   1.391   .     A
C1471  O1846   1.383   .     S
C1471  C1483   1.392   .     A
C1472  C1488   1.416   .     A
C1472  C1482   1.392   .     A
C1472  O1847   1.385   .     S
C1473  C1481   1.391   .     A
C1473  O1848   1.385   .     S
C1474  O1849   1.386   .     S
C1474  C1480   1.391   .     A
C1475  O1850   1.383   .     S
C1475  C1479   1.392   .     A
C1476  C1477   1.392   .     A
C1476  O1851   1.385   .     S
C1477  O1852   1.383   .     S
C1478  H1734   1.083   .     S
C1478  C2056   1.396   .     S
C1479  O1853   1.385   .     S
C1480  O1854   1.385   .     S
C1481  O1856   1.386   .     S
C1482  O1857   1.383   .     S
C1483  O1858   1.385   .     S
C1484  O1859   1.385   .     S
C1485  O1860   1.386   .     S
H1647  O1863   0.991   .     S
H1648  O1867   0.991   .     S
H1649  O1870   0.991   .     S
H1650  O1873   0.991   .     S
H1651  O1876   0.991   .     S
H1652  O1749   0.991   .     S
H1653  O1752   0.991   .     S
H1654  O1755   0.991   .     S
H1655  O1759   0.991   .     S
H1657  O1762   0.991   .     S
H1658  O1765   0.991   .     S
H1659  O1769   0.991   .     S
H1660  O1772   0.991   .     S
H1661  O1775   0.990   .     S
H1662  O1778   0.990   .     S
H1663  O1782   0.991   .     S
O1745  Zn1904  1.945   .     S
O1745  Zn1896  1.945   .     S
O1745  Zn1893  1.945   .     S
O1746  C154    1.279   1_565 A
O1746  Zn1895  1.930   .     S
O1747  S1889   1.503   .     D
O1748  S1889   1.503   .     D
O1749  S1889   1.682   .     S
O1750  S1890   1.503   .     D
O1751  S1890   1.503   .     D
O1752  S1890   1.682   .     S
O1753  S1891   1.502   .     D
O1754  S1891   1.503   .     D
O1755  S1891   1.683   .     S
O1756  S1892   1.502   .     D
O1757  Zn1898  1.930   .     S
O1757  C2063   1.279   .     S
O1758  S1892   1.503   .     D
O1759  S1892   1.683   .     S
O1760  S1878   1.503   .     D
O1761  S1878   1.503   .     D
O1762  S1878   1.682   .     S
O1763  S1879   1.503   .     D
O1764  S1879   1.503   .     D
O1765  S1879   1.682   .     S
O1766  S1880   1.502   .     D
O1767  S1880   1.503   .     D
O1768  Zn1897  1.930   .     S
O1769  S1880   1.683   .     S
O1770  S1881   1.502   .     D
O1771  S1881   1.503   .     D
O1772  S1881   1.683   .     S
O1773  S1882   1.503   .     D
O1774  S1882   1.503   .     D
O1775  S1882   1.682   .     S
O1776  S1883   1.503   .     D
O1777  S1883   1.503   .     D
O1778  S1883   1.682   .     S
O1779  Zn1907  1.930   .     S
O1780  S1884   1.502   .     D
O1781  S1884   1.503   .     D
O1782  S1884   1.683   .     S
O1783  Zn1906  1.930   .     S
O1784  Zn1901  1.930   .     S
O1785  Zn1893  1.930   .     S
O1786  Zn1903  1.930   .     S
O1787  Zn1902  1.930   .     S
O1788  Zn1905  1.930   .     S
O1789  Zn1899  1.945   .     S
O1789  Zn1901  1.945   .     S
O1789  Zn1905  1.945   .     S
O1790  Zn1904  1.930   .     S
O1791  Zn1896  1.942   .     S
O1792  Zn1895  1.942   .     S
O1793  Zn1898  1.938   .     S
O1794  Zn1897  1.938   .     S
O1795  Zn1900  1.942   .     S
O1796  Zn1899  1.942   .     S
O1797  Zn1894  1.938   .     S
O1798  Zn1908  1.938   .     S
O1799  Zn1895  1.938   .     S
O1800  Zn1894  1.945   .     S
O1800  Zn2534  1.945   1_455 S
O1800  Zn1902  1.945   .     S
O1800  Zn1906  1.945   .     S
O1801  Zn1896  1.938   .     S
O1802  Zn1908  1.942   .     S
O1803  Zn1894  1.942   .     S
O1804  Zn1899  1.938   .     S
O1805  Zn1900  1.938   .     S
O1806  Zn1897  1.942   .     S
O1807  Zn1898  1.942   .     S
O1808  Zn2539  1.942   .     S
O1809  Zn1902  1.942   .     S
O1810  Zn633   1.938   1_565 S
O1811  Zn1907  1.945   .     S
O1811  Zn2544  1.945   1_455 S
O1811  Zn1897  1.945   .     S
O1811  Zn1903  1.945   .     S
O1812  Zn1904  1.938   .     S
O1813  Zn1907  1.942   .     S
O1814  Zn2542  1.942   .     S
O1815  Zn1901  1.938   .     S
O1816  Zn621   1.938   1_565 S
O1817  Zn2538  1.938   .     S
O1818  Zn1903  1.938   .     S
O1819  Zn1893  1.942   .     S
O1820  Zn629   1.942   1_565 S
O1821  Zn1906  1.938   .     S
O1822  C153    1.280   1_565 A
O1822  Zn1900  1.930   .     S
O1823  Zn2543  1.938   .     S
O1824  Zn632   1.942   1_565 S
O1825  Zn1905  1.942   .     S
O1833  Zn1899  1.930   .     S
O1844  Zn1894  1.930   .     S
O1855  Zn1908  1.930   .     S
O1855  C2064   1.280   .     S
O1861  S1877   1.502   .     D
O1862  S1877   1.503   .     D
O1863  S1877   1.683   .     S
O1864  S1885   1.503   .     D
O1865  S1885   1.503   .     D
O1866  Zn1896  1.930   .     S
O1867  S1885   1.682   .     S
O1868  S1886   1.503   .     D
O1869  S1886   1.503   .     D
O1870  S1886   1.682   .     S
O1871  S1887   1.502   .     D
O1872  S1887   1.503   .     D
O1873  S1887   1.683   .     S
O1874  S1888   1.502   .     D
O1875  S1888   1.503   .     D
O1876  S1888   1.683   .     S
Zn1895 O517    1.945   1_565 S
Zn1898 O2436   1.945   .     S
Zn1900 O473    1.945   1_565 S
Zn1902 O2453   1.938   1_455 S
Zn1903 O2444   1.942   1_455 S
Zn1906 O2450   1.942   1_455 S
Zn1907 O2459   1.938   1_455 S
Zn1908 O2447   1.945   .     S
C1909  C1987   1.395   .     A
C1909  C780    1.396   1_565 A
C1909  H2125   1.083   .     S
C1910  H2126   1.083   .     S
C1910  C2057   1.397   .     A
C1910  C2044   1.395   .     A
C1911  C2100   1.406   .     A
C1911  C2107   1.406   .     A
C1911  C2071   1.455   .     S
C1912  C2099   1.408   .     A
C1912  C2110   1.408   .     A
C1912  C2072   1.452   .     S
C1913  C2109   1.414   .     A
C1913  C2098   1.414   .     A
C1913  C2073   1.463   .     S
C1914  C2097   1.416   .     A
C1914  C2074   1.465   .     S
C1914  C2112   1.416   .     A
C1915  C2111   1.406   .     A
C1915  C2075   1.455   .     S
C1915  C2096   1.406   .     A
C1916  C2115   1.416   .     A
C1916  C2085   1.465   .     S
C1916  C2095   1.416   .     A
C1917  C2094   1.406   .     A
C1917  C2086   1.455   .     S
C1917  C2113   1.406   .     A
C1918  C2093   1.408   .     A
C1918  C2078   1.452   .     S
C1918  C2117   1.408   .     A
C1919  C2079   1.463   .     S
C1919  C2091   1.414   .     A
C1919  C2116   1.414   .     A
C1920  C2080   1.465   .     S
C1920  C2090   1.416   .     A
C1920  C2119   1.416   .     A
C1921  H2137   1.083   .     S
C1921  C786    1.397   1_565 A
C1921  C2045   1.394   .     A
C1922  C2089   1.406   .     A
C1922  C2082   1.455   .     S
C1922  C2118   1.406   .     A
C1923  C2121   1.408   .     A
C1923  C2088   1.408   .     A
C1923  C2083   1.452   .     S
C1924  C2087   1.414   .     A
C1924  C2084   1.463   .     S
C1924  C2120   1.414   .     A
C1925  C2068   1.457   .     S
C1925  C2032   1.416   .     S
C1926  C2067   1.452   .     S
C1926  C2040   1.414   .     S
C1927  C2009   1.414   .     S
C1927  C2066   1.452   .     S
C1928  C2065   1.457   .     S
C1928  C2021   1.416   .     S
C1929  C2047   1.416   .     A
C1929  C2064   1.457   .     S
C1930  C2063   1.452   .     S
C1930  C2044   1.414   .     A
C1931  C2062   1.452   .     S
C1931  C2050   1.414   .     S
C1932  H2148   1.083   .     S
C1932  C2046   1.395   .     A
C1932  C2060   1.396   .     S
C1933  C2061   1.457   .     S
C1933  C2046   1.416   .     S
C1934  H2214   1.117   .     S
C1934  C1935   1.531   .     S
C1934  O2462   1.419   .     S
C1934  H2203   1.110   .     S
C1935  H2225   1.112   .     S
C1935  C1936   1.526   .     S
C1935  H2237   1.108   .     S
C1936  H2259   1.110   .     S
C1936  H2270   1.109   .     S
C1936  H2248   1.111   .     S
C1937  C1938   1.533   .     S
C1937  H2281   1.111   .     S
C1937  H2292   1.115   .     S
C1937  O2463   1.416   .     S
C1938  H2301   1.111   .     S
C1938  C1939   1.526   .     S
C1938  H2300   1.112   .     S
C1939  H2305   1.111   .     S
C1939  H2303   1.110   .     S
C1939  H2302   1.111   .     S
C1940  H2307   1.115   .     S
C1940  O2464   1.412   .     S
C1940  H2306   1.115   .     S
C1941  H2309   1.111   .     S
C1941  C1942   1.526   .     S
C1941  H2308   1.111   .     S
C1941  C1304   1.527   1_655 S
C1942  H2311   1.109   .     S
C1942  H2312   1.110   .     S
C1942  H2310   1.111   .     S
C1943  C2047   1.395   .     A
C1943  C2056   1.396   .     A
C1943  H2159   1.083   .     S
C1944  H2313   1.110   .     S
C1944  C1945   1.534   .     S
C1944  H2314   1.117   .     S
C1944  O2465   1.419   .     S
C1945  C1946   1.526   .     S
C1945  H2317   1.110   .     S
C1945  H2316   1.111   .     S
C1946  H2318   1.111   .     S
C1946  H2320   1.111   .     S
C1946  H2319   1.110   .     S
C1947  C1948   1.531   .     S
C1947  H2321   1.110   .     S
C1947  O2466   1.419   .     S
C1947  H2322   1.117   .     S
C1948  H2323   1.112   .     S
C1948  H2324   1.108   .     S
C1948  C1949   1.526   .     S
C1949  H2325   1.111   .     S
C1949  H2327   1.110   .     S
C1949  H2328   1.109   .     S
C1950  H2329   1.111   .     S
C1950  O2467   1.416   .     S
C1950  C1951   1.533   .     S
C1950  H2330   1.115   .     S
C1951  C1952   1.526   .     S
C1951  H2332   1.111   .     S
C1951  H2331   1.112   .     S
C1952  H2335   1.111   .     S
C1952  H2334   1.110   .     S
C1952  H2333   1.111   .     S
C1953  H2338   1.115   .     S
C1953  O2468   1.412   .     S
C1953  H2336   1.115   .     S
C1953  C1319   1.527   1_655 S
C1954  C2049   1.394   .     A
C1954  H2170   1.083   .     S
C1954  C1421   1.397   1_655 S
C1955  C1956   1.526   .     S
C1955  H2340   1.111   .     S
C1955  H2339   1.111   .     S
C1956  H2341   1.111   .     S
C1956  H2343   1.110   .     S
C1956  H2342   1.109   .     S
C1957  H2345   1.117   .     S
C1957  C1958   1.534   .     S
C1957  H2344   1.110   .     S
C1957  O2470   1.419   .     S
C1958  H2347   1.110   .     S
C1958  C1959   1.526   .     S
C1958  H2346   1.111   .     S
C1959  H2351   1.111   .     S
C1959  H2349   1.111   .     S
C1959  H2350   1.110   .     S
C1960  O2471   1.412   .     S
C1960  H2352   1.115   .     S
C1960  H2353   1.115   .     S
C1961  H2355   1.111   .     S
C1961  H2354   1.111   .     S
C1961  C1962   1.526   .     S
C1961  C688    1.527   1_565 S
C1962  H2358   1.110   .     S
C1962  H2357   1.109   .     S
C1962  H2356   1.111   .     S
C1963  C1964   1.534   .     S
C1963  H2360   1.110   .     S
C1963  H2361   1.117   .     S
C1963  O2472   1.419   .     S
C1964  H2363   1.110   .     S
C1964  C1966   1.526   .     S
C1964  H2362   1.111   .     S
C1965  C2050   1.394   .     A
C1965  H2181   1.083   .     S
C1965  C2058   1.397   .     S
C1966  H2365   1.110   .     S
C1966  H2366   1.111   .     S
C1966  H2364   1.111   .     S
C1967  C1968   1.531   .     S
C1967  H2367   1.110   .     S
C1967  O2473   1.419   .     S
C1967  H2368   1.117   .     S
C1968  H2369   1.112   .     S
C1968  H2371   1.108   .     S
C1968  C1969   1.526   .     S
C1969  H2373   1.110   .     S
C1969  H2374   1.109   .     S
C1969  H2372   1.111   .     S
C1970  H2375   1.111   .     S
C1970  O2474   1.416   .     S
C1970  C1971   1.533   .     S
C1970  H2376   1.115   .     S
C1971  H2377   1.112   .     S
C1971  C1972   1.526   .     S
C1971  H2378   1.111   .     S
C1972  H2379   1.111   .     S
C1972  H2127   1.111   .     S
C1972  H2380   1.110   .     S
C1973  H2129   1.115   .     S
C1973  H2128   1.115   .     S
C1973  O2475   1.412   .     S
C1973  C702    1.527   1_565 S
C1974  H2130   1.111   .     S
C1974  C1975   1.526   .     S
C1974  H2131   1.111   .     S
C1975  H2134   1.110   .     S
C1975  H2133   1.110   .     S
C1975  H2132   1.111   .     S
C1976  C2051   1.395   .     A
C1976  H2192   1.083   .     S
C1976  C788    1.396   1_565 A
C1977  O2476   1.419   .     S
C1977  C1978   1.534   .     S
C1977  H2136   1.117   .     S
C1977  H2135   1.110   .     S
C1978  H2139   1.110   .     S
C1978  C1979   1.526   .     S
C1978  H2138   1.111   .     S
C1979  H2142   1.111   .     S
C1979  H2141   1.110   .     S
C1979  H2140   1.111   .     S
C1980  H2144   1.117   .     S
C1980  C1981   1.531   .     S
C1980  O2477   1.419   .     S
C1980  H2143   1.110   .     S
C1981  C1982   1.526   .     S
C1981  H2146   1.108   .     S
C1981  H2145   1.112   .     S
C1982  H2150   1.109   .     S
C1982  H2147   1.111   .     S
C1982  H2149   1.110   .     S
C1983  H2152   1.115   .     S
C1983  O2478   1.416   .     S
C1983  C1984   1.533   .     S
C1983  H2151   1.111   .     S
C1984  H2153   1.112   .     S
C1984  C1985   1.526   .     S
C1984  H2154   1.111   .     S
C1985  H2155   1.111   .     S
C1985  H2157   1.111   .     S
C1985  H2156   1.110   .     S
C1986  H2160   1.117   .     S
C1986  C1988   1.531   .     S
C1986  O2479   1.419   .     S
C1986  H2158   1.110   .     S
C1987  S2513   1.774   .     S
C1987  C653    1.416   1_565 A
C1988  H2162   1.108   .     S
C1988  H2161   1.112   .     S
C1988  C1989   1.526   .     S
C1989  H2163   1.111   .     S
C1989  H2165   1.109   .     S
C1989  H2164   1.110   .     S
C1990  H2166   1.111   .     S
C1990  C1991   1.533   .     S
C1990  H2167   1.115   .     S
C1990  O2481   1.416   .     S
C1991  H2168   1.112   .     S
C1991  C1992   1.526   .     S
C1991  H2169   1.111   .     S
C1992  H2171   1.111   .     S
C1992  H2172   1.110   .     S
C1992  H2173   1.111   .     S
C1993  H2175   1.115   .     S
C1993  O2482   1.412   .     S
C1993  C1994   1.527   .     S
C1993  H2174   1.115   .     S
C1994  H2176   1.111   .     S
C1994  H2177   1.111   .     S
C1994  C1995   1.526   .     S
C1995  H2180   1.110   .     S
C1995  H2178   1.111   .     S
C1995  H2179   1.109   .     S
C1996  C1997   1.534   .     S
C1996  H2183   1.117   .     S
C1996  O2483   1.419   .     S
C1996  H2182   1.110   .     S
C1997  C1999   1.526   .     S
C1997  H2185   1.110   .     S
C1997  H2184   1.111   .     S
C1998  S2521   1.775   .     S
C1998  C654    1.414   1_565 A
C1998  C2020   1.395   .     A
C1999  H2186   1.111   .     S
C1999  H2187   1.110   .     S
C1999  H2188   1.111   .     S
C2000  H2190   1.117   .     S
C2000  H2189   1.110   .     S
C2000  O2484   1.419   .     S
C2000  C2001   1.531   .     S
C2001  H2193   1.108   .     S
C2001  C2002   1.526   .     S
C2001  H2191   1.112   .     S
C2002  H2195   1.110   .     S
C2002  H2196   1.109   .     S
C2002  H2194   1.111   .     S
C2003  H2198   1.115   .     S
C2003  O2485   1.416   .     S
C2003  H2197   1.111   .     S
C2003  C2004   1.533   .     S
C2004  H2200   1.111   .     S
C2004  H2199   1.112   .     S
C2004  C2005   1.526   .     S
C2005  H2202   1.110   .     S
C2005  H2204   1.111   .     S
C2005  H2201   1.111   .     S
C2006  O2486   1.412   .     S
C2006  C2007   1.527   .     S
C2006  H2205   1.115   .     S
C2006  H2206   1.115   .     S
C2007  H2207   1.111   .     S
C2007  H2208   1.111   .     S
C2007  C2008   1.526   .     S
C2008  H2211   1.110   .     S
C2008  H2209   1.111   .     S
C2008  H2210   1.109   .     S
C2009  S2522   1.775   .     S
C2009  C2048   1.394   .     A
C2010  O2487   1.419   .     S
C2010  H2213   1.117   .     S
C2010  C2011   1.534   .     S
C2010  H2212   1.110   .     S
C2011  C2012   1.526   .     S
C2011  H2216   1.110   .     S
C2011  H2215   1.111   .     S
C2012  H2219   1.111   .     S
C2012  H2218   1.110   .     S
C2012  H2217   1.111   .     S
C2013  H2220   1.115   .     S
C2013  O2488   1.412   .     S
C2013  H2221   1.115   .     S
C2013  C2014   1.527   .     S
C2014  C2015   1.526   .     S
C2014  H2223   1.111   .     S
C2014  H2222   1.111   .     S
C2015  H2226   1.109   .     S
C2015  H2224   1.111   .     S
C2015  H2227   1.110   .     S
C2016  C2017   1.534   .     S
C2016  H2229   1.117   .     S
C2016  H2228   1.110   .     S
C2016  O2489   1.419   .     S
C2017  H2231   1.110   .     S
C2017  H2230   1.111   .     S
C2017  C2018   1.526   .     S
C2018  H2234   1.111   .     S
C2018  H2232   1.111   .     S
C2018  H2233   1.110   .     S
C2019  H2238   1.117   .     S
C2019  O2490   1.419   .     S
C2019  C2022   1.531   .     S
C2019  H2235   1.110   .     S
C2020  H2236   1.083   .     S
C2020  C781    1.397   1_565 A
C2021  C2059   1.395   .     A
C2021  S2523   1.774   .     S
C2022  C2023   1.526   .     S
C2022  H2240   1.108   .     S
C2022  H2239   1.112   .     S
C2023  H2241   1.111   .     S
C2023  H2243   1.109   .     S
C2023  H2242   1.110   .     S
C2024  O2492   1.416   .     S
C2024  H2245   1.115   .     S
C2024  H2244   1.111   .     S
C2024  C2025   1.533   .     S
C2025  H2247   1.111   .     S
C2025  C2026   1.526   .     S
C2025  H2246   1.112   .     S
C2026  H2250   1.110   .     S
C2026  H2251   1.111   .     S
C2026  H2249   1.111   .     S
C2027  H2253   1.115   .     S
C2027  H2252   1.115   .     S
C2027  C2028   1.527   .     S
C2027  O2493   1.412   .     S
C2028  H2255   1.111   .     S
C2028  H2254   1.111   .     S
C2028  C2029   1.526   .     S
C2029  H2258   1.110   .     S
C2029  H2256   1.111   .     S
C2029  H2257   1.109   .     S
C2030  O2494   1.419   .     S
C2030  H2260   1.110   .     S
C2030  H2261   1.117   .     S
C2030  C2031   1.534   .     S
C2031  H2263   1.110   .     S
C2031  H2262   1.111   .     S
C2031  C2033   1.526   .     S
C2032  S2524   1.775   .     S
C2032  C2070   1.395   .     A
C2033  H2266   1.111   .     S
C2033  H2265   1.110   .     S
C2033  H2264   1.111   .     S
C2034  C2035   1.531   .     S
C2034  H2268   1.117   .     S
C2034  H2267   1.110   .     S
C2034  O2495   1.419   .     S
C2035  H2271   1.108   .     S
C2035  H2269   1.112   .     S
C2035  C2036   1.526   .     S
C2036  H2272   1.111   .     S
C2036  H2273   1.110   .     S
C2036  H2274   1.109   .     S
C2037  H2276   1.115   .     S
C2037  C2038   1.533   .     S
C2037  O2496   1.416   .     S
C2037  H2275   1.111   .     S
C2038  H2278   1.111   .     S
C2038  C2039   1.526   .     S
C2038  H2277   1.112   .     S
C2039  H2280   1.110   .     S
C2039  H2279   1.111   .     S
C2039  H2282   1.111   .     S
C2040  S2525   1.775   .     S
C2040  C2081   1.394   .     A
C2041  C1291   1.414   1_655 A
C2041  S2526   1.775   .     S
C2041  C2092   1.394   .     A
C2042  C1292   1.416   1_655 A
C2042  C2103   1.395   .     A
C2042  S2527   1.775   .     S
C2043  S2528   1.774   .     S
C2043  C2114   1.395   .     A
C2043  C1293   1.416   1_655 S
C2044  S2514   1.775   .     S
C2045  S2515   1.775   .     S
C2045  C659    1.414   1_565 A
C2046  S2516   1.775   .     S
C2047  S2517   1.774   .     S
C2048  H2304   1.083   .     S
C2048  C2054   1.397   .     S
C2049  S2518   1.775   .     S
C2049  C1294   1.414   1_655 S
C2050  S2519   1.775   .     S
C2051  C661    1.416   1_565 A
C2051  S2520   1.775   .     S
C2052  C2053   1.461   1_554 S
C2052  C2070   1.396   .     S
C2053  C2052   1.461   1_556 S
C2053  C2081   1.397   .     S
C2054  C2055   1.461   1_554 S
C2055  C2054   1.461   1_556 S
C2055  C2059   1.396   .     S
C2056  C2057   1.461   .     S
C2058  C2060   1.461   .     S
C2059  H2315   1.083   .     S
C2061  O2502   1.280   .     S
C2062  O2469   1.279   .     S
C2063  O2480   1.279   .     A
C2064  O2404   1.280   .     A
C2065  O2415   1.280   .     S
C2065  O2422   1.280   .     S
C2066  O2419   1.279   .     A
C2066  O2423   1.279   .     S
C2067  O2420   1.279   .     S
C2067  O2424   1.279   .     S
C2068  O2421   1.280   .     S
C2068  O2426   1.280   .     S
C2069  O2427   1.280   .     A
C2069  C2124   1.465   .     S
C2069  O2455   1.280   .     A
C2070  H2326   1.083   .     S
C2071  O2456   1.277   .     A
C2071  O2428   1.277   .     A
C2072  O2453   1.277   .     A
C2072  O2429   1.277   .     A
C2073  O2454   1.280   .     A
C2073  O2430   1.280   .     A
C2074  O2431   1.280   .     A
C2074  O2460   1.280   .     A
C2075  O2432   1.277   .     A
C2075  O2461   1.277   .     A
C2076  O2433   1.277   .     A
C2076  O2457   1.277   .     A
C2076  C2122   1.452   .     S
C2077  C2123   1.463   .     S
C2077  O2459   1.280   .     A
C2077  O2434   1.280   .     A
C2078  O2435   1.277   .     A
C2078  O2446   1.277   .     A
C2079  O2437   1.280   .     A
C2079  O2448   1.280   .     A
C2080  O2444   1.280   .     A
C2080  O2438   1.280   .     A
C2081  H2337   1.083   .     S
C2082  O2439   1.277   .     A
C2082  O2445   1.277   .     A
C2083  O2451   1.277   .     A
C2083  O2440   1.277   .     A
C2084  O2441   1.280   .     A
C2084  O2452   1.280   .     A
C2085  O2449   1.280   .     A
C2085  O2442   1.280   .     A
C2086  O2443   1.277   .     A
C2086  O2450   1.277   .     A
C2087  O2462   1.385   .     S
C2087  C2104   1.391   .     A
C2088  O2463   1.386   .     S
C2088  C2102   1.391   .     A
C2089  C2101   1.392   .     A
C2089  O2464   1.383   .     S
C2090  C2100   1.392   .     A
C2090  O2465   1.385   .     S
C2091  O2466   1.385   .     S
C2091  C2099   1.391   .     A
C2092  C1418   1.397   1_655 A
C2092  H2348   1.083   .     S
C2093  C2098   1.391   .     A
C2093  O2467   1.386   .     S
C2094  O2468   1.383   .     S
C2094  C2097   1.392   .     A
C2095  O2470   1.385   .     S
C2095  C2096   1.392   .     A
C2096  O2471   1.383   .     S
C2097  O2472   1.385   .     S
C2098  O2473   1.385   .     S
C2099  O2474   1.386   .     S
C2100  O2475   1.383   .     S
C2101  O2476   1.385   .     S
C2101  C2124   1.416   .     A
C2102  C2123   1.414   .     A
C2102  O2477   1.385   .     S
C2103  H2359   1.083   .     S
C2103  C1419   1.396   1_655 A
C2104  O2478   1.386   .     S
C2104  C2122   1.408   .     A
C2105  O2479   1.385   .     S
C2105  C2121   1.391   .     A
C2105  C2123   1.414   .     A
C2106  C2122   1.408   .     A
C2106  O2481   1.386   .     S
C2106  C2120   1.391   .     A
C2107  O2482   1.383   .     S
C2107  C2119   1.392   .     A
C2108  C2124   1.416   .     A
C2108  C2118   1.392   .     A
C2108  O2483   1.385   .     S
C2109  C2117   1.391   .     A
C2109  O2484   1.385   .     S
C2110  O2485   1.386   .     S
C2110  C2116   1.391   .     A
C2111  O2486   1.383   .     S
C2111  C2115   1.392   .     A
C2112  C2113   1.392   .     A
C2112  O2487   1.385   .     S
C2113  O2488   1.383   .     S
C2114  H2370   1.083   .     S
C2114  C1420   1.396   1_655 S
C2115  O2489   1.385   .     S
C2116  O2490   1.385   .     S
C2117  O2492   1.386   .     S
C2118  O2493   1.383   .     S
C2119  O2494   1.385   .     S
C2120  O2495   1.385   .     S
C2121  O2496   1.386   .     S
H2283  O2499   0.991   .     S
H2284  O2503   0.991   .     S
H2285  O2506   0.991   .     S
H2286  O2509   0.991   .     S
H2287  O2512   0.991   .     S
H2288  O2385   0.991   .     S
H2289  O2388   0.991   .     S
H2290  O2391   0.991   .     S
H2291  O2395   0.991   .     S
H2293  O2398   0.991   .     S
H2294  O2401   0.991   .     S
H2295  O2405   0.991   .     S
H2296  O2408   0.991   .     S
H2297  O2411   0.990   .     S
H2298  O2414   0.990   .     S
H2299  O2418   0.991   .     S
O2381  Zn2540  1.945   .     S
O2381  Zn2532  1.945   .     S
O2381  Zn2529  1.945   .     S
O2382  C790    1.279   1_565 A
O2382  Zn2531  1.930   .     S
O2383  S2525   1.503   .     D
O2384  S2525   1.503   .     D
O2385  S2525   1.682   .     S
O2386  S2526   1.503   .     D
O2387  S2526   1.503   .     D
O2388  S2526   1.682   .     S
O2389  S2527   1.502   .     D
O2390  S2527   1.503   .     D
O2391  S2527   1.683   .     S
O2392  S2528   1.502   .     D
O2393  Zn2534  1.930   .     S
O2393  C1427   1.279   1_655 S
O2394  S2528   1.503   .     D
O2395  S2528   1.683   .     S
O2396  S2514   1.503   .     D
O2397  S2514   1.503   .     D
O2398  S2514   1.682   .     S
O2399  S2515   1.503   .     D
O2400  S2515   1.503   .     D
O2401  S2515   1.682   .     S
O2402  S2516   1.502   .     D
O2403  S2516   1.503   .     D
O2404  Zn2533  1.930   .     S
O2405  S2516   1.683   .     S
O2406  S2517   1.502   .     D
O2407  S2517   1.503   .     D
O2408  S2517   1.683   .     S
O2409  S2518   1.503   .     D
O2410  S2518   1.503   .     D
O2411  S2518   1.682   .     S
O2412  S2519   1.503   .     D
O2413  S2519   1.503   .     D
O2414  S2519   1.682   .     S
O2415  Zn2543  1.930   .     S
O2416  S2520   1.502   .     D
O2417  S2520   1.503   .     D
O2418  S2520   1.683   .     S
O2419  Zn2542  1.930   .     S
O2420  Zn2537  1.930   .     S
O2421  Zn2529  1.930   .     S
O2422  Zn2539  1.930   .     S
O2423  Zn2538  1.930   .     S
O2424  Zn2541  1.930   .     S
O2425  Zn2535  1.945   .     S
O2425  Zn2537  1.945   .     S
O2425  Zn2541  1.945   .     S
O2426  Zn2540  1.930   .     S
O2427  Zn2532  1.942   .     S
O2428  Zn2531  1.942   .     S
O2429  Zn2534  1.938   .     S
O2430  Zn2533  1.938   .     S
O2431  Zn2536  1.942   .     S
O2432  Zn2535  1.942   .     S
O2433  Zn2530  1.938   .     S
O2434  Zn2544  1.938   .     S
O2435  Zn2531  1.938   .     S
O2436  Zn2530  1.945   .     S
O2436  Zn2538  1.945   .     S
O2436  Zn2542  1.945   .     S
O2437  Zn2532  1.938   .     S
O2438  Zn2544  1.942   .     S
O2439  Zn2530  1.942   .     S
O2440  Zn2535  1.938   .     S
O2441  Zn2536  1.938   .     S
O2442  Zn2533  1.942   .     S
O2443  Zn2534  1.942   .     S
O2444  Zn1903  1.942   1_655 S
O2445  Zn2538  1.942   .     S
O2446  Zn1269  1.938   1_565 S
O2447  Zn2543  1.945   .     S
O2447  Zn2533  1.945   .     S
O2447  Zn2539  1.945   .     S
O2448  Zn2540  1.938   .     S
O2449  Zn2543  1.942   .     S
O2450  Zn1906  1.942   1_655 S
O2451  Zn2537  1.938   .     S
O2452  Zn1257  1.938   1_565 S
O2453  Zn1902  1.938   1_655 S
O2454  Zn2539  1.938   .     S
O2455  Zn2529  1.942   .     S
O2456  Zn1265  1.942   1_565 S
O2457  Zn2542  1.938   .     S
O2458  C789    1.280   1_565 A
O2458  Zn2536  1.930   .     S
O2459  Zn1907  1.938   1_655 S
O2460  Zn1268  1.942   1_565 S
O2461  Zn2541  1.942   .     S
O2469  Zn2535  1.930   .     S
O2480  Zn2530  1.930   .     S
O2491  Zn2544  1.930   .     S
O2491  C1428   1.280   1_655 S
O2497  S2513   1.502   .     D
O2498  S2513   1.503   .     D
O2499  S2513   1.683   .     S
O2500  S2521   1.503   .     D
O2501  S2521   1.503   .     D
O2502  Zn2532  1.930   .     S
O2503  S2521   1.682   .     S
O2504  S2522   1.503   .     D
O2505  S2522   1.503   .     D
O2506  S2522   1.682   .     S
O2507  S2523   1.502   .     D
O2508  S2523   1.503   .     D
O2509  S2523   1.683   .     S
O2510  S2524   1.502   .     D
O2511  S2524   1.503   .     D
O2512  S2524   1.683   .     S
Zn2531 O1153   1.945   1_565 S
Zn2534 O1800   1.945   1_655 S
Zn2536 O1109   1.945   1_565 S
Zn2544 O1811   1.945   1_655 S
