data_str_m2_o1_o2_pcu_sym.102
_audit_creation_date              2020-01-03
_audit_creation_method            'Materials Studio'
_symmetry_space_group_name_H-M    'P1'
_symmetry_Int_Tables_number       1
_symmetry_cell_setting            triclinic
loop_
_symmetry_equiv_pos_as_xyz
  x,y,z
_cell_length_a                    32.3380
_cell_length_b                    28.9407
_cell_length_c                    30.2634
_cell_angle_alpha                 89.8627
_cell_angle_beta                  92.9275
_cell_angle_gamma                 89.7813
loop_
_atom_site_label
_atom_site_type_symbol
_atom_site_fract_x
_atom_site_fract_y
_atom_site_fract_z
_atom_site_U_iso_or_equiv
_atom_site_adp_type
_atom_site_occupancy
O1     O     0.10655   0.20625   0.25000   0.00000  Uiso   1.00
O2     O     0.22679   0.12709   0.25001   0.00000  Uiso   1.00
O3     O     0.22679   0.20625   0.25001   0.00000  Uiso   1.00
O4     O     0.10655   0.12709   0.25000   0.00000  Uiso   1.00
N5     N     0.16667   0.28402   0.25000   0.00000  Uiso   1.00
N6     N     0.16667   0.04931   0.25000   0.00000  Uiso   1.00
C7     C     0.08765   0.16669   0.24956   0.00000  Uiso   1.00
C8     C     0.24569   0.16664   0.25046   0.00000  Uiso   1.00
O9     O     0.16666   0.20626   0.18573   0.00000  Uiso   1.00
O10    O     0.16667   0.12707   0.31427   0.00000  Uiso   1.00
O11    O     0.16667   0.20626   0.31427   0.00000  Uiso   1.00
O12    O     0.16666   0.12707   0.18573   0.00000  Uiso   1.00
C13    C     0.16679   0.16667   0.16509   0.00000  Uiso   1.00
C14    C     0.16684   0.16660   0.33487   0.00000  Uiso   1.00
Cu15   Cu    0.16667   0.21355   0.25000   0.00000  Uiso   1.00
Cu16   Cu    0.16667   0.11978   0.25000   0.00000  Uiso   1.00
C17    C     0.14051   0.02520   0.22154   0.00000  Uiso   1.00
C18    C     0.19376   0.30843   0.27759   0.00000  Uiso   1.00
C19    C     0.19192   0.02449   0.27946   0.00000  Uiso   1.00
C20    C     0.14115   0.30901   0.22052   0.00000  Uiso   1.00
C21    C     0.02392   0.15314   0.28859   0.00000  Uiso   1.00
C22    C     0.30945   0.18009   0.21141   0.00000  Uiso   1.00
C23    C     0.31383   0.15396   0.28922   0.00000  Uiso   1.00
C24    C     0.01953   0.17910   0.21072   0.00000  Uiso   1.00
C25    C     0.15815   0.20667   0.04679   0.00000  Uiso   1.00
C26    C     0.15319   0.12746   0.45154   0.00000  Uiso   1.00
C27    C     0.18246   0.20454   0.45298   0.00000  Uiso   1.00
C28    C     0.17752   0.12564   0.04845   0.00000  Uiso   1.00
H29    H     0.14990   0.23814   0.02897   0.00000  Uiso   1.00
H30    H     0.14112   0.09758   0.46812   0.00000  Uiso   1.00
H31    H     0.19479   0.23429   0.47074   0.00000  Uiso   1.00
H32    H     0.18593   0.09405   0.03197   0.00000  Uiso   1.00
C33    C     0.15833   0.20698   0.09268   0.00000  Uiso   1.00
C34    C     0.15314   0.12754   0.40560   0.00000  Uiso   1.00
C35    C     0.18166   0.20494   0.40705   0.00000  Uiso   1.00
C36    C     0.17695   0.12577   0.09437   0.00000  Uiso   1.00
H37    H     0.15098   0.23878   0.10917   0.00000  Uiso   1.00
H38    H     0.14146   0.09756   0.38765   0.00000  Uiso   1.00
H39    H     0.19293   0.23515   0.39037   0.00000  Uiso   1.00
H40    H     0.18449   0.09415   0.11228   0.00000  Uiso   1.00
C41    C     0.16735   0.16649   0.11679   0.00000  Uiso   1.00
C42    C     0.16717   0.16638   0.38311   0.00000  Uiso   1.00
C43    C     0.16790   0.16605   0.02425   0.00000  Uiso   1.00
C44    C     0.16796   0.16593   0.47564   0.00000  Uiso   1.00
C45    C     0.29047   0.16680   0.25040   0.00000  Uiso   1.00
C46    C     0.04289   0.16647   0.24961   0.00000  Uiso   1.00
C47    C     0.10882   0.05054   0.19417   0.00000  Uiso   1.00
H48    H     0.11716   0.06985   0.16534   0.00000  Uiso   1.00
O49    O     0.07239   0.04787   0.20262   0.00000  Uiso   1.00
C50    C     0.22825   0.28428   0.30241   0.00000  Uiso   1.00
H51    H     0.22366   0.25284   0.32035   0.00000  Uiso   1.00
O52    O     0.26338   0.29964   0.30248   0.00000  Uiso   1.00
C53    C     0.21511   0.04839   0.31615   0.00000  Uiso   1.00
H54    H     0.23241   0.07925   0.31071   0.00000  Uiso   1.00
O55    O     0.21474   0.03337   0.35388   0.00000  Uiso   1.00
C56    C     0.11610   0.28519   0.18487   0.00000  Uiso   1.00
H57    H     0.10244   0.25213   0.18972   0.00000  Uiso   1.00
O58    O     0.11087   0.30254   0.14817   0.00000  Uiso   1.00
C59    C     0.05031   0.14145   0.32896   0.00000  Uiso   1.00
H60    H     0.07789   0.16151   0.33714   0.00000  Uiso   1.00
O61    O     0.04272   0.10831   0.35214   0.00000  Uiso   1.00
C62    C     0.28308   0.19190   0.17108   0.00000  Uiso   1.00
H63    H     0.25569   0.17162   0.16263   0.00000  Uiso   1.00
O64    O     0.29045   0.22541   0.14829   0.00000  Uiso   1.00
C65    C     0.29299   0.14457   0.33106   0.00000  Uiso   1.00
H66    H     0.30194   0.11520   0.35167   0.00000  Uiso   1.00
O67    O     0.26573   0.17017   0.34320   0.00000  Uiso   1.00
C68    C     0.04035   0.18796   0.16873   0.00000  Uiso   1.00
H69    H     0.03099   0.21665   0.14744   0.00000  Uiso   1.00
O70    O     0.06804   0.16261   0.15717   0.00000  Uiso   1.00
O71    O     0.43988   0.20625   0.25000   0.00000  Uiso   1.00
O72    O     0.56012   0.12709   0.25001   0.00000  Uiso   1.00
O73    O     0.56012   0.20625   0.25001   0.00000  Uiso   1.00
O74    O     0.43988   0.12709   0.25000   0.00000  Uiso   1.00
N75    N     0.50000   0.28402   0.25000   0.00000  Uiso   1.00
N76    N     0.50000   0.04931   0.25000   0.00000  Uiso   1.00
C77    C     0.42099   0.16669   0.24956   0.00000  Uiso   1.00
C78    C     0.57902   0.16664   0.25046   0.00000  Uiso   1.00
O79    O     0.50000   0.20626   0.18573   0.00000  Uiso   1.00
O80    O     0.50000   0.12707   0.31427   0.00000  Uiso   1.00
O81    O     0.50000   0.20626   0.31427   0.00000  Uiso   1.00
O82    O     0.50000   0.12707   0.18573   0.00000  Uiso   1.00
C83    C     0.50013   0.16667   0.16509   0.00000  Uiso   1.00
C84    C     0.50017   0.16660   0.33487   0.00000  Uiso   1.00
Cu85   Cu    0.50000   0.21355   0.25000   0.00000  Uiso   1.00
Cu86   Cu    0.50000   0.11978   0.25000   0.00000  Uiso   1.00
C87    C     0.47384   0.02520   0.22154   0.00000  Uiso   1.00
C88    C     0.52709   0.30843   0.27759   0.00000  Uiso   1.00
C89    C     0.52525   0.02449   0.27946   0.00000  Uiso   1.00
C90    C     0.47449   0.30901   0.22052   0.00000  Uiso   1.00
C91    C     0.35725   0.15314   0.28859   0.00000  Uiso   1.00
C92    C     0.64278   0.18009   0.21141   0.00000  Uiso   1.00
C93    C     0.64716   0.15396   0.28922   0.00000  Uiso   1.00
C94    C     0.35287   0.17910   0.21072   0.00000  Uiso   1.00
C95    C     0.49148   0.20667   0.04679   0.00000  Uiso   1.00
C96    C     0.48653   0.12746   0.45154   0.00000  Uiso   1.00
C97    C     0.51580   0.20454   0.45298   0.00000  Uiso   1.00
C98    C     0.51086   0.12564   0.04845   0.00000  Uiso   1.00
H99    H     0.48324   0.23814   0.02897   0.00000  Uiso   1.00
H100   H     0.47445   0.09758   0.46812   0.00000  Uiso   1.00
H101   H     0.52812   0.23429   0.47074   0.00000  Uiso   1.00
H102   H     0.51926   0.09405   0.03197   0.00000  Uiso   1.00
C103   C     0.49166   0.20698   0.09268   0.00000  Uiso   1.00
C104   C     0.48647   0.12754   0.40560   0.00000  Uiso   1.00
C105   C     0.51500   0.20494   0.40705   0.00000  Uiso   1.00
C106   C     0.51028   0.12577   0.09437   0.00000  Uiso   1.00
H107   H     0.48431   0.23878   0.10917   0.00000  Uiso   1.00
H108   H     0.47480   0.09756   0.38765   0.00000  Uiso   1.00
H109   H     0.52627   0.23515   0.39037   0.00000  Uiso   1.00
H110   H     0.51782   0.09415   0.11228   0.00000  Uiso   1.00
C111   C     0.50069   0.16649   0.11679   0.00000  Uiso   1.00
C112   C     0.50050   0.16638   0.38311   0.00000  Uiso   1.00
C113   C     0.50123   0.16605   0.02425   0.00000  Uiso   1.00
C114   C     0.50130   0.16593   0.47564   0.00000  Uiso   1.00
C115   C     0.62380   0.16680   0.25040   0.00000  Uiso   1.00
C116   C     0.37622   0.16647   0.24961   0.00000  Uiso   1.00
C117   C     0.44215   0.05054   0.19417   0.00000  Uiso   1.00
H118   H     0.45049   0.06985   0.16534   0.00000  Uiso   1.00
O119   O     0.40572   0.04787   0.20262   0.00000  Uiso   1.00
C120   C     0.56159   0.28428   0.30241   0.00000  Uiso   1.00
H121   H     0.55699   0.25284   0.32035   0.00000  Uiso   1.00
O122   O     0.59672   0.29964   0.30248   0.00000  Uiso   1.00
C123   C     0.54844   0.04839   0.31615   0.00000  Uiso   1.00
H124   H     0.56574   0.07925   0.31071   0.00000  Uiso   1.00
O125   O     0.54808   0.03337   0.35388   0.00000  Uiso   1.00
C126   C     0.44943   0.28519   0.18487   0.00000  Uiso   1.00
H127   H     0.43577   0.25213   0.18972   0.00000  Uiso   1.00
O128   O     0.44420   0.30254   0.14817   0.00000  Uiso   1.00
C129   C     0.38364   0.14145   0.32896   0.00000  Uiso   1.00
H130   H     0.41122   0.16151   0.33714   0.00000  Uiso   1.00
O131   O     0.37605   0.10831   0.35214   0.00000  Uiso   1.00
C132   C     0.61641   0.19190   0.17108   0.00000  Uiso   1.00
H133   H     0.58902   0.17162   0.16263   0.00000  Uiso   1.00
O134   O     0.62378   0.22541   0.14829   0.00000  Uiso   1.00
C135   C     0.62632   0.14457   0.33106   0.00000  Uiso   1.00
H136   H     0.63527   0.11520   0.35167   0.00000  Uiso   1.00
O137   O     0.59906   0.17017   0.34320   0.00000  Uiso   1.00
C138   C     0.37369   0.18796   0.16873   0.00000  Uiso   1.00
H139   H     0.36432   0.21665   0.14744   0.00000  Uiso   1.00
O140   O     0.40137   0.16261   0.15717   0.00000  Uiso   1.00
O141   O     0.77321   0.20625   0.25000   0.00000  Uiso   1.00
O142   O     0.89345   0.12709   0.25001   0.00000  Uiso   1.00
O143   O     0.89345   0.20625   0.25001   0.00000  Uiso   1.00
O144   O     0.77321   0.12709   0.25000   0.00000  Uiso   1.00
N145   N     0.83333   0.28402   0.25000   0.00000  Uiso   1.00
N146   N     0.83333   0.04931   0.25000   0.00000  Uiso   1.00
C147   C     0.75432   0.16669   0.24956   0.00000  Uiso   1.00
C148   C     0.91236   0.16664   0.25046   0.00000  Uiso   1.00
O149   O     0.83333   0.20626   0.18573   0.00000  Uiso   1.00
O150   O     0.83334   0.12707   0.31427   0.00000  Uiso   1.00
O151   O     0.83334   0.20626   0.31427   0.00000  Uiso   1.00
O152   O     0.83333   0.12707   0.18573   0.00000  Uiso   1.00
C153   C     0.83346   0.16667   0.16509   0.00000  Uiso   1.00
C154   C     0.83351   0.16660   0.33487   0.00000  Uiso   1.00
Cu155  Cu    0.83333   0.21355   0.25000   0.00000  Uiso   1.00
Cu156  Cu    0.83333   0.11978   0.25000   0.00000  Uiso   1.00
C157   C     0.80717   0.02520   0.22154   0.00000  Uiso   1.00
C158   C     0.86042   0.30843   0.27759   0.00000  Uiso   1.00
C159   C     0.85859   0.02449   0.27946   0.00000  Uiso   1.00
C160   C     0.80782   0.30901   0.22052   0.00000  Uiso   1.00
C161   C     0.69059   0.15314   0.28859   0.00000  Uiso   1.00
C162   C     0.97611   0.18009   0.21141   0.00000  Uiso   1.00
C163   C     0.98050   0.15396   0.28922   0.00000  Uiso   1.00
C164   C     0.68620   0.17910   0.21072   0.00000  Uiso   1.00
C165   C     0.82482   0.20667   0.04679   0.00000  Uiso   1.00
C166   C     0.81986   0.12746   0.45154   0.00000  Uiso   1.00
C167   C     0.84913   0.20454   0.45298   0.00000  Uiso   1.00
C168   C     0.84419   0.12564   0.04845   0.00000  Uiso   1.00
H169   H     0.81657   0.23814   0.02897   0.00000  Uiso   1.00
H170   H     0.80779   0.09758   0.46812   0.00000  Uiso   1.00
H171   H     0.86145   0.23429   0.47074   0.00000  Uiso   1.00
H172   H     0.85260   0.09405   0.03197   0.00000  Uiso   1.00
C173   C     0.82499   0.20698   0.09268   0.00000  Uiso   1.00
C174   C     0.81981   0.12754   0.40560   0.00000  Uiso   1.00
C175   C     0.84833   0.20494   0.40705   0.00000  Uiso   1.00
C176   C     0.84361   0.12577   0.09437   0.00000  Uiso   1.00
H177   H     0.81764   0.23878   0.10917   0.00000  Uiso   1.00
H178   H     0.80813   0.09756   0.38765   0.00000  Uiso   1.00
H179   H     0.85960   0.23515   0.39037   0.00000  Uiso   1.00
H180   H     0.85115   0.09415   0.11228   0.00000  Uiso   1.00
C181   C     0.83402   0.16649   0.11679   0.00000  Uiso   1.00
C182   C     0.83384   0.16638   0.38311   0.00000  Uiso   1.00
C183   C     0.83456   0.16605   0.02425   0.00000  Uiso   1.00
C184   C     0.83463   0.16593   0.47564   0.00000  Uiso   1.00
C185   C     0.95713   0.16680   0.25040   0.00000  Uiso   1.00
C186   C     0.70956   0.16647   0.24961   0.00000  Uiso   1.00
C187   C     0.77548   0.05054   0.19417   0.00000  Uiso   1.00
H188   H     0.78382   0.06985   0.16534   0.00000  Uiso   1.00
O189   O     0.73906   0.04787   0.20262   0.00000  Uiso   1.00
C190   C     0.89492   0.28428   0.30241   0.00000  Uiso   1.00
H191   H     0.89032   0.25284   0.32035   0.00000  Uiso   1.00
O192   O     0.93005   0.29964   0.30248   0.00000  Uiso   1.00
C193   C     0.88178   0.04839   0.31615   0.00000  Uiso   1.00
H194   H     0.89908   0.07925   0.31071   0.00000  Uiso   1.00
O195   O     0.88141   0.03337   0.35388   0.00000  Uiso   1.00
C196   C     0.78277   0.28519   0.18487   0.00000  Uiso   1.00
H197   H     0.76910   0.25213   0.18972   0.00000  Uiso   1.00
O198   O     0.77753   0.30254   0.14817   0.00000  Uiso   1.00
C199   C     0.71698   0.14145   0.32896   0.00000  Uiso   1.00
H200   H     0.74456   0.16151   0.33714   0.00000  Uiso   1.00
O201   O     0.70938   0.10831   0.35214   0.00000  Uiso   1.00
C202   C     0.94974   0.19190   0.17108   0.00000  Uiso   1.00
H203   H     0.92236   0.17162   0.16263   0.00000  Uiso   1.00
O204   O     0.95711   0.22541   0.14829   0.00000  Uiso   1.00
C205   C     0.95966   0.14457   0.33106   0.00000  Uiso   1.00
H206   H     0.96860   0.11520   0.35167   0.00000  Uiso   1.00
O207   O     0.93240   0.17017   0.34320   0.00000  Uiso   1.00
C208   C     0.70702   0.18796   0.16873   0.00000  Uiso   1.00
H209   H     0.69765   0.21665   0.14744   0.00000  Uiso   1.00
O210   O     0.73470   0.16261   0.15717   0.00000  Uiso   1.00
O211   O     0.10655   0.53958   0.25000   0.00000  Uiso   1.00
O212   O     0.22679   0.46042   0.25001   0.00000  Uiso   1.00
O213   O     0.22679   0.53958   0.25001   0.00000  Uiso   1.00
O214   O     0.10655   0.46042   0.25000   0.00000  Uiso   1.00
N215   N     0.16667   0.61736   0.25000   0.00000  Uiso   1.00
N216   N     0.16667   0.38264   0.25000   0.00000  Uiso   1.00
C217   C     0.08765   0.50002   0.24956   0.00000  Uiso   1.00
C218   C     0.24569   0.49997   0.25046   0.00000  Uiso   1.00
O219   O     0.16666   0.53959   0.18573   0.00000  Uiso   1.00
O220   O     0.16667   0.46041   0.31427   0.00000  Uiso   1.00
O221   O     0.16667   0.53959   0.31427   0.00000  Uiso   1.00
O222   O     0.16666   0.46041   0.18573   0.00000  Uiso   1.00
C223   C     0.16679   0.50000   0.16509   0.00000  Uiso   1.00
C224   C     0.16684   0.49993   0.33487   0.00000  Uiso   1.00
Cu225  Cu    0.16667   0.54689   0.25000   0.00000  Uiso   1.00
Cu226  Cu    0.16667   0.45311   0.25000   0.00000  Uiso   1.00
C227   C     0.14051   0.35854   0.22154   0.00000  Uiso   1.00
C228   C     0.19376   0.64176   0.27759   0.00000  Uiso   1.00
C229   C     0.19192   0.35782   0.27946   0.00000  Uiso   1.00
C230   C     0.14115   0.64234   0.22052   0.00000  Uiso   1.00
C231   C     0.02392   0.48647   0.28859   0.00000  Uiso   1.00
C232   C     0.30945   0.51342   0.21141   0.00000  Uiso   1.00
C233   C     0.31383   0.48729   0.28922   0.00000  Uiso   1.00
C234   C     0.01953   0.51243   0.21072   0.00000  Uiso   1.00
C235   C     0.15815   0.54001   0.04679   0.00000  Uiso   1.00
C236   C     0.15319   0.46079   0.45154   0.00000  Uiso   1.00
C237   C     0.18246   0.53787   0.45298   0.00000  Uiso   1.00
C238   C     0.17752   0.45897   0.04845   0.00000  Uiso   1.00
H239   H     0.14990   0.57147   0.02897   0.00000  Uiso   1.00
H240   H     0.14112   0.43092   0.46812   0.00000  Uiso   1.00
H241   H     0.19479   0.56763   0.47074   0.00000  Uiso   1.00
H242   H     0.18593   0.42739   0.03197   0.00000  Uiso   1.00
C243   C     0.15833   0.54031   0.09268   0.00000  Uiso   1.00
C244   C     0.15314   0.46087   0.40560   0.00000  Uiso   1.00
C245   C     0.18166   0.53827   0.40705   0.00000  Uiso   1.00
C246   C     0.17695   0.45911   0.09437   0.00000  Uiso   1.00
H247   H     0.15098   0.57211   0.10917   0.00000  Uiso   1.00
H248   H     0.14146   0.43090   0.38765   0.00000  Uiso   1.00
H249   H     0.19293   0.56849   0.39037   0.00000  Uiso   1.00
H250   H     0.18449   0.42748   0.11228   0.00000  Uiso   1.00
C251   C     0.16735   0.49983   0.11679   0.00000  Uiso   1.00
C252   C     0.16717   0.49971   0.38311   0.00000  Uiso   1.00
C253   C     0.16790   0.49938   0.02425   0.00000  Uiso   1.00
C254   C     0.16796   0.49926   0.47564   0.00000  Uiso   1.00
C255   C     0.29047   0.50013   0.25040   0.00000  Uiso   1.00
C256   C     0.04289   0.49980   0.24961   0.00000  Uiso   1.00
C257   C     0.10882   0.38387   0.19417   0.00000  Uiso   1.00
H258   H     0.11716   0.40318   0.16534   0.00000  Uiso   1.00
O259   O     0.07239   0.38120   0.20262   0.00000  Uiso   1.00
C260   C     0.22825   0.61761   0.30241   0.00000  Uiso   1.00
H261   H     0.22366   0.58618   0.32035   0.00000  Uiso   1.00
O262   O     0.26338   0.63297   0.30248   0.00000  Uiso   1.00
C263   C     0.21511   0.38172   0.31615   0.00000  Uiso   1.00
H264   H     0.23241   0.41258   0.31071   0.00000  Uiso   1.00
O265   O     0.21474   0.36671   0.35388   0.00000  Uiso   1.00
C266   C     0.11610   0.61853   0.18487   0.00000  Uiso   1.00
H267   H     0.10244   0.58546   0.18972   0.00000  Uiso   1.00
O268   O     0.11087   0.63588   0.14817   0.00000  Uiso   1.00
C269   C     0.05031   0.47479   0.32896   0.00000  Uiso   1.00
H270   H     0.07789   0.49485   0.33714   0.00000  Uiso   1.00
O271   O     0.04272   0.44164   0.35214   0.00000  Uiso   1.00
C272   C     0.28308   0.52523   0.17108   0.00000  Uiso   1.00
H273   H     0.25569   0.50495   0.16263   0.00000  Uiso   1.00
O274   O     0.29045   0.55874   0.14829   0.00000  Uiso   1.00
C275   C     0.29299   0.47791   0.33106   0.00000  Uiso   1.00
H276   H     0.30194   0.44853   0.35167   0.00000  Uiso   1.00
O277   O     0.26573   0.50350   0.34320   0.00000  Uiso   1.00
C278   C     0.04035   0.52130   0.16873   0.00000  Uiso   1.00
H279   H     0.03099   0.54999   0.14744   0.00000  Uiso   1.00
O280   O     0.06804   0.49594   0.15717   0.00000  Uiso   1.00
O281   O     0.43988   0.53958   0.25000   0.00000  Uiso   1.00
O282   O     0.56012   0.46042   0.25001   0.00000  Uiso   1.00
O283   O     0.56012   0.53958   0.25001   0.00000  Uiso   1.00
O284   O     0.43988   0.46042   0.25000   0.00000  Uiso   1.00
N285   N     0.50000   0.61736   0.25000   0.00000  Uiso   1.00
N286   N     0.50000   0.38264   0.25000   0.00000  Uiso   1.00
C287   C     0.42099   0.50002   0.24956   0.00000  Uiso   1.00
C288   C     0.57902   0.49997   0.25046   0.00000  Uiso   1.00
O289   O     0.50000   0.53959   0.18573   0.00000  Uiso   1.00
O290   O     0.50000   0.46041   0.31427   0.00000  Uiso   1.00
O291   O     0.50000   0.53959   0.31427   0.00000  Uiso   1.00
O292   O     0.50000   0.46041   0.18573   0.00000  Uiso   1.00
C293   C     0.50013   0.50000   0.16509   0.00000  Uiso   1.00
C294   C     0.50017   0.49993   0.33487   0.00000  Uiso   1.00
Cu295  Cu    0.50000   0.54689   0.25000   0.00000  Uiso   1.00
Cu296  Cu    0.50000   0.45311   0.25000   0.00000  Uiso   1.00
C297   C     0.47384   0.35854   0.22154   0.00000  Uiso   1.00
C298   C     0.52709   0.64176   0.27759   0.00000  Uiso   1.00
C299   C     0.52525   0.35782   0.27946   0.00000  Uiso   1.00
C300   C     0.47449   0.64234   0.22052   0.00000  Uiso   1.00
C301   C     0.35725   0.48647   0.28859   0.00000  Uiso   1.00
C302   C     0.64278   0.51342   0.21141   0.00000  Uiso   1.00
C303   C     0.64716   0.48729   0.28922   0.00000  Uiso   1.00
C304   C     0.35287   0.51243   0.21072   0.00000  Uiso   1.00
C305   C     0.49148   0.54001   0.04679   0.00000  Uiso   1.00
C306   C     0.48653   0.46079   0.45154   0.00000  Uiso   1.00
C307   C     0.51580   0.53787   0.45298   0.00000  Uiso   1.00
C308   C     0.51086   0.45897   0.04845   0.00000  Uiso   1.00
H309   H     0.48324   0.57147   0.02897   0.00000  Uiso   1.00
H310   H     0.47445   0.43092   0.46812   0.00000  Uiso   1.00
H311   H     0.52812   0.56763   0.47074   0.00000  Uiso   1.00
H312   H     0.51926   0.42739   0.03197   0.00000  Uiso   1.00
C313   C     0.49166   0.54031   0.09268   0.00000  Uiso   1.00
C314   C     0.48647   0.46087   0.40560   0.00000  Uiso   1.00
C315   C     0.51500   0.53827   0.40705   0.00000  Uiso   1.00
C316   C     0.51028   0.45911   0.09437   0.00000  Uiso   1.00
H317   H     0.48431   0.57211   0.10917   0.00000  Uiso   1.00
H318   H     0.47480   0.43090   0.38765   0.00000  Uiso   1.00
H319   H     0.52627   0.56849   0.39037   0.00000  Uiso   1.00
H320   H     0.51782   0.42748   0.11228   0.00000  Uiso   1.00
C321   C     0.50069   0.49983   0.11679   0.00000  Uiso   1.00
C322   C     0.50050   0.49971   0.38311   0.00000  Uiso   1.00
C323   C     0.50123   0.49938   0.02425   0.00000  Uiso   1.00
C324   C     0.50130   0.49926   0.47564   0.00000  Uiso   1.00
C325   C     0.62380   0.50013   0.25040   0.00000  Uiso   1.00
C326   C     0.37622   0.49980   0.24961   0.00000  Uiso   1.00
C327   C     0.44215   0.38387   0.19417   0.00000  Uiso   1.00
H328   H     0.45049   0.40318   0.16534   0.00000  Uiso   1.00
O329   O     0.40572   0.38120   0.20262   0.00000  Uiso   1.00
C330   C     0.56159   0.61761   0.30241   0.00000  Uiso   1.00
H331   H     0.55699   0.58618   0.32035   0.00000  Uiso   1.00
O332   O     0.59672   0.63297   0.30248   0.00000  Uiso   1.00
C333   C     0.54844   0.38172   0.31615   0.00000  Uiso   1.00
H334   H     0.56574   0.41258   0.31071   0.00000  Uiso   1.00
O335   O     0.54808   0.36671   0.35388   0.00000  Uiso   1.00
C336   C     0.44943   0.61853   0.18487   0.00000  Uiso   1.00
H337   H     0.43577   0.58546   0.18972   0.00000  Uiso   1.00
O338   O     0.44420   0.63588   0.14817   0.00000  Uiso   1.00
C339   C     0.38364   0.47479   0.32896   0.00000  Uiso   1.00
H340   H     0.41122   0.49485   0.33714   0.00000  Uiso   1.00
O341   O     0.37605   0.44164   0.35214   0.00000  Uiso   1.00
C342   C     0.61641   0.52523   0.17108   0.00000  Uiso   1.00
H343   H     0.58902   0.50495   0.16263   0.00000  Uiso   1.00
O344   O     0.62378   0.55874   0.14829   0.00000  Uiso   1.00
C345   C     0.62632   0.47791   0.33106   0.00000  Uiso   1.00
H346   H     0.63527   0.44853   0.35167   0.00000  Uiso   1.00
O347   O     0.59906   0.50350   0.34320   0.00000  Uiso   1.00
C348   C     0.37369   0.52130   0.16873   0.00000  Uiso   1.00
H349   H     0.36432   0.54999   0.14744   0.00000  Uiso   1.00
O350   O     0.40137   0.49594   0.15717   0.00000  Uiso   1.00
O351   O     0.77321   0.53958   0.25000   0.00000  Uiso   1.00
O352   O     0.89345   0.46042   0.25001   0.00000  Uiso   1.00
O353   O     0.89345   0.53958   0.25001   0.00000  Uiso   1.00
O354   O     0.77321   0.46042   0.25000   0.00000  Uiso   1.00
N355   N     0.83333   0.61736   0.25000   0.00000  Uiso   1.00
N356   N     0.83333   0.38264   0.25000   0.00000  Uiso   1.00
C357   C     0.75432   0.50002   0.24956   0.00000  Uiso   1.00
C358   C     0.91236   0.49997   0.25046   0.00000  Uiso   1.00
O359   O     0.83333   0.53959   0.18573   0.00000  Uiso   1.00
O360   O     0.83334   0.46041   0.31427   0.00000  Uiso   1.00
O361   O     0.83334   0.53959   0.31427   0.00000  Uiso   1.00
O362   O     0.83333   0.46041   0.18573   0.00000  Uiso   1.00
C363   C     0.83346   0.50000   0.16509   0.00000  Uiso   1.00
C364   C     0.83351   0.49993   0.33487   0.00000  Uiso   1.00
Cu365  Cu    0.83333   0.54689   0.25000   0.00000  Uiso   1.00
Cu366  Cu    0.83333   0.45311   0.25000   0.00000  Uiso   1.00
C367   C     0.80717   0.35854   0.22154   0.00000  Uiso   1.00
C368   C     0.86042   0.64176   0.27759   0.00000  Uiso   1.00
C369   C     0.85859   0.35782   0.27946   0.00000  Uiso   1.00
C370   C     0.80782   0.64234   0.22052   0.00000  Uiso   1.00
C371   C     0.69059   0.48647   0.28859   0.00000  Uiso   1.00
C372   C     0.97611   0.51342   0.21141   0.00000  Uiso   1.00
C373   C     0.98050   0.48729   0.28922   0.00000  Uiso   1.00
C374   C     0.68620   0.51243   0.21072   0.00000  Uiso   1.00
C375   C     0.82482   0.54001   0.04679   0.00000  Uiso   1.00
C376   C     0.81986   0.46079   0.45154   0.00000  Uiso   1.00
C377   C     0.84913   0.53787   0.45298   0.00000  Uiso   1.00
C378   C     0.84419   0.45897   0.04845   0.00000  Uiso   1.00
H379   H     0.81657   0.57147   0.02897   0.00000  Uiso   1.00
H380   H     0.80779   0.43092   0.46812   0.00000  Uiso   1.00
H381   H     0.86145   0.56763   0.47074   0.00000  Uiso   1.00
H382   H     0.85260   0.42739   0.03197   0.00000  Uiso   1.00
C383   C     0.82499   0.54031   0.09268   0.00000  Uiso   1.00
C384   C     0.81981   0.46087   0.40560   0.00000  Uiso   1.00
C385   C     0.84833   0.53827   0.40705   0.00000  Uiso   1.00
C386   C     0.84361   0.45911   0.09437   0.00000  Uiso   1.00
H387   H     0.81764   0.57211   0.10917   0.00000  Uiso   1.00
H388   H     0.80813   0.43090   0.38765   0.00000  Uiso   1.00
H389   H     0.85960   0.56849   0.39037   0.00000  Uiso   1.00
H390   H     0.85115   0.42748   0.11228   0.00000  Uiso   1.00
C391   C     0.83402   0.49983   0.11679   0.00000  Uiso   1.00
C392   C     0.83384   0.49971   0.38311   0.00000  Uiso   1.00
C393   C     0.83456   0.49938   0.02425   0.00000  Uiso   1.00
C394   C     0.83463   0.49926   0.47564   0.00000  Uiso   1.00
C395   C     0.95713   0.50013   0.25040   0.00000  Uiso   1.00
C396   C     0.70956   0.49980   0.24961   0.00000  Uiso   1.00
C397   C     0.77548   0.38387   0.19417   0.00000  Uiso   1.00
H398   H     0.78382   0.40318   0.16534   0.00000  Uiso   1.00
O399   O     0.73906   0.38120   0.20262   0.00000  Uiso   1.00
C400   C     0.89492   0.61761   0.30241   0.00000  Uiso   1.00
H401   H     0.89032   0.58618   0.32035   0.00000  Uiso   1.00
O402   O     0.93005   0.63297   0.30248   0.00000  Uiso   1.00
C403   C     0.88178   0.38172   0.31615   0.00000  Uiso   1.00
H404   H     0.89908   0.41258   0.31071   0.00000  Uiso   1.00
O405   O     0.88141   0.36671   0.35388   0.00000  Uiso   1.00
C406   C     0.78277   0.61853   0.18487   0.00000  Uiso   1.00
H407   H     0.76910   0.58546   0.18972   0.00000  Uiso   1.00
O408   O     0.77753   0.63588   0.14817   0.00000  Uiso   1.00
C409   C     0.71698   0.47479   0.32896   0.00000  Uiso   1.00
H410   H     0.74456   0.49485   0.33714   0.00000  Uiso   1.00
O411   O     0.70938   0.44164   0.35214   0.00000  Uiso   1.00
C412   C     0.94974   0.52523   0.17108   0.00000  Uiso   1.00
H413   H     0.92236   0.50495   0.16263   0.00000  Uiso   1.00
O414   O     0.95711   0.55874   0.14829   0.00000  Uiso   1.00
C415   C     0.95966   0.47791   0.33106   0.00000  Uiso   1.00
H416   H     0.96860   0.44853   0.35167   0.00000  Uiso   1.00
O417   O     0.93240   0.50350   0.34320   0.00000  Uiso   1.00
C418   C     0.70702   0.52130   0.16873   0.00000  Uiso   1.00
H419   H     0.69765   0.54999   0.14744   0.00000  Uiso   1.00
O420   O     0.73470   0.49594   0.15717   0.00000  Uiso   1.00
O421   O     0.10655   0.87291   0.25000   0.00000  Uiso   1.00
O422   O     0.22679   0.79375   0.25001   0.00000  Uiso   1.00
O423   O     0.22679   0.87291   0.25001   0.00000  Uiso   1.00
O424   O     0.10655   0.79375   0.25000   0.00000  Uiso   1.00
N425   N     0.16667   0.95069   0.25000   0.00000  Uiso   1.00
N426   N     0.16667   0.71598   0.25000   0.00000  Uiso   1.00
C427   C     0.08765   0.83335   0.24956   0.00000  Uiso   1.00
C428   C     0.24569   0.83331   0.25046   0.00000  Uiso   1.00
O429   O     0.16666   0.87293   0.18573   0.00000  Uiso   1.00
O430   O     0.16667   0.79374   0.31427   0.00000  Uiso   1.00
O431   O     0.16667   0.87293   0.31427   0.00000  Uiso   1.00
O432   O     0.16666   0.79374   0.18573   0.00000  Uiso   1.00
C433   C     0.16679   0.83333   0.16509   0.00000  Uiso   1.00
C434   C     0.16684   0.83327   0.33487   0.00000  Uiso   1.00
Cu435  Cu    0.16667   0.88022   0.25000   0.00000  Uiso   1.00
Cu436  Cu    0.16667   0.78645   0.25000   0.00000  Uiso   1.00
C437   C     0.14051   0.69187   0.22154   0.00000  Uiso   1.00
C438   C     0.19376   0.97510   0.27759   0.00000  Uiso   1.00
C439   C     0.19192   0.69115   0.27946   0.00000  Uiso   1.00
C440   C     0.14115   0.97568   0.22052   0.00000  Uiso   1.00
C441   C     0.02392   0.81981   0.28859   0.00000  Uiso   1.00
C442   C     0.30945   0.84676   0.21141   0.00000  Uiso   1.00
C443   C     0.31383   0.82062   0.28922   0.00000  Uiso   1.00
C444   C     0.01953   0.84577   0.21072   0.00000  Uiso   1.00
C445   C     0.15815   0.87334   0.04679   0.00000  Uiso   1.00
C446   C     0.15319   0.79413   0.45154   0.00000  Uiso   1.00
C447   C     0.18246   0.87120   0.45298   0.00000  Uiso   1.00
C448   C     0.17752   0.79230   0.04845   0.00000  Uiso   1.00
H449   H     0.14990   0.90480   0.02897   0.00000  Uiso   1.00
H450   H     0.14112   0.76425   0.46812   0.00000  Uiso   1.00
H451   H     0.19479   0.90096   0.47074   0.00000  Uiso   1.00
H452   H     0.18593   0.76072   0.03197   0.00000  Uiso   1.00
C453   C     0.15833   0.87364   0.09268   0.00000  Uiso   1.00
C454   C     0.15314   0.79420   0.40560   0.00000  Uiso   1.00
C455   C     0.18166   0.87160   0.40705   0.00000  Uiso   1.00
C456   C     0.17695   0.79244   0.09437   0.00000  Uiso   1.00
H457   H     0.15098   0.90545   0.10917   0.00000  Uiso   1.00
H458   H     0.14146   0.76423   0.38765   0.00000  Uiso   1.00
H459   H     0.19293   0.90182   0.39037   0.00000  Uiso   1.00
H460   H     0.18449   0.76082   0.11228   0.00000  Uiso   1.00
C461   C     0.16735   0.83316   0.11679   0.00000  Uiso   1.00
C462   C     0.16717   0.83305   0.38311   0.00000  Uiso   1.00
C463   C     0.16790   0.83271   0.02425   0.00000  Uiso   1.00
C464   C     0.16796   0.83260   0.47564   0.00000  Uiso   1.00
C465   C     0.29047   0.83347   0.25040   0.00000  Uiso   1.00
C466   C     0.04289   0.83314   0.24961   0.00000  Uiso   1.00
C467   C     0.10882   0.71721   0.19417   0.00000  Uiso   1.00
H468   H     0.11716   0.73651   0.16534   0.00000  Uiso   1.00
O469   O     0.07239   0.71453   0.20262   0.00000  Uiso   1.00
C470   C     0.22825   0.95094   0.30241   0.00000  Uiso   1.00
H471   H     0.22366   0.91951   0.32035   0.00000  Uiso   1.00
O472   O     0.26338   0.96631   0.30248   0.00000  Uiso   1.00
C473   C     0.21511   0.71505   0.31615   0.00000  Uiso   1.00
H474   H     0.23241   0.74592   0.31071   0.00000  Uiso   1.00
O475   O     0.21474   0.70004   0.35388   0.00000  Uiso   1.00
C476   C     0.11610   0.95186   0.18487   0.00000  Uiso   1.00
H477   H     0.10244   0.91880   0.18972   0.00000  Uiso   1.00
O478   O     0.11087   0.96921   0.14817   0.00000  Uiso   1.00
C479   C     0.05031   0.80812   0.32896   0.00000  Uiso   1.00
H480   H     0.07789   0.82818   0.33714   0.00000  Uiso   1.00
O481   O     0.04272   0.77497   0.35214   0.00000  Uiso   1.00
C482   C     0.28308   0.85856   0.17108   0.00000  Uiso   1.00
H483   H     0.25569   0.83828   0.16263   0.00000  Uiso   1.00
O484   O     0.29045   0.89208   0.14829   0.00000  Uiso   1.00
C485   C     0.29299   0.81124   0.33106   0.00000  Uiso   1.00
H486   H     0.30194   0.78186   0.35167   0.00000  Uiso   1.00
O487   O     0.26573   0.83683   0.34320   0.00000  Uiso   1.00
C488   C     0.04035   0.85463   0.16873   0.00000  Uiso   1.00
H489   H     0.03099   0.88332   0.14744   0.00000  Uiso   1.00
O490   O     0.06804   0.82927   0.15717   0.00000  Uiso   1.00
O491   O     0.43988   0.87291   0.25000   0.00000  Uiso   1.00
O492   O     0.56012   0.79375   0.25001   0.00000  Uiso   1.00
O493   O     0.56012   0.87291   0.25001   0.00000  Uiso   1.00
O494   O     0.43988   0.79375   0.25000   0.00000  Uiso   1.00
N495   N     0.50000   0.95069   0.25000   0.00000  Uiso   1.00
N496   N     0.50000   0.71598   0.25000   0.00000  Uiso   1.00
C497   C     0.42099   0.83335   0.24956   0.00000  Uiso   1.00
C498   C     0.57902   0.83331   0.25046   0.00000  Uiso   1.00
O499   O     0.50000   0.87293   0.18573   0.00000  Uiso   1.00
O500   O     0.50000   0.79374   0.31427   0.00000  Uiso   1.00
O501   O     0.50000   0.87293   0.31427   0.00000  Uiso   1.00
O502   O     0.50000   0.79374   0.18573   0.00000  Uiso   1.00
C503   C     0.50013   0.83333   0.16509   0.00000  Uiso   1.00
C504   C     0.50017   0.83327   0.33487   0.00000  Uiso   1.00
Cu505  Cu    0.50000   0.88022   0.25000   0.00000  Uiso   1.00
Cu506  Cu    0.50000   0.78645   0.25000   0.00000  Uiso   1.00
C507   C     0.47384   0.69187   0.22154   0.00000  Uiso   1.00
C508   C     0.52709   0.97510   0.27759   0.00000  Uiso   1.00
C509   C     0.52525   0.69115   0.27946   0.00000  Uiso   1.00
C510   C     0.47449   0.97568   0.22052   0.00000  Uiso   1.00
C511   C     0.35725   0.81981   0.28859   0.00000  Uiso   1.00
C512   C     0.64278   0.84676   0.21141   0.00000  Uiso   1.00
C513   C     0.64716   0.82062   0.28922   0.00000  Uiso   1.00
C514   C     0.35287   0.84577   0.21072   0.00000  Uiso   1.00
C515   C     0.49148   0.87334   0.04679   0.00000  Uiso   1.00
C516   C     0.48653   0.79413   0.45154   0.00000  Uiso   1.00
C517   C     0.51580   0.87120   0.45298   0.00000  Uiso   1.00
C518   C     0.51086   0.79230   0.04845   0.00000  Uiso   1.00
H519   H     0.48324   0.90480   0.02897   0.00000  Uiso   1.00
H520   H     0.47445   0.76425   0.46812   0.00000  Uiso   1.00
H521   H     0.52812   0.90096   0.47074   0.00000  Uiso   1.00
H522   H     0.51926   0.76072   0.03197   0.00000  Uiso   1.00
C523   C     0.49166   0.87364   0.09268   0.00000  Uiso   1.00
C524   C     0.48647   0.79420   0.40560   0.00000  Uiso   1.00
C525   C     0.51500   0.87160   0.40705   0.00000  Uiso   1.00
C526   C     0.51028   0.79244   0.09437   0.00000  Uiso   1.00
H527   H     0.48431   0.90545   0.10917   0.00000  Uiso   1.00
H528   H     0.47480   0.76423   0.38765   0.00000  Uiso   1.00
H529   H     0.52627   0.90182   0.39037   0.00000  Uiso   1.00
H530   H     0.51782   0.76082   0.11228   0.00000  Uiso   1.00
C531   C     0.50069   0.83316   0.11679   0.00000  Uiso   1.00
C532   C     0.50050   0.83305   0.38311   0.00000  Uiso   1.00
C533   C     0.50123   0.83271   0.02425   0.00000  Uiso   1.00
C534   C     0.50130   0.83260   0.47564   0.00000  Uiso   1.00
C535   C     0.62380   0.83347   0.25040   0.00000  Uiso   1.00
C536   C     0.37622   0.83314   0.24961   0.00000  Uiso   1.00
C537   C     0.44215   0.71721   0.19417   0.00000  Uiso   1.00
H538   H     0.45049   0.73651   0.16534   0.00000  Uiso   1.00
O539   O     0.40572   0.71453   0.20262   0.00000  Uiso   1.00
C540   C     0.56159   0.95094   0.30241   0.00000  Uiso   1.00
H541   H     0.55699   0.91951   0.32035   0.00000  Uiso   1.00
O542   O     0.59672   0.96631   0.30248   0.00000  Uiso   1.00
C543   C     0.54844   0.71505   0.31615   0.00000  Uiso   1.00
H544   H     0.56574   0.74592   0.31071   0.00000  Uiso   1.00
O545   O     0.54808   0.70004   0.35388   0.00000  Uiso   1.00
C546   C     0.44943   0.95186   0.18487   0.00000  Uiso   1.00
H547   H     0.43577   0.91880   0.18972   0.00000  Uiso   1.00
O548   O     0.44420   0.96921   0.14817   0.00000  Uiso   1.00
C549   C     0.38364   0.80812   0.32896   0.00000  Uiso   1.00
H550   H     0.41122   0.82818   0.33714   0.00000  Uiso   1.00
O551   O     0.37605   0.77497   0.35214   0.00000  Uiso   1.00
C552   C     0.61641   0.85856   0.17108   0.00000  Uiso   1.00
H553   H     0.58902   0.83828   0.16263   0.00000  Uiso   1.00
O554   O     0.62378   0.89208   0.14829   0.00000  Uiso   1.00
C555   C     0.62632   0.81124   0.33106   0.00000  Uiso   1.00
H556   H     0.63527   0.78186   0.35167   0.00000  Uiso   1.00
O557   O     0.59906   0.83683   0.34320   0.00000  Uiso   1.00
C558   C     0.37369   0.85463   0.16873   0.00000  Uiso   1.00
H559   H     0.36432   0.88332   0.14744   0.00000  Uiso   1.00
O560   O     0.40137   0.82927   0.15717   0.00000  Uiso   1.00
O561   O     0.77321   0.87291   0.25000   0.00000  Uiso   1.00
O562   O     0.89345   0.79375   0.25001   0.00000  Uiso   1.00
O563   O     0.89345   0.87291   0.25001   0.00000  Uiso   1.00
O564   O     0.77321   0.79375   0.25000   0.00000  Uiso   1.00
N565   N     0.83333   0.95069   0.25000   0.00000  Uiso   1.00
N566   N     0.83333   0.71598   0.25000   0.00000  Uiso   1.00
C567   C     0.75432   0.83335   0.24956   0.00000  Uiso   1.00
C568   C     0.91236   0.83331   0.25046   0.00000  Uiso   1.00
O569   O     0.83333   0.87293   0.18573   0.00000  Uiso   1.00
O570   O     0.83334   0.79374   0.31427   0.00000  Uiso   1.00
O571   O     0.83334   0.87293   0.31427   0.00000  Uiso   1.00
O572   O     0.83333   0.79374   0.18573   0.00000  Uiso   1.00
C573   C     0.83346   0.83333   0.16509   0.00000  Uiso   1.00
C574   C     0.83351   0.83327   0.33487   0.00000  Uiso   1.00
Cu575  Cu    0.83333   0.88022   0.25000   0.00000  Uiso   1.00
Cu576  Cu    0.83333   0.78645   0.25000   0.00000  Uiso   1.00
C577   C     0.80717   0.69187   0.22154   0.00000  Uiso   1.00
C578   C     0.86042   0.97510   0.27759   0.00000  Uiso   1.00
C579   C     0.85859   0.69115   0.27946   0.00000  Uiso   1.00
C580   C     0.80782   0.97568   0.22052   0.00000  Uiso   1.00
C581   C     0.69059   0.81981   0.28859   0.00000  Uiso   1.00
C582   C     0.97611   0.84676   0.21141   0.00000  Uiso   1.00
C583   C     0.98050   0.82062   0.28922   0.00000  Uiso   1.00
C584   C     0.68620   0.84577   0.21072   0.00000  Uiso   1.00
C585   C     0.82482   0.87334   0.04679   0.00000  Uiso   1.00
C586   C     0.81986   0.79413   0.45154   0.00000  Uiso   1.00
C587   C     0.84913   0.87120   0.45298   0.00000  Uiso   1.00
C588   C     0.84419   0.79230   0.04845   0.00000  Uiso   1.00
H589   H     0.81657   0.90480   0.02897   0.00000  Uiso   1.00
H590   H     0.80779   0.76425   0.46812   0.00000  Uiso   1.00
H591   H     0.86145   0.90096   0.47074   0.00000  Uiso   1.00
H592   H     0.85260   0.76072   0.03197   0.00000  Uiso   1.00
C593   C     0.82499   0.87364   0.09268   0.00000  Uiso   1.00
C594   C     0.81981   0.79420   0.40560   0.00000  Uiso   1.00
C595   C     0.84833   0.87160   0.40705   0.00000  Uiso   1.00
C596   C     0.84361   0.79244   0.09437   0.00000  Uiso   1.00
H597   H     0.81764   0.90545   0.10917   0.00000  Uiso   1.00
H598   H     0.80813   0.76423   0.38765   0.00000  Uiso   1.00
H599   H     0.85960   0.90182   0.39037   0.00000  Uiso   1.00
H600   H     0.85115   0.76082   0.11228   0.00000  Uiso   1.00
C601   C     0.83402   0.83316   0.11679   0.00000  Uiso   1.00
C602   C     0.83384   0.83305   0.38311   0.00000  Uiso   1.00
C603   C     0.83456   0.83271   0.02425   0.00000  Uiso   1.00
C604   C     0.83463   0.83260   0.47564   0.00000  Uiso   1.00
C605   C     0.95713   0.83347   0.25040   0.00000  Uiso   1.00
C606   C     0.70956   0.83314   0.24961   0.00000  Uiso   1.00
C607   C     0.77548   0.71721   0.19417   0.00000  Uiso   1.00
H608   H     0.78382   0.73651   0.16534   0.00000  Uiso   1.00
O609   O     0.73906   0.71453   0.20262   0.00000  Uiso   1.00
C610   C     0.89492   0.95094   0.30241   0.00000  Uiso   1.00
H611   H     0.89032   0.91951   0.32035   0.00000  Uiso   1.00
O612   O     0.93005   0.96631   0.30248   0.00000  Uiso   1.00
C613   C     0.88178   0.71505   0.31615   0.00000  Uiso   1.00
H614   H     0.89908   0.74592   0.31071   0.00000  Uiso   1.00
O615   O     0.88141   0.70004   0.35388   0.00000  Uiso   1.00
C616   C     0.78277   0.95186   0.18487   0.00000  Uiso   1.00
H617   H     0.76910   0.91880   0.18972   0.00000  Uiso   1.00
O618   O     0.77753   0.96921   0.14817   0.00000  Uiso   1.00
C619   C     0.71698   0.80812   0.32896   0.00000  Uiso   1.00
H620   H     0.74456   0.82818   0.33714   0.00000  Uiso   1.00
O621   O     0.70938   0.77497   0.35214   0.00000  Uiso   1.00
C622   C     0.94974   0.85856   0.17108   0.00000  Uiso   1.00
H623   H     0.92236   0.83828   0.16263   0.00000  Uiso   1.00
O624   O     0.95711   0.89208   0.14829   0.00000  Uiso   1.00
C625   C     0.95966   0.81124   0.33106   0.00000  Uiso   1.00
H626   H     0.96860   0.78186   0.35167   0.00000  Uiso   1.00
O627   O     0.93240   0.83683   0.34320   0.00000  Uiso   1.00
C628   C     0.70702   0.85463   0.16873   0.00000  Uiso   1.00
H629   H     0.69765   0.88332   0.14744   0.00000  Uiso   1.00
O630   O     0.73470   0.82927   0.15717   0.00000  Uiso   1.00
O631   O     0.10655   0.20625   0.75000   0.00000  Uiso   1.00
O632   O     0.22679   0.12709   0.75001   0.00000  Uiso   1.00
O633   O     0.22679   0.20625   0.75001   0.00000  Uiso   1.00
O634   O     0.10655   0.12709   0.75000   0.00000  Uiso   1.00
N635   N     0.16667   0.28402   0.75000   0.00000  Uiso   1.00
N636   N     0.16667   0.04931   0.75000   0.00000  Uiso   1.00
C637   C     0.08765   0.16669   0.74956   0.00000  Uiso   1.00
C638   C     0.24569   0.16664   0.75046   0.00000  Uiso   1.00
O639   O     0.16666   0.20626   0.68573   0.00000  Uiso   1.00
O640   O     0.16667   0.12707   0.81427   0.00000  Uiso   1.00
O641   O     0.16667   0.20626   0.81427   0.00000  Uiso   1.00
O642   O     0.16666   0.12707   0.68573   0.00000  Uiso   1.00
C643   C     0.16679   0.16667   0.66509   0.00000  Uiso   1.00
C644   C     0.16684   0.16660   0.83487   0.00000  Uiso   1.00
Cu645  Cu    0.16667   0.21355   0.75000   0.00000  Uiso   1.00
Cu646  Cu    0.16667   0.11978   0.75000   0.00000  Uiso   1.00
C647   C     0.14051   0.02520   0.72154   0.00000  Uiso   1.00
C648   C     0.19376   0.30843   0.77759   0.00000  Uiso   1.00
C649   C     0.19192   0.02449   0.77946   0.00000  Uiso   1.00
C650   C     0.14115   0.30901   0.72052   0.00000  Uiso   1.00
C651   C     0.02392   0.15314   0.78859   0.00000  Uiso   1.00
C652   C     0.30945   0.18009   0.71141   0.00000  Uiso   1.00
C653   C     0.31383   0.15396   0.78922   0.00000  Uiso   1.00
C654   C     0.01953   0.17910   0.71072   0.00000  Uiso   1.00
C655   C     0.15815   0.20667   0.54679   0.00000  Uiso   1.00
C656   C     0.15319   0.12746   0.95154   0.00000  Uiso   1.00
C657   C     0.18246   0.20454   0.95298   0.00000  Uiso   1.00
C658   C     0.17752   0.12564   0.54845   0.00000  Uiso   1.00
H659   H     0.14990   0.23814   0.52897   0.00000  Uiso   1.00
H660   H     0.14112   0.09758   0.96812   0.00000  Uiso   1.00
H661   H     0.19479   0.23429   0.97074   0.00000  Uiso   1.00
H662   H     0.18593   0.09405   0.53197   0.00000  Uiso   1.00
C663   C     0.15833   0.20698   0.59268   0.00000  Uiso   1.00
C664   C     0.15314   0.12754   0.90560   0.00000  Uiso   1.00
C665   C     0.18166   0.20494   0.90705   0.00000  Uiso   1.00
C666   C     0.17695   0.12577   0.59437   0.00000  Uiso   1.00
H667   H     0.15098   0.23878   0.60917   0.00000  Uiso   1.00
H668   H     0.14146   0.09756   0.88765   0.00000  Uiso   1.00
H669   H     0.19293   0.23515   0.89037   0.00000  Uiso   1.00
H670   H     0.18449   0.09415   0.61228   0.00000  Uiso   1.00
C671   C     0.16735   0.16649   0.61679   0.00000  Uiso   1.00
C672   C     0.16717   0.16638   0.88311   0.00000  Uiso   1.00
C673   C     0.16790   0.16605   0.52425   0.00000  Uiso   1.00
C674   C     0.16796   0.16593   0.97564   0.00000  Uiso   1.00
C675   C     0.29047   0.16680   0.75040   0.00000  Uiso   1.00
C676   C     0.04289   0.16647   0.74961   0.00000  Uiso   1.00
C677   C     0.10882   0.05054   0.69417   0.00000  Uiso   1.00
H678   H     0.11716   0.06985   0.66534   0.00000  Uiso   1.00
O679   O     0.07239   0.04787   0.70262   0.00000  Uiso   1.00
C680   C     0.22825   0.28428   0.80241   0.00000  Uiso   1.00
H681   H     0.22366   0.25284   0.82035   0.00000  Uiso   1.00
O682   O     0.26338   0.29964   0.80248   0.00000  Uiso   1.00
C683   C     0.21511   0.04839   0.81615   0.00000  Uiso   1.00
H684   H     0.23241   0.07925   0.81071   0.00000  Uiso   1.00
O685   O     0.21474   0.03337   0.85388   0.00000  Uiso   1.00
C686   C     0.11610   0.28519   0.68487   0.00000  Uiso   1.00
H687   H     0.10244   0.25213   0.68972   0.00000  Uiso   1.00
O688   O     0.11087   0.30254   0.64817   0.00000  Uiso   1.00
C689   C     0.05031   0.14145   0.82896   0.00000  Uiso   1.00
H690   H     0.07789   0.16151   0.83714   0.00000  Uiso   1.00
O691   O     0.04272   0.10831   0.85214   0.00000  Uiso   1.00
C692   C     0.28308   0.19190   0.67108   0.00000  Uiso   1.00
H693   H     0.25569   0.17162   0.66263   0.00000  Uiso   1.00
O694   O     0.29045   0.22541   0.64829   0.00000  Uiso   1.00
C695   C     0.29299   0.14457   0.83106   0.00000  Uiso   1.00
H696   H     0.30194   0.11520   0.85167   0.00000  Uiso   1.00
O697   O     0.26573   0.17017   0.84320   0.00000  Uiso   1.00
C698   C     0.04035   0.18796   0.66873   0.00000  Uiso   1.00
H699   H     0.03099   0.21665   0.64744   0.00000  Uiso   1.00
O700   O     0.06804   0.16261   0.65717   0.00000  Uiso   1.00
O701   O     0.43988   0.20625   0.75000   0.00000  Uiso   1.00
O702   O     0.56012   0.12709   0.75001   0.00000  Uiso   1.00
O703   O     0.56012   0.20625   0.75001   0.00000  Uiso   1.00
O704   O     0.43988   0.12709   0.75000   0.00000  Uiso   1.00
N705   N     0.50000   0.28402   0.75000   0.00000  Uiso   1.00
N706   N     0.50000   0.04931   0.75000   0.00000  Uiso   1.00
C707   C     0.42099   0.16669   0.74956   0.00000  Uiso   1.00
C708   C     0.57902   0.16664   0.75046   0.00000  Uiso   1.00
O709   O     0.50000   0.20626   0.68573   0.00000  Uiso   1.00
O710   O     0.50000   0.12707   0.81427   0.00000  Uiso   1.00
O711   O     0.50000   0.20626   0.81427   0.00000  Uiso   1.00
O712   O     0.50000   0.12707   0.68573   0.00000  Uiso   1.00
C713   C     0.50013   0.16667   0.66509   0.00000  Uiso   1.00
C714   C     0.50017   0.16660   0.83487   0.00000  Uiso   1.00
Cu715  Cu    0.50000   0.21355   0.75000   0.00000  Uiso   1.00
Cu716  Cu    0.50000   0.11978   0.75000   0.00000  Uiso   1.00
C717   C     0.47384   0.02520   0.72154   0.00000  Uiso   1.00
C718   C     0.52709   0.30843   0.77759   0.00000  Uiso   1.00
C719   C     0.52525   0.02449   0.77946   0.00000  Uiso   1.00
C720   C     0.47449   0.30901   0.72052   0.00000  Uiso   1.00
C721   C     0.35725   0.15314   0.78859   0.00000  Uiso   1.00
C722   C     0.64278   0.18009   0.71141   0.00000  Uiso   1.00
C723   C     0.64716   0.15396   0.78922   0.00000  Uiso   1.00
C724   C     0.35287   0.17910   0.71072   0.00000  Uiso   1.00
C725   C     0.49148   0.20667   0.54679   0.00000  Uiso   1.00
C726   C     0.48653   0.12746   0.95154   0.00000  Uiso   1.00
C727   C     0.51580   0.20454   0.95298   0.00000  Uiso   1.00
C728   C     0.51086   0.12564   0.54845   0.00000  Uiso   1.00
H729   H     0.48324   0.23814   0.52897   0.00000  Uiso   1.00
H730   H     0.47445   0.09758   0.96812   0.00000  Uiso   1.00
H731   H     0.52812   0.23429   0.97074   0.00000  Uiso   1.00
H732   H     0.51926   0.09405   0.53197   0.00000  Uiso   1.00
C733   C     0.49166   0.20698   0.59268   0.00000  Uiso   1.00
C734   C     0.48647   0.12754   0.90560   0.00000  Uiso   1.00
C735   C     0.51500   0.20494   0.90705   0.00000  Uiso   1.00
C736   C     0.51028   0.12577   0.59437   0.00000  Uiso   1.00
H737   H     0.48431   0.23878   0.60917   0.00000  Uiso   1.00
H738   H     0.47480   0.09756   0.88765   0.00000  Uiso   1.00
H739   H     0.52627   0.23515   0.89037   0.00000  Uiso   1.00
H740   H     0.51782   0.09415   0.61228   0.00000  Uiso   1.00
C741   C     0.50069   0.16649   0.61679   0.00000  Uiso   1.00
C742   C     0.50050   0.16638   0.88311   0.00000  Uiso   1.00
C743   C     0.50123   0.16605   0.52425   0.00000  Uiso   1.00
C744   C     0.50130   0.16593   0.97564   0.00000  Uiso   1.00
C745   C     0.62380   0.16680   0.75040   0.00000  Uiso   1.00
C746   C     0.37622   0.16647   0.74961   0.00000  Uiso   1.00
C747   C     0.44215   0.05054   0.69417   0.00000  Uiso   1.00
H748   H     0.45049   0.06985   0.66534   0.00000  Uiso   1.00
O749   O     0.40572   0.04787   0.70262   0.00000  Uiso   1.00
C750   C     0.56159   0.28428   0.80241   0.00000  Uiso   1.00
H751   H     0.55699   0.25284   0.82035   0.00000  Uiso   1.00
O752   O     0.59672   0.29964   0.80248   0.00000  Uiso   1.00
C753   C     0.54844   0.04839   0.81615   0.00000  Uiso   1.00
H754   H     0.56574   0.07925   0.81071   0.00000  Uiso   1.00
O755   O     0.54808   0.03337   0.85388   0.00000  Uiso   1.00
C756   C     0.44943   0.28519   0.68487   0.00000  Uiso   1.00
H757   H     0.43577   0.25213   0.68972   0.00000  Uiso   1.00
O758   O     0.44420   0.30254   0.64817   0.00000  Uiso   1.00
C759   C     0.38364   0.14145   0.82896   0.00000  Uiso   1.00
H760   H     0.41122   0.16151   0.83714   0.00000  Uiso   1.00
O761   O     0.37605   0.10831   0.85214   0.00000  Uiso   1.00
C762   C     0.61641   0.19190   0.67108   0.00000  Uiso   1.00
H763   H     0.58902   0.17162   0.66263   0.00000  Uiso   1.00
O764   O     0.62378   0.22541   0.64829   0.00000  Uiso   1.00
C765   C     0.62632   0.14457   0.83106   0.00000  Uiso   1.00
H766   H     0.63527   0.11520   0.85167   0.00000  Uiso   1.00
O767   O     0.59906   0.17017   0.84320   0.00000  Uiso   1.00
C768   C     0.37369   0.18796   0.66873   0.00000  Uiso   1.00
H769   H     0.36432   0.21665   0.64744   0.00000  Uiso   1.00
O770   O     0.40137   0.16261   0.65717   0.00000  Uiso   1.00
O771   O     0.77321   0.20625   0.75000   0.00000  Uiso   1.00
O772   O     0.89345   0.12709   0.75001   0.00000  Uiso   1.00
O773   O     0.89345   0.20625   0.75001   0.00000  Uiso   1.00
O774   O     0.77321   0.12709   0.75000   0.00000  Uiso   1.00
N775   N     0.83333   0.28402   0.75000   0.00000  Uiso   1.00
N776   N     0.83333   0.04931   0.75000   0.00000  Uiso   1.00
C777   C     0.75432   0.16669   0.74956   0.00000  Uiso   1.00
C778   C     0.91236   0.16664   0.75046   0.00000  Uiso   1.00
O779   O     0.83333   0.20626   0.68573   0.00000  Uiso   1.00
O780   O     0.83334   0.12707   0.81427   0.00000  Uiso   1.00
O781   O     0.83334   0.20626   0.81427   0.00000  Uiso   1.00
O782   O     0.83333   0.12707   0.68573   0.00000  Uiso   1.00
C783   C     0.83346   0.16667   0.66509   0.00000  Uiso   1.00
C784   C     0.83351   0.16660   0.83487   0.00000  Uiso   1.00
Cu785  Cu    0.83333   0.21355   0.75000   0.00000  Uiso   1.00
Cu786  Cu    0.83333   0.11978   0.75000   0.00000  Uiso   1.00
C787   C     0.80717   0.02520   0.72154   0.00000  Uiso   1.00
C788   C     0.86042   0.30843   0.77759   0.00000  Uiso   1.00
C789   C     0.85859   0.02449   0.77946   0.00000  Uiso   1.00
C790   C     0.80782   0.30901   0.72052   0.00000  Uiso   1.00
C791   C     0.69059   0.15314   0.78859   0.00000  Uiso   1.00
C792   C     0.97611   0.18009   0.71141   0.00000  Uiso   1.00
C793   C     0.98050   0.15396   0.78922   0.00000  Uiso   1.00
C794   C     0.68620   0.17910   0.71072   0.00000  Uiso   1.00
C795   C     0.82482   0.20667   0.54679   0.00000  Uiso   1.00
C796   C     0.81986   0.12746   0.95154   0.00000  Uiso   1.00
C797   C     0.84913   0.20454   0.95298   0.00000  Uiso   1.00
C798   C     0.84419   0.12564   0.54845   0.00000  Uiso   1.00
H799   H     0.81657   0.23814   0.52897   0.00000  Uiso   1.00
H800   H     0.80779   0.09758   0.96812   0.00000  Uiso   1.00
H801   H     0.86145   0.23429   0.97074   0.00000  Uiso   1.00
H802   H     0.85260   0.09405   0.53197   0.00000  Uiso   1.00
C803   C     0.82499   0.20698   0.59268   0.00000  Uiso   1.00
C804   C     0.81981   0.12754   0.90560   0.00000  Uiso   1.00
C805   C     0.84833   0.20494   0.90705   0.00000  Uiso   1.00
C806   C     0.84361   0.12577   0.59437   0.00000  Uiso   1.00
H807   H     0.81764   0.23878   0.60917   0.00000  Uiso   1.00
H808   H     0.80813   0.09756   0.88765   0.00000  Uiso   1.00
H809   H     0.85960   0.23515   0.89037   0.00000  Uiso   1.00
H810   H     0.85115   0.09415   0.61228   0.00000  Uiso   1.00
C811   C     0.83402   0.16649   0.61679   0.00000  Uiso   1.00
C812   C     0.83384   0.16638   0.88311   0.00000  Uiso   1.00
C813   C     0.83456   0.16605   0.52425   0.00000  Uiso   1.00
C814   C     0.83463   0.16593   0.97564   0.00000  Uiso   1.00
C815   C     0.95713   0.16680   0.75040   0.00000  Uiso   1.00
C816   C     0.70956   0.16647   0.74961   0.00000  Uiso   1.00
C817   C     0.77548   0.05054   0.69417   0.00000  Uiso   1.00
H818   H     0.78382   0.06985   0.66534   0.00000  Uiso   1.00
O819   O     0.73906   0.04787   0.70262   0.00000  Uiso   1.00
C820   C     0.89492   0.28428   0.80241   0.00000  Uiso   1.00
H821   H     0.89032   0.25284   0.82035   0.00000  Uiso   1.00
O822   O     0.93005   0.29964   0.80248   0.00000  Uiso   1.00
C823   C     0.88178   0.04839   0.81615   0.00000  Uiso   1.00
H824   H     0.89908   0.07925   0.81071   0.00000  Uiso   1.00
O825   O     0.88141   0.03337   0.85388   0.00000  Uiso   1.00
C826   C     0.78277   0.28519   0.68487   0.00000  Uiso   1.00
H827   H     0.76910   0.25213   0.68972   0.00000  Uiso   1.00
O828   O     0.77753   0.30254   0.64817   0.00000  Uiso   1.00
C829   C     0.71698   0.14145   0.82896   0.00000  Uiso   1.00
H830   H     0.74456   0.16151   0.83714   0.00000  Uiso   1.00
O831   O     0.70938   0.10831   0.85214   0.00000  Uiso   1.00
C832   C     0.94974   0.19190   0.67108   0.00000  Uiso   1.00
H833   H     0.92236   0.17162   0.66263   0.00000  Uiso   1.00
O834   O     0.95711   0.22541   0.64829   0.00000  Uiso   1.00
C835   C     0.95966   0.14457   0.83106   0.00000  Uiso   1.00
H836   H     0.96860   0.11520   0.85167   0.00000  Uiso   1.00
O837   O     0.93240   0.17017   0.84320   0.00000  Uiso   1.00
C838   C     0.70702   0.18796   0.66873   0.00000  Uiso   1.00
H839   H     0.69765   0.21665   0.64744   0.00000  Uiso   1.00
O840   O     0.73470   0.16261   0.65717   0.00000  Uiso   1.00
O841   O     0.10655   0.53958   0.75000   0.00000  Uiso   1.00
O842   O     0.22679   0.46042   0.75001   0.00000  Uiso   1.00
O843   O     0.22679   0.53958   0.75001   0.00000  Uiso   1.00
O844   O     0.10655   0.46042   0.75000   0.00000  Uiso   1.00
N845   N     0.16667   0.61736   0.75000   0.00000  Uiso   1.00
N846   N     0.16667   0.38264   0.75000   0.00000  Uiso   1.00
C847   C     0.08765   0.50002   0.74956   0.00000  Uiso   1.00
C848   C     0.24569   0.49997   0.75046   0.00000  Uiso   1.00
O849   O     0.16666   0.53959   0.68573   0.00000  Uiso   1.00
O850   O     0.16667   0.46041   0.81427   0.00000  Uiso   1.00
O851   O     0.16667   0.53959   0.81427   0.00000  Uiso   1.00
O852   O     0.16666   0.46041   0.68573   0.00000  Uiso   1.00
C853   C     0.16679   0.50000   0.66509   0.00000  Uiso   1.00
C854   C     0.16684   0.49993   0.83487   0.00000  Uiso   1.00
Cu855  Cu    0.16667   0.54689   0.75000   0.00000  Uiso   1.00
Cu856  Cu    0.16667   0.45311   0.75000   0.00000  Uiso   1.00
C857   C     0.14051   0.35854   0.72154   0.00000  Uiso   1.00
C858   C     0.19376   0.64176   0.77759   0.00000  Uiso   1.00
C859   C     0.19192   0.35782   0.77946   0.00000  Uiso   1.00
C860   C     0.14115   0.64234   0.72052   0.00000  Uiso   1.00
C861   C     0.02392   0.48647   0.78859   0.00000  Uiso   1.00
C862   C     0.30945   0.51342   0.71141   0.00000  Uiso   1.00
C863   C     0.31383   0.48729   0.78922   0.00000  Uiso   1.00
C864   C     0.01953   0.51243   0.71072   0.00000  Uiso   1.00
C865   C     0.15815   0.54001   0.54679   0.00000  Uiso   1.00
C866   C     0.15319   0.46079   0.95154   0.00000  Uiso   1.00
C867   C     0.18246   0.53787   0.95298   0.00000  Uiso   1.00
C868   C     0.17752   0.45897   0.54845   0.00000  Uiso   1.00
H869   H     0.14990   0.57147   0.52897   0.00000  Uiso   1.00
H870   H     0.14112   0.43092   0.96812   0.00000  Uiso   1.00
H871   H     0.19479   0.56763   0.97074   0.00000  Uiso   1.00
H872   H     0.18593   0.42739   0.53197   0.00000  Uiso   1.00
C873   C     0.15833   0.54031   0.59268   0.00000  Uiso   1.00
C874   C     0.15314   0.46087   0.90560   0.00000  Uiso   1.00
C875   C     0.18166   0.53827   0.90705   0.00000  Uiso   1.00
C876   C     0.17695   0.45911   0.59437   0.00000  Uiso   1.00
H877   H     0.15098   0.57211   0.60917   0.00000  Uiso   1.00
H878   H     0.14146   0.43090   0.88765   0.00000  Uiso   1.00
H879   H     0.19293   0.56849   0.89037   0.00000  Uiso   1.00
H880   H     0.18449   0.42748   0.61228   0.00000  Uiso   1.00
C881   C     0.16735   0.49983   0.61679   0.00000  Uiso   1.00
C882   C     0.16717   0.49971   0.88311   0.00000  Uiso   1.00
C883   C     0.16790   0.49938   0.52425   0.00000  Uiso   1.00
C884   C     0.16796   0.49926   0.97564   0.00000  Uiso   1.00
C885   C     0.29047   0.50013   0.75040   0.00000  Uiso   1.00
C886   C     0.04289   0.49980   0.74961   0.00000  Uiso   1.00
C887   C     0.10882   0.38387   0.69417   0.00000  Uiso   1.00
H888   H     0.11716   0.40318   0.66534   0.00000  Uiso   1.00
O889   O     0.07239   0.38120   0.70262   0.00000  Uiso   1.00
C890   C     0.22825   0.61761   0.80241   0.00000  Uiso   1.00
H891   H     0.22366   0.58618   0.82035   0.00000  Uiso   1.00
O892   O     0.26338   0.63297   0.80248   0.00000  Uiso   1.00
C893   C     0.21511   0.38172   0.81615   0.00000  Uiso   1.00
H894   H     0.23241   0.41258   0.81071   0.00000  Uiso   1.00
O895   O     0.21474   0.36671   0.85388   0.00000  Uiso   1.00
C896   C     0.11610   0.61853   0.68487   0.00000  Uiso   1.00
H897   H     0.10244   0.58546   0.68972   0.00000  Uiso   1.00
O898   O     0.11087   0.63588   0.64817   0.00000  Uiso   1.00
C899   C     0.05031   0.47479   0.82896   0.00000  Uiso   1.00
H900   H     0.07789   0.49485   0.83714   0.00000  Uiso   1.00
O901   O     0.04272   0.44164   0.85214   0.00000  Uiso   1.00
C902   C     0.28308   0.52523   0.67108   0.00000  Uiso   1.00
H903   H     0.25569   0.50495   0.66263   0.00000  Uiso   1.00
O904   O     0.29045   0.55874   0.64829   0.00000  Uiso   1.00
C905   C     0.29299   0.47791   0.83106   0.00000  Uiso   1.00
H906   H     0.30194   0.44853   0.85167   0.00000  Uiso   1.00
O907   O     0.26573   0.50350   0.84320   0.00000  Uiso   1.00
C908   C     0.04035   0.52130   0.66873   0.00000  Uiso   1.00
H909   H     0.03099   0.54999   0.64744   0.00000  Uiso   1.00
O910   O     0.06804   0.49594   0.65717   0.00000  Uiso   1.00
O911   O     0.43988   0.53958   0.75000   0.00000  Uiso   1.00
O912   O     0.56012   0.46042   0.75001   0.00000  Uiso   1.00
O913   O     0.56012   0.53958   0.75001   0.00000  Uiso   1.00
O914   O     0.43988   0.46042   0.75000   0.00000  Uiso   1.00
N915   N     0.50000   0.61736   0.75000   0.00000  Uiso   1.00
N916   N     0.50000   0.38264   0.75000   0.00000  Uiso   1.00
C917   C     0.42099   0.50002   0.74956   0.00000  Uiso   1.00
C918   C     0.57902   0.49997   0.75046   0.00000  Uiso   1.00
O919   O     0.50000   0.53959   0.68573   0.00000  Uiso   1.00
O920   O     0.50000   0.46041   0.81427   0.00000  Uiso   1.00
O921   O     0.50000   0.53959   0.81427   0.00000  Uiso   1.00
O922   O     0.50000   0.46041   0.68573   0.00000  Uiso   1.00
C923   C     0.50013   0.50000   0.66509   0.00000  Uiso   1.00
C924   C     0.50017   0.49993   0.83487   0.00000  Uiso   1.00
Cu925  Cu    0.50000   0.54689   0.75000   0.00000  Uiso   1.00
Cu926  Cu    0.50000   0.45311   0.75000   0.00000  Uiso   1.00
C927   C     0.47384   0.35854   0.72154   0.00000  Uiso   1.00
C928   C     0.52709   0.64176   0.77759   0.00000  Uiso   1.00
C929   C     0.52525   0.35782   0.77946   0.00000  Uiso   1.00
C930   C     0.47449   0.64234   0.72052   0.00000  Uiso   1.00
C931   C     0.35725   0.48647   0.78859   0.00000  Uiso   1.00
C932   C     0.64278   0.51342   0.71141   0.00000  Uiso   1.00
C933   C     0.64716   0.48729   0.78922   0.00000  Uiso   1.00
C934   C     0.35287   0.51243   0.71072   0.00000  Uiso   1.00
C935   C     0.49148   0.54001   0.54679   0.00000  Uiso   1.00
C936   C     0.48653   0.46079   0.95154   0.00000  Uiso   1.00
C937   C     0.51580   0.53787   0.95298   0.00000  Uiso   1.00
C938   C     0.51086   0.45897   0.54845   0.00000  Uiso   1.00
H939   H     0.48324   0.57147   0.52897   0.00000  Uiso   1.00
H940   H     0.47445   0.43092   0.96812   0.00000  Uiso   1.00
H941   H     0.52812   0.56763   0.97074   0.00000  Uiso   1.00
H942   H     0.51926   0.42739   0.53197   0.00000  Uiso   1.00
C943   C     0.49166   0.54031   0.59268   0.00000  Uiso   1.00
C944   C     0.48647   0.46087   0.90560   0.00000  Uiso   1.00
C945   C     0.51500   0.53827   0.90705   0.00000  Uiso   1.00
C946   C     0.51028   0.45911   0.59437   0.00000  Uiso   1.00
H947   H     0.48431   0.57211   0.60917   0.00000  Uiso   1.00
H948   H     0.47480   0.43090   0.88765   0.00000  Uiso   1.00
H949   H     0.52627   0.56849   0.89037   0.00000  Uiso   1.00
H950   H     0.51782   0.42748   0.61228   0.00000  Uiso   1.00
C951   C     0.50069   0.49983   0.61679   0.00000  Uiso   1.00
C952   C     0.50050   0.49971   0.88311   0.00000  Uiso   1.00
C953   C     0.50123   0.49938   0.52425   0.00000  Uiso   1.00
C954   C     0.50130   0.49926   0.97564   0.00000  Uiso   1.00
C955   C     0.62380   0.50013   0.75040   0.00000  Uiso   1.00
C956   C     0.37622   0.49980   0.74961   0.00000  Uiso   1.00
C957   C     0.44215   0.38387   0.69417   0.00000  Uiso   1.00
H958   H     0.45049   0.40318   0.66534   0.00000  Uiso   1.00
O959   O     0.40572   0.38120   0.70262   0.00000  Uiso   1.00
C960   C     0.56159   0.61761   0.80241   0.00000  Uiso   1.00
H961   H     0.55699   0.58618   0.82035   0.00000  Uiso   1.00
O962   O     0.59672   0.63297   0.80248   0.00000  Uiso   1.00
C963   C     0.54844   0.38172   0.81615   0.00000  Uiso   1.00
H964   H     0.56574   0.41258   0.81071   0.00000  Uiso   1.00
O965   O     0.54808   0.36671   0.85388   0.00000  Uiso   1.00
C966   C     0.44943   0.61853   0.68487   0.00000  Uiso   1.00
H967   H     0.43577   0.58546   0.68972   0.00000  Uiso   1.00
O968   O     0.44420   0.63588   0.64817   0.00000  Uiso   1.00
C969   C     0.38364   0.47479   0.82896   0.00000  Uiso   1.00
H970   H     0.41122   0.49485   0.83714   0.00000  Uiso   1.00
O971   O     0.37605   0.44164   0.85214   0.00000  Uiso   1.00
C972   C     0.61641   0.52523   0.67108   0.00000  Uiso   1.00
H973   H     0.58902   0.50495   0.66263   0.00000  Uiso   1.00
O974   O     0.62378   0.55874   0.64829   0.00000  Uiso   1.00
C975   C     0.62632   0.47791   0.83106   0.00000  Uiso   1.00
H976   H     0.63527   0.44853   0.85167   0.00000  Uiso   1.00
O977   O     0.59906   0.50350   0.84320   0.00000  Uiso   1.00
C978   C     0.37369   0.52130   0.66873   0.00000  Uiso   1.00
H979   H     0.36432   0.54999   0.64744   0.00000  Uiso   1.00
O980   O     0.40137   0.49594   0.65717   0.00000  Uiso   1.00
O981   O     0.77321   0.53958   0.75000   0.00000  Uiso   1.00
O982   O     0.89345   0.46042   0.75001   0.00000  Uiso   1.00
O983   O     0.89345   0.53958   0.75001   0.00000  Uiso   1.00
O984   O     0.77321   0.46042   0.75000   0.00000  Uiso   1.00
N985   N     0.83333   0.61736   0.75000   0.00000  Uiso   1.00
N986   N     0.83333   0.38264   0.75000   0.00000  Uiso   1.00
C987   C     0.75432   0.50002   0.74956   0.00000  Uiso   1.00
C988   C     0.91236   0.49997   0.75046   0.00000  Uiso   1.00
O989   O     0.83333   0.53959   0.68573   0.00000  Uiso   1.00
O990   O     0.83334   0.46041   0.81427   0.00000  Uiso   1.00
O991   O     0.83334   0.53959   0.81427   0.00000  Uiso   1.00
O992   O     0.83333   0.46041   0.68573   0.00000  Uiso   1.00
C993   C     0.83346   0.50000   0.66509   0.00000  Uiso   1.00
C994   C     0.83351   0.49993   0.83487   0.00000  Uiso   1.00
Cu995  Cu    0.83333   0.54689   0.75000   0.00000  Uiso   1.00
Cu996  Cu    0.83333   0.45311   0.75000   0.00000  Uiso   1.00
C997   C     0.80717   0.35854   0.72154   0.00000  Uiso   1.00
C998   C     0.86042   0.64176   0.77759   0.00000  Uiso   1.00
C999   C     0.85859   0.35782   0.77946   0.00000  Uiso   1.00
C1000  C     0.80782   0.64234   0.72052   0.00000  Uiso   1.00
C1001  C     0.69059   0.48647   0.78859   0.00000  Uiso   1.00
C1002  C     0.97611   0.51342   0.71141   0.00000  Uiso   1.00
C1003  C     0.98050   0.48729   0.78922   0.00000  Uiso   1.00
C1004  C     0.68620   0.51243   0.71072   0.00000  Uiso   1.00
C1005  C     0.82482   0.54001   0.54679   0.00000  Uiso   1.00
C1006  C     0.81986   0.46079   0.95154   0.00000  Uiso   1.00
C1007  C     0.84913   0.53787   0.95298   0.00000  Uiso   1.00
C1008  C     0.84419   0.45897   0.54845   0.00000  Uiso   1.00
H1009  H     0.81657   0.57147   0.52897   0.00000  Uiso   1.00
H1010  H     0.80779   0.43092   0.96812   0.00000  Uiso   1.00
H1011  H     0.86145   0.56763   0.97074   0.00000  Uiso   1.00
H1012  H     0.85260   0.42739   0.53197   0.00000  Uiso   1.00
C1013  C     0.82499   0.54031   0.59268   0.00000  Uiso   1.00
C1014  C     0.81981   0.46087   0.90560   0.00000  Uiso   1.00
C1015  C     0.84833   0.53827   0.90705   0.00000  Uiso   1.00
C1016  C     0.84361   0.45911   0.59437   0.00000  Uiso   1.00
H1017  H     0.81764   0.57211   0.60917   0.00000  Uiso   1.00
H1018  H     0.80813   0.43090   0.88765   0.00000  Uiso   1.00
H1019  H     0.85960   0.56849   0.89037   0.00000  Uiso   1.00
H1020  H     0.85115   0.42748   0.61228   0.00000  Uiso   1.00
C1021  C     0.83402   0.49983   0.61679   0.00000  Uiso   1.00
C1022  C     0.83384   0.49971   0.88311   0.00000  Uiso   1.00
C1023  C     0.83456   0.49938   0.52425   0.00000  Uiso   1.00
C1024  C     0.83463   0.49926   0.97564   0.00000  Uiso   1.00
C1025  C     0.95713   0.50013   0.75040   0.00000  Uiso   1.00
C1026  C     0.70956   0.49980   0.74961   0.00000  Uiso   1.00
C1027  C     0.77548   0.38387   0.69417   0.00000  Uiso   1.00
H1028  H     0.78382   0.40318   0.66534   0.00000  Uiso   1.00
O1029  O     0.73906   0.38120   0.70262   0.00000  Uiso   1.00
C1030  C     0.89492   0.61761   0.80241   0.00000  Uiso   1.00
H1031  H     0.89032   0.58618   0.82035   0.00000  Uiso   1.00
O1032  O     0.93005   0.63297   0.80248   0.00000  Uiso   1.00
C1033  C     0.88178   0.38172   0.81615   0.00000  Uiso   1.00
H1034  H     0.89908   0.41258   0.81071   0.00000  Uiso   1.00
O1035  O     0.88141   0.36671   0.85388   0.00000  Uiso   1.00
C1036  C     0.78277   0.61853   0.68487   0.00000  Uiso   1.00
H1037  H     0.76910   0.58546   0.68972   0.00000  Uiso   1.00
O1038  O     0.77753   0.63588   0.64817   0.00000  Uiso   1.00
C1039  C     0.71698   0.47479   0.82896   0.00000  Uiso   1.00
H1040  H     0.74456   0.49485   0.83714   0.00000  Uiso   1.00
O1041  O     0.70938   0.44164   0.85214   0.00000  Uiso   1.00
C1042  C     0.94974   0.52523   0.67108   0.00000  Uiso   1.00
H1043  H     0.92236   0.50495   0.66263   0.00000  Uiso   1.00
O1044  O     0.95711   0.55874   0.64829   0.00000  Uiso   1.00
C1045  C     0.95966   0.47791   0.83106   0.00000  Uiso   1.00
H1046  H     0.96860   0.44853   0.85167   0.00000  Uiso   1.00
O1047  O     0.93240   0.50350   0.84320   0.00000  Uiso   1.00
C1048  C     0.70702   0.52130   0.66873   0.00000  Uiso   1.00
H1049  H     0.69765   0.54999   0.64744   0.00000  Uiso   1.00
O1050  O     0.73470   0.49594   0.65717   0.00000  Uiso   1.00
O1051  O     0.10655   0.87291   0.75000   0.00000  Uiso   1.00
O1052  O     0.22679   0.79375   0.75001   0.00000  Uiso   1.00
O1053  O     0.22679   0.87291   0.75001   0.00000  Uiso   1.00
O1054  O     0.10655   0.79375   0.75000   0.00000  Uiso   1.00
N1055  N     0.16667   0.95069   0.75000   0.00000  Uiso   1.00
N1056  N     0.16667   0.71598   0.75000   0.00000  Uiso   1.00
C1057  C     0.08765   0.83335   0.74956   0.00000  Uiso   1.00
C1058  C     0.24569   0.83331   0.75046   0.00000  Uiso   1.00
O1059  O     0.16666   0.87293   0.68573   0.00000  Uiso   1.00
O1060  O     0.16667   0.79374   0.81427   0.00000  Uiso   1.00
O1061  O     0.16667   0.87293   0.81427   0.00000  Uiso   1.00
O1062  O     0.16666   0.79374   0.68573   0.00000  Uiso   1.00
C1063  C     0.16679   0.83333   0.66509   0.00000  Uiso   1.00
C1064  C     0.16684   0.83327   0.83487   0.00000  Uiso   1.00
Cu1065 Cu    0.16667   0.88022   0.75000   0.00000  Uiso   1.00
Cu1066 Cu    0.16667   0.78645   0.75000   0.00000  Uiso   1.00
C1067  C     0.14051   0.69187   0.72154   0.00000  Uiso   1.00
C1068  C     0.19376   0.97510   0.77759   0.00000  Uiso   1.00
C1069  C     0.19192   0.69115   0.77946   0.00000  Uiso   1.00
C1070  C     0.14115   0.97568   0.72052   0.00000  Uiso   1.00
C1071  C     0.02392   0.81981   0.78859   0.00000  Uiso   1.00
C1072  C     0.30945   0.84676   0.71141   0.00000  Uiso   1.00
C1073  C     0.31383   0.82062   0.78922   0.00000  Uiso   1.00
C1074  C     0.01953   0.84577   0.71072   0.00000  Uiso   1.00
C1075  C     0.15815   0.87334   0.54679   0.00000  Uiso   1.00
C1076  C     0.15319   0.79413   0.95154   0.00000  Uiso   1.00
C1077  C     0.18246   0.87120   0.95298   0.00000  Uiso   1.00
C1078  C     0.17752   0.79230   0.54845   0.00000  Uiso   1.00
H1079  H     0.14990   0.90480   0.52897   0.00000  Uiso   1.00
H1080  H     0.14112   0.76425   0.96812   0.00000  Uiso   1.00
H1081  H     0.19479   0.90096   0.97074   0.00000  Uiso   1.00
H1082  H     0.18593   0.76072   0.53197   0.00000  Uiso   1.00
C1083  C     0.15833   0.87364   0.59268   0.00000  Uiso   1.00
C1084  C     0.15314   0.79420   0.90560   0.00000  Uiso   1.00
C1085  C     0.18166   0.87160   0.90705   0.00000  Uiso   1.00
C1086  C     0.17695   0.79244   0.59437   0.00000  Uiso   1.00
H1087  H     0.15098   0.90545   0.60917   0.00000  Uiso   1.00
H1088  H     0.14146   0.76423   0.88765   0.00000  Uiso   1.00
H1089  H     0.19293   0.90182   0.89037   0.00000  Uiso   1.00
H1090  H     0.18449   0.76082   0.61228   0.00000  Uiso   1.00
C1091  C     0.16735   0.83316   0.61679   0.00000  Uiso   1.00
C1092  C     0.16717   0.83305   0.88311   0.00000  Uiso   1.00
C1093  C     0.16790   0.83271   0.52425   0.00000  Uiso   1.00
C1094  C     0.16796   0.83260   0.97564   0.00000  Uiso   1.00
C1095  C     0.29047   0.83347   0.75040   0.00000  Uiso   1.00
C1096  C     0.04289   0.83314   0.74961   0.00000  Uiso   1.00
C1097  C     0.10882   0.71721   0.69417   0.00000  Uiso   1.00
H1098  H     0.11716   0.73651   0.66534   0.00000  Uiso   1.00
O1099  O     0.07239   0.71453   0.70262   0.00000  Uiso   1.00
C1100  C     0.22825   0.95094   0.80241   0.00000  Uiso   1.00
H1101  H     0.22366   0.91951   0.82035   0.00000  Uiso   1.00
O1102  O     0.26338   0.96631   0.80248   0.00000  Uiso   1.00
C1103  C     0.21511   0.71505   0.81615   0.00000  Uiso   1.00
H1104  H     0.23241   0.74592   0.81071   0.00000  Uiso   1.00
O1105  O     0.21474   0.70004   0.85388   0.00000  Uiso   1.00
C1106  C     0.11610   0.95186   0.68487   0.00000  Uiso   1.00
H1107  H     0.10244   0.91880   0.68972   0.00000  Uiso   1.00
O1108  O     0.11087   0.96921   0.64817   0.00000  Uiso   1.00
C1109  C     0.05031   0.80812   0.82896   0.00000  Uiso   1.00
H1110  H     0.07789   0.82818   0.83714   0.00000  Uiso   1.00
O1111  O     0.04272   0.77497   0.85214   0.00000  Uiso   1.00
C1112  C     0.28308   0.85856   0.67108   0.00000  Uiso   1.00
H1113  H     0.25569   0.83828   0.66263   0.00000  Uiso   1.00
O1114  O     0.29045   0.89208   0.64829   0.00000  Uiso   1.00
C1115  C     0.29299   0.81124   0.83106   0.00000  Uiso   1.00
H1116  H     0.30194   0.78186   0.85167   0.00000  Uiso   1.00
O1117  O     0.26573   0.83683   0.84320   0.00000  Uiso   1.00
C1118  C     0.04035   0.85463   0.66873   0.00000  Uiso   1.00
H1119  H     0.03099   0.88332   0.64744   0.00000  Uiso   1.00
O1120  O     0.06804   0.82927   0.65717   0.00000  Uiso   1.00
O1121  O     0.43988   0.87291   0.75000   0.00000  Uiso   1.00
O1122  O     0.56012   0.79375   0.75001   0.00000  Uiso   1.00
O1123  O     0.56012   0.87291   0.75001   0.00000  Uiso   1.00
O1124  O     0.43988   0.79375   0.75000   0.00000  Uiso   1.00
N1125  N     0.50000   0.95069   0.75000   0.00000  Uiso   1.00
N1126  N     0.50000   0.71598   0.75000   0.00000  Uiso   1.00
C1127  C     0.42099   0.83335   0.74956   0.00000  Uiso   1.00
C1128  C     0.57902   0.83331   0.75046   0.00000  Uiso   1.00
O1129  O     0.50000   0.87293   0.68573   0.00000  Uiso   1.00
O1130  O     0.50000   0.79374   0.81427   0.00000  Uiso   1.00
O1131  O     0.50000   0.87293   0.81427   0.00000  Uiso   1.00
O1132  O     0.50000   0.79374   0.68573   0.00000  Uiso   1.00
C1133  C     0.50013   0.83333   0.66509   0.00000  Uiso   1.00
C1134  C     0.50017   0.83327   0.83487   0.00000  Uiso   1.00
Cu1135 Cu    0.50000   0.88022   0.75000   0.00000  Uiso   1.00
Cu1136 Cu    0.50000   0.78645   0.75000   0.00000  Uiso   1.00
C1137  C     0.47384   0.69187   0.72154   0.00000  Uiso   1.00
C1138  C     0.52709   0.97510   0.77759   0.00000  Uiso   1.00
C1139  C     0.52525   0.69115   0.77946   0.00000  Uiso   1.00
C1140  C     0.47449   0.97568   0.72052   0.00000  Uiso   1.00
C1141  C     0.35725   0.81981   0.78859   0.00000  Uiso   1.00
C1142  C     0.64278   0.84676   0.71141   0.00000  Uiso   1.00
C1143  C     0.64716   0.82062   0.78922   0.00000  Uiso   1.00
C1144  C     0.35287   0.84577   0.71072   0.00000  Uiso   1.00
C1145  C     0.49148   0.87334   0.54679   0.00000  Uiso   1.00
C1146  C     0.48653   0.79413   0.95154   0.00000  Uiso   1.00
C1147  C     0.51580   0.87120   0.95298   0.00000  Uiso   1.00
C1148  C     0.51086   0.79230   0.54845   0.00000  Uiso   1.00
H1149  H     0.48324   0.90480   0.52897   0.00000  Uiso   1.00
H1150  H     0.47445   0.76425   0.96812   0.00000  Uiso   1.00
H1151  H     0.52812   0.90096   0.97074   0.00000  Uiso   1.00
H1152  H     0.51926   0.76072   0.53197   0.00000  Uiso   1.00
C1153  C     0.49166   0.87364   0.59268   0.00000  Uiso   1.00
C1154  C     0.48647   0.79420   0.90560   0.00000  Uiso   1.00
C1155  C     0.51500   0.87160   0.90705   0.00000  Uiso   1.00
C1156  C     0.51028   0.79244   0.59437   0.00000  Uiso   1.00
H1157  H     0.48431   0.90545   0.60917   0.00000  Uiso   1.00
H1158  H     0.47480   0.76423   0.88765   0.00000  Uiso   1.00
H1159  H     0.52627   0.90182   0.89037   0.00000  Uiso   1.00
H1160  H     0.51782   0.76082   0.61228   0.00000  Uiso   1.00
C1161  C     0.50069   0.83316   0.61679   0.00000  Uiso   1.00
C1162  C     0.50050   0.83305   0.88311   0.00000  Uiso   1.00
C1163  C     0.50123   0.83271   0.52425   0.00000  Uiso   1.00
C1164  C     0.50130   0.83260   0.97564   0.00000  Uiso   1.00
C1165  C     0.62380   0.83347   0.75040   0.00000  Uiso   1.00
C1166  C     0.37622   0.83314   0.74961   0.00000  Uiso   1.00
C1167  C     0.44215   0.71721   0.69417   0.00000  Uiso   1.00
H1168  H     0.45049   0.73651   0.66534   0.00000  Uiso   1.00
O1169  O     0.40572   0.71453   0.70262   0.00000  Uiso   1.00
C1170  C     0.56159   0.95094   0.80241   0.00000  Uiso   1.00
H1171  H     0.55699   0.91951   0.82035   0.00000  Uiso   1.00
O1172  O     0.59672   0.96631   0.80248   0.00000  Uiso   1.00
C1173  C     0.54844   0.71505   0.81615   0.00000  Uiso   1.00
H1174  H     0.56574   0.74592   0.81071   0.00000  Uiso   1.00
O1175  O     0.54808   0.70004   0.85388   0.00000  Uiso   1.00
C1176  C     0.44943   0.95186   0.68487   0.00000  Uiso   1.00
H1177  H     0.43577   0.91880   0.68972   0.00000  Uiso   1.00
O1178  O     0.44420   0.96921   0.64817   0.00000  Uiso   1.00
C1179  C     0.38364   0.80812   0.82896   0.00000  Uiso   1.00
H1180  H     0.41122   0.82818   0.83714   0.00000  Uiso   1.00
O1181  O     0.37605   0.77497   0.85214   0.00000  Uiso   1.00
C1182  C     0.61641   0.85856   0.67108   0.00000  Uiso   1.00
H1183  H     0.58902   0.83828   0.66263   0.00000  Uiso   1.00
O1184  O     0.62378   0.89208   0.64829   0.00000  Uiso   1.00
C1185  C     0.62632   0.81124   0.83106   0.00000  Uiso   1.00
H1186  H     0.63527   0.78186   0.85167   0.00000  Uiso   1.00
O1187  O     0.59906   0.83683   0.84320   0.00000  Uiso   1.00
C1188  C     0.37369   0.85463   0.66873   0.00000  Uiso   1.00
H1189  H     0.36432   0.88332   0.64744   0.00000  Uiso   1.00
O1190  O     0.40137   0.82927   0.65717   0.00000  Uiso   1.00
O1191  O     0.77321   0.87291   0.75000   0.00000  Uiso   1.00
O1192  O     0.89345   0.79375   0.75001   0.00000  Uiso   1.00
O1193  O     0.89345   0.87291   0.75001   0.00000  Uiso   1.00
O1194  O     0.77321   0.79375   0.75000   0.00000  Uiso   1.00
N1195  N     0.83333   0.95069   0.75000   0.00000  Uiso   1.00
N1196  N     0.83333   0.71598   0.75000   0.00000  Uiso   1.00
C1197  C     0.75432   0.83335   0.74956   0.00000  Uiso   1.00
C1198  C     0.91236   0.83331   0.75046   0.00000  Uiso   1.00
O1199  O     0.83333   0.87293   0.68573   0.00000  Uiso   1.00
O1200  O     0.83334   0.79374   0.81427   0.00000  Uiso   1.00
O1201  O     0.83334   0.87293   0.81427   0.00000  Uiso   1.00
O1202  O     0.83333   0.79374   0.68573   0.00000  Uiso   1.00
C1203  C     0.83346   0.83333   0.66509   0.00000  Uiso   1.00
C1204  C     0.83351   0.83327   0.83487   0.00000  Uiso   1.00
Cu1205 Cu    0.83333   0.88022   0.75000   0.00000  Uiso   1.00
Cu1206 Cu    0.83333   0.78645   0.75000   0.00000  Uiso   1.00
C1207  C     0.80717   0.69187   0.72154   0.00000  Uiso   1.00
C1208  C     0.86042   0.97510   0.77759   0.00000  Uiso   1.00
C1209  C     0.85859   0.69115   0.77946   0.00000  Uiso   1.00
C1210  C     0.80782   0.97568   0.72052   0.00000  Uiso   1.00
C1211  C     0.69059   0.81981   0.78859   0.00000  Uiso   1.00
C1212  C     0.97611   0.84676   0.71141   0.00000  Uiso   1.00
C1213  C     0.98050   0.82062   0.78922   0.00000  Uiso   1.00
C1214  C     0.68620   0.84577   0.71072   0.00000  Uiso   1.00
C1215  C     0.82482   0.87334   0.54679   0.00000  Uiso   1.00
C1216  C     0.81986   0.79413   0.95154   0.00000  Uiso   1.00
C1217  C     0.84913   0.87120   0.95298   0.00000  Uiso   1.00
C1218  C     0.84419   0.79230   0.54845   0.00000  Uiso   1.00
H1219  H     0.81657   0.90480   0.52897   0.00000  Uiso   1.00
H1220  H     0.80779   0.76425   0.96812   0.00000  Uiso   1.00
H1221  H     0.86145   0.90096   0.97074   0.00000  Uiso   1.00
H1222  H     0.85260   0.76072   0.53197   0.00000  Uiso   1.00
C1223  C     0.82499   0.87364   0.59268   0.00000  Uiso   1.00
C1224  C     0.81981   0.79420   0.90560   0.00000  Uiso   1.00
C1225  C     0.84833   0.87160   0.90705   0.00000  Uiso   1.00
C1226  C     0.84361   0.79244   0.59437   0.00000  Uiso   1.00
H1227  H     0.81764   0.90545   0.60917   0.00000  Uiso   1.00
H1228  H     0.80813   0.76423   0.88765   0.00000  Uiso   1.00
H1229  H     0.85960   0.90182   0.89037   0.00000  Uiso   1.00
H1230  H     0.85115   0.76082   0.61228   0.00000  Uiso   1.00
C1231  C     0.83402   0.83316   0.61679   0.00000  Uiso   1.00
C1232  C     0.83384   0.83305   0.88311   0.00000  Uiso   1.00
C1233  C     0.83456   0.83271   0.52425   0.00000  Uiso   1.00
C1234  C     0.83463   0.83260   0.97564   0.00000  Uiso   1.00
C1235  C     0.95713   0.83347   0.75040   0.00000  Uiso   1.00
C1236  C     0.70956   0.83314   0.74961   0.00000  Uiso   1.00
C1237  C     0.77548   0.71721   0.69417   0.00000  Uiso   1.00
H1238  H     0.78382   0.73651   0.66534   0.00000  Uiso   1.00
O1239  O     0.73906   0.71453   0.70262   0.00000  Uiso   1.00
C1240  C     0.89492   0.95094   0.80241   0.00000  Uiso   1.00
H1241  H     0.89032   0.91951   0.82035   0.00000  Uiso   1.00
O1242  O     0.93005   0.96631   0.80248   0.00000  Uiso   1.00
C1243  C     0.88178   0.71505   0.81615   0.00000  Uiso   1.00
H1244  H     0.89908   0.74592   0.81071   0.00000  Uiso   1.00
O1245  O     0.88141   0.70004   0.85388   0.00000  Uiso   1.00
C1246  C     0.78277   0.95186   0.68487   0.00000  Uiso   1.00
H1247  H     0.76910   0.91880   0.68972   0.00000  Uiso   1.00
O1248  O     0.77753   0.96921   0.64817   0.00000  Uiso   1.00
C1249  C     0.71698   0.80812   0.82896   0.00000  Uiso   1.00
H1250  H     0.74456   0.82818   0.83714   0.00000  Uiso   1.00
O1251  O     0.70938   0.77497   0.85214   0.00000  Uiso   1.00
C1252  C     0.94974   0.85856   0.67108   0.00000  Uiso   1.00
H1253  H     0.92236   0.83828   0.66263   0.00000  Uiso   1.00
O1254  O     0.95711   0.89208   0.64829   0.00000  Uiso   1.00
C1255  C     0.95966   0.81124   0.83106   0.00000  Uiso   1.00
H1256  H     0.96860   0.78186   0.85167   0.00000  Uiso   1.00
O1257  O     0.93240   0.83683   0.84320   0.00000  Uiso   1.00
C1258  C     0.70702   0.85463   0.66873   0.00000  Uiso   1.00
H1259  H     0.69765   0.88332   0.64744   0.00000  Uiso   1.00
O1260  O     0.73470   0.82927   0.65717   0.00000  Uiso   1.00
loop_
_geom_bond_atom_site_label_1
_geom_bond_atom_site_label_2
_geom_bond_distance
_geom_bond_site_symmetry_2
_ccdc_geom_bond_type
O1     Cu15    1.956   .     S
O1     C7      1.300   .     A
O2     Cu16    1.956   .     S
O2     C8      1.299   .     A
O3     C8      1.297   .     A
O3     Cu15    1.955   .     S
O4     Cu16    1.955   .     S
O4     C7      1.296   .     A
N5     C20     1.385   .     A
N5     Cu15    2.039   .     S
N5     C18     1.377   .     A
N6     C19     1.377   .     A
N6     Cu16    2.039   .     S
N6     C17     1.370   .     A
C7     C46     1.448   .     S
C8     C45     1.448   .     S
O9     Cu15    1.957   .     S
O9     C13     1.306   .     A
O10    Cu16    1.957   .     S
O10    C14     1.304   .     A
O11    C14     1.305   .     A
O11    Cu15    1.956   .     S
O12    C13     1.304   .     A
O12    Cu16    1.956   .     S
C13    C41     1.463   .     S
C14    C42     1.460   .     S
Cu15   Cu16    2.714   .     S
C17    C47     1.476   .     S
C17    C440    1.434   1_545 S
C18    C50     1.484   .     S
C18    C229    1.432   .     S
C19    C53     1.482   .     S
C19    C438    1.432   1_545 S
C20    C56     1.488   .     S
C20    C227    1.434   .     S
C21    C59     1.492   .     S
C21    C46     1.411   .     A
C21    C163    1.405   1_455 S
C22    C62     1.491   .     S
C22    C45     1.411   .     A
C22    C94     1.405   .     S
C23    C45     1.412   .     A
C23    C65     1.490   .     S
C23    C91     1.405   .     S
C24    C46     1.412   .     A
C24    C68     1.490   .     S
C24    C162    1.405   1_455 S
C25    C43     1.403   .     A
C25    H29     1.083   .     S
C25    C33     1.389   .     A
C26    C44     1.404   .     A
C26    H30     1.083   .     S
C26    C34     1.390   .     A
C27    H31     1.083   .     S
C27    C35     1.389   .     A
C27    C44     1.404   .     A
C28    C43     1.404   .     A
C28    C36     1.391   .     A
C28    H32     1.083   .     S
C33    C41     1.401   .     A
C33    H37     1.080   .     S
C34    C42     1.402   .     A
C34    H38     1.083   .     S
C35    H39     1.082   .     S
C35    C42     1.401   .     A
C36    C41     1.403   .     A
C36    H40     1.083   .     S
C43    C674    1.471   1_554 S
C44    C673    1.471   .     S
C47    H48     1.081   .     S
C47    O49     1.221   .     D
C50    O52     1.221   .     D
C50    H51     1.073   .     S
C53    H54     1.073   .     S
C53    O55     1.221   .     D
C56    H57     1.068   .     S
C56    O58     1.221   .     D
C59    H60     1.084   .     S
C59    O61     1.220   .     D
C62    H63     1.084   .     S
C62    O64     1.220   .     D
C65    H66     1.083   .     S
C65    O67     1.221   .     D
C68    H69     1.082   .     S
C68    O70     1.221   .     D
O71    Cu85    1.956   .     S
O71    C77     1.300   .     A
O72    Cu86    1.956   .     S
O72    C78     1.299   .     A
O73    C78     1.297   .     A
O73    Cu85    1.955   .     S
O74    Cu86    1.955   .     S
O74    C77     1.296   .     A
N75    C90     1.385   .     A
N75    Cu85    2.039   .     S
N75    C88     1.377   .     A
N76    C89     1.377   .     A
N76    Cu86    2.039   .     S
N76    C87     1.370   .     A
C77    C116    1.448   .     S
C78    C115    1.448   .     S
O79    Cu85    1.957   .     S
O79    C83     1.306   .     A
O80    Cu86    1.957   .     S
O80    C84     1.304   .     A
O81    C84     1.305   .     A
O81    Cu85    1.956   .     S
O82    C83     1.304   .     A
O82    Cu86    1.956   .     S
C83    C111    1.463   .     S
C84    C112    1.460   .     S
Cu85   Cu86    2.714   .     S
C87    C117    1.476   .     S
C87    C510    1.434   1_545 S
C88    C120    1.484   .     S
C88    C299    1.432   .     S
C89    C123    1.482   .     S
C89    C508    1.432   1_545 S
C90    C126    1.488   .     S
C90    C297    1.434   .     S
C91    C129    1.492   .     S
C91    C116    1.411   .     A
C92    C132    1.491   .     S
C92    C115    1.411   .     A
C92    C164    1.405   .     S
C93    C115    1.412   .     A
C93    C135    1.490   .     S
C93    C161    1.405   .     S
C94    C116    1.412   .     A
C94    C138    1.490   .     S
C95    C113    1.403   .     A
C95    H99     1.083   .     S
C95    C103    1.389   .     A
C96    C114    1.404   .     A
C96    H100    1.083   .     S
C96    C104    1.390   .     A
C97    H101    1.083   .     S
C97    C105    1.389   .     A
C97    C114    1.404   .     A
C98    C113    1.404   .     A
C98    C106    1.391   .     A
C98    H102    1.083   .     S
C103   C111    1.401   .     A
C103   H107    1.080   .     S
C104   C112    1.402   .     A
C104   H108    1.083   .     S
C105   H109    1.082   .     S
C105   C112    1.401   .     A
C106   C111    1.403   .     A
C106   H110    1.083   .     S
C113   C744    1.471   1_554 S
C114   C743    1.471   .     S
C117   H118    1.081   .     S
C117   O119    1.221   .     D
C120   O122    1.221   .     D
C120   H121    1.073   .     S
C123   H124    1.073   .     S
C123   O125    1.221   .     D
C126   H127    1.068   .     S
C126   O128    1.221   .     D
C129   H130    1.084   .     S
C129   O131    1.220   .     D
C132   H133    1.084   .     S
C132   O134    1.220   .     D
C135   H136    1.083   .     S
C135   O137    1.221   .     D
C138   H139    1.082   .     S
C138   O140    1.221   .     D
O141   Cu155   1.956   .     S
O141   C147    1.300   .     A
O142   Cu156   1.956   .     S
O142   C148    1.299   .     A
O143   C148    1.297   .     A
O143   Cu155   1.955   .     S
O144   Cu156   1.955   .     S
O144   C147    1.296   .     A
N145   C160    1.385   .     A
N145   Cu155   2.039   .     S
N145   C158    1.377   .     A
N146   C159    1.377   .     A
N146   Cu156   2.039   .     S
N146   C157    1.370   .     A
C147   C186    1.448   .     S
C148   C185    1.448   .     S
O149   Cu155   1.957   .     S
O149   C153    1.306   .     A
O150   Cu156   1.957   .     S
O150   C154    1.304   .     A
O151   C154    1.305   .     A
O151   Cu155   1.956   .     S
O152   C153    1.304   .     A
O152   Cu156   1.956   .     S
C153   C181    1.463   .     S
C154   C182    1.460   .     S
Cu155  Cu156   2.714   .     S
C157   C187    1.476   .     S
C157   C580    1.434   1_545 S
C158   C190    1.484   .     S
C158   C369    1.432   .     S
C159   C193    1.482   .     S
C159   C578    1.432   1_545 S
C160   C196    1.488   .     S
C160   C367    1.434   .     S
C161   C199    1.492   .     S
C161   C186    1.411   .     A
C162   C202    1.491   .     S
C162   C185    1.411   .     A
C162   C24     1.405   1_655 S
C163   C185    1.412   .     A
C163   C205    1.490   .     S
C163   C21     1.405   1_655 S
C164   C186    1.412   .     A
C164   C208    1.490   .     S
C165   C183    1.403   .     A
C165   H169    1.083   .     S
C165   C173    1.389   .     A
C166   C184    1.404   .     A
C166   H170    1.083   .     S
C166   C174    1.390   .     A
C167   H171    1.083   .     S
C167   C175    1.389   .     A
C167   C184    1.404   .     A
C168   C183    1.404   .     A
C168   C176    1.391   .     A
C168   H172    1.083   .     S
C173   C181    1.401   .     A
C173   H177    1.080   .     S
C174   C182    1.402   .     A
C174   H178    1.083   .     S
C175   H179    1.082   .     S
C175   C182    1.401   .     A
C176   C181    1.403   .     A
C176   H180    1.083   .     S
C183   C814    1.471   1_554 S
C184   C813    1.471   .     S
C187   H188    1.081   .     S
C187   O189    1.221   .     D
C190   O192    1.221   .     D
C190   H191    1.073   .     S
C193   H194    1.073   .     S
C193   O195    1.221   .     D
C196   H197    1.068   .     S
C196   O198    1.221   .     D
C199   H200    1.084   .     S
C199   O201    1.220   .     D
C202   H203    1.084   .     S
C202   O204    1.220   .     D
C205   H206    1.083   .     S
C205   O207    1.221   .     D
C208   H209    1.082   .     S
C208   O210    1.221   .     D
O211   Cu225   1.956   .     S
O211   C217    1.300   .     A
O212   Cu226   1.956   .     S
O212   C218    1.299   .     A
O213   C218    1.297   .     A
O213   Cu225   1.955   .     S
O214   Cu226   1.955   .     S
O214   C217    1.296   .     A
N215   C230    1.385   .     A
N215   Cu225   2.039   .     S
N215   C228    1.377   .     A
N216   C229    1.377   .     A
N216   Cu226   2.039   .     S
N216   C227    1.370   .     A
C217   C256    1.448   .     S
C218   C255    1.448   .     S
O219   Cu225   1.957   .     S
O219   C223    1.306   .     A
O220   Cu226   1.957   .     S
O220   C224    1.304   .     A
O221   C224    1.305   .     A
O221   Cu225   1.956   .     S
O222   C223    1.304   .     A
O222   Cu226   1.956   .     S
C223   C251    1.463   .     S
C224   C252    1.460   .     S
Cu225  Cu226   2.714   .     S
C227   C257    1.476   .     S
C228   C260    1.484   .     S
C228   C439    1.432   .     S
C229   C263    1.482   .     S
C230   C266    1.488   .     S
C230   C437    1.434   .     S
C231   C269    1.492   .     S
C231   C256    1.411   .     A
C231   C373    1.405   1_455 S
C232   C272    1.491   .     S
C232   C255    1.411   .     A
C232   C304    1.405   .     S
C233   C255    1.412   .     A
C233   C275    1.490   .     S
C233   C301    1.405   .     S
C234   C256    1.412   .     A
C234   C278    1.490   .     S
C234   C372    1.405   1_455 S
C235   C253    1.403   .     A
C235   H239    1.083   .     S
C235   C243    1.389   .     A
C236   C254    1.404   .     A
C236   H240    1.083   .     S
C236   C244    1.390   .     A
C237   H241    1.083   .     S
C237   C245    1.389   .     A
C237   C254    1.404   .     A
C238   C253    1.404   .     A
C238   C246    1.391   .     A
C238   H242    1.083   .     S
C243   C251    1.401   .     A
C243   H247    1.080   .     S
C244   C252    1.402   .     A
C244   H248    1.083   .     S
C245   H249    1.082   .     S
C245   C252    1.401   .     A
C246   C251    1.403   .     A
C246   H250    1.083   .     S
C253   C884    1.471   1_554 S
C254   C883    1.471   .     S
C257   H258    1.081   .     S
C257   O259    1.221   .     D
C260   O262    1.221   .     D
C260   H261    1.073   .     S
C263   H264    1.073   .     S
C263   O265    1.221   .     D
C266   H267    1.068   .     S
C266   O268    1.221   .     D
C269   H270    1.084   .     S
C269   O271    1.220   .     D
C272   H273    1.084   .     S
C272   O274    1.220   .     D
C275   H276    1.083   .     S
C275   O277    1.221   .     D
C278   H279    1.082   .     S
C278   O280    1.221   .     D
O281   Cu295   1.956   .     S
O281   C287    1.300   .     A
O282   Cu296   1.956   .     S
O282   C288    1.299   .     A
O283   C288    1.297   .     A
O283   Cu295   1.955   .     S
O284   Cu296   1.955   .     S
O284   C287    1.296   .     A
N285   C300    1.385   .     A
N285   Cu295   2.039   .     S
N285   C298    1.377   .     A
N286   C299    1.377   .     A
N286   Cu296   2.039   .     S
N286   C297    1.370   .     A
C287   C326    1.448   .     S
C288   C325    1.448   .     S
O289   Cu295   1.957   .     S
O289   C293    1.306   .     A
O290   Cu296   1.957   .     S
O290   C294    1.304   .     A
O291   C294    1.305   .     A
O291   Cu295   1.956   .     S
O292   C293    1.304   .     A
O292   Cu296   1.956   .     S
C293   C321    1.463   .     S
C294   C322    1.460   .     S
Cu295  Cu296   2.714   .     S
C297   C327    1.476   .     S
C298   C330    1.484   .     S
C298   C509    1.432   .     S
C299   C333    1.482   .     S
C300   C336    1.488   .     S
C300   C507    1.434   .     S
C301   C339    1.492   .     S
C301   C326    1.411   .     A
C302   C342    1.491   .     S
C302   C325    1.411   .     A
C302   C374    1.405   .     S
C303   C325    1.412   .     A
C303   C345    1.490   .     S
C303   C371    1.405   .     S
C304   C326    1.412   .     A
C304   C348    1.490   .     S
C305   C323    1.403   .     A
C305   H309    1.083   .     S
C305   C313    1.389   .     A
C306   C324    1.404   .     A
C306   H310    1.083   .     S
C306   C314    1.390   .     A
C307   H311    1.083   .     S
C307   C315    1.389   .     A
C307   C324    1.404   .     A
C308   C323    1.404   .     A
C308   C316    1.391   .     A
C308   H312    1.083   .     S
C313   C321    1.401   .     A
C313   H317    1.080   .     S
C314   C322    1.402   .     A
C314   H318    1.083   .     S
C315   H319    1.082   .     S
C315   C322    1.401   .     A
C316   C321    1.403   .     A
C316   H320    1.083   .     S
C323   C954    1.471   1_554 S
C324   C953    1.471   .     S
C327   H328    1.081   .     S
C327   O329    1.221   .     D
C330   O332    1.221   .     D
C330   H331    1.073   .     S
C333   H334    1.073   .     S
C333   O335    1.221   .     D
C336   H337    1.068   .     S
C336   O338    1.221   .     D
C339   H340    1.084   .     S
C339   O341    1.220   .     D
C342   H343    1.084   .     S
C342   O344    1.220   .     D
C345   H346    1.083   .     S
C345   O347    1.221   .     D
C348   H349    1.082   .     S
C348   O350    1.221   .     D
O351   Cu365   1.956   .     S
O351   C357    1.300   .     A
O352   Cu366   1.956   .     S
O352   C358    1.299   .     A
O353   C358    1.297   .     A
O353   Cu365   1.955   .     S
O354   Cu366   1.955   .     S
O354   C357    1.296   .     A
N355   C370    1.385   .     A
N355   Cu365   2.039   .     S
N355   C368    1.377   .     A
N356   C369    1.377   .     A
N356   Cu366   2.039   .     S
N356   C367    1.370   .     A
C357   C396    1.448   .     S
C358   C395    1.448   .     S
O359   Cu365   1.957   .     S
O359   C363    1.306   .     A
O360   Cu366   1.957   .     S
O360   C364    1.304   .     A
O361   C364    1.305   .     A
O361   Cu365   1.956   .     S
O362   C363    1.304   .     A
O362   Cu366   1.956   .     S
C363   C391    1.463   .     S
C364   C392    1.460   .     S
Cu365  Cu366   2.714   .     S
C367   C397    1.476   .     S
C368   C400    1.484   .     S
C368   C579    1.432   .     S
C369   C403    1.482   .     S
C370   C406    1.488   .     S
C370   C577    1.434   .     S
C371   C409    1.492   .     S
C371   C396    1.411   .     A
C372   C412    1.491   .     S
C372   C395    1.411   .     A
C372   C234    1.405   1_655 S
C373   C395    1.412   .     A
C373   C415    1.490   .     S
C373   C231    1.405   1_655 S
C374   C396    1.412   .     A
C374   C418    1.490   .     S
C375   C393    1.403   .     A
C375   H379    1.083   .     S
C375   C383    1.389   .     A
C376   C394    1.404   .     A
C376   H380    1.083   .     S
C376   C384    1.390   .     A
C377   H381    1.083   .     S
C377   C385    1.389   .     A
C377   C394    1.404   .     A
C378   C393    1.404   .     A
C378   C386    1.391   .     A
C378   H382    1.083   .     S
C383   C391    1.401   .     A
C383   H387    1.080   .     S
C384   C392    1.402   .     A
C384   H388    1.083   .     S
C385   H389    1.082   .     S
C385   C392    1.401   .     A
C386   C391    1.403   .     A
C386   H390    1.083   .     S
C393   C1024   1.471   1_554 S
C394   C1023   1.471   .     S
C397   H398    1.081   .     S
C397   O399    1.221   .     D
C400   O402    1.221   .     D
C400   H401    1.073   .     S
C403   H404    1.073   .     S
C403   O405    1.221   .     D
C406   H407    1.068   .     S
C406   O408    1.221   .     D
C409   H410    1.084   .     S
C409   O411    1.220   .     D
C412   H413    1.084   .     S
C412   O414    1.220   .     D
C415   H416    1.083   .     S
C415   O417    1.221   .     D
C418   H419    1.082   .     S
C418   O420    1.221   .     D
O421   Cu435   1.956   .     S
O421   C427    1.300   .     A
O422   Cu436   1.956   .     S
O422   C428    1.299   .     A
O423   C428    1.297   .     A
O423   Cu435   1.955   .     S
O424   Cu436   1.955   .     S
O424   C427    1.296   .     A
N425   C440    1.385   .     A
N425   Cu435   2.039   .     S
N425   C438    1.377   .     A
N426   C439    1.377   .     A
N426   Cu436   2.039   .     S
N426   C437    1.370   .     A
C427   C466    1.448   .     S
C428   C465    1.448   .     S
O429   Cu435   1.957   .     S
O429   C433    1.306   .     A
O430   Cu436   1.957   .     S
O430   C434    1.304   .     A
O431   C434    1.305   .     A
O431   Cu435   1.956   .     S
O432   C433    1.304   .     A
O432   Cu436   1.956   .     S
C433   C461    1.463   .     S
C434   C462    1.460   .     S
Cu435  Cu436   2.714   .     S
C437   C467    1.476   .     S
C438   C470    1.484   .     S
C438   C19     1.432   1_565 S
C439   C473    1.482   .     S
C440   C476    1.488   .     S
C440   C17     1.434   1_565 S
C441   C479    1.492   .     S
C441   C466    1.411   .     A
C441   C583    1.405   1_455 S
C442   C482    1.491   .     S
C442   C465    1.411   .     A
C442   C514    1.405   .     S
C443   C465    1.412   .     A
C443   C485    1.490   .     S
C443   C511    1.405   .     S
C444   C466    1.412   .     A
C444   C488    1.490   .     S
C444   C582    1.405   1_455 S
C445   C463    1.403   .     A
C445   H449    1.083   .     S
C445   C453    1.389   .     A
C446   C464    1.404   .     A
C446   H450    1.083   .     S
C446   C454    1.390   .     A
C447   H451    1.083   .     S
C447   C455    1.389   .     A
C447   C464    1.404   .     A
C448   C463    1.404   .     A
C448   C456    1.391   .     A
C448   H452    1.083   .     S
C453   C461    1.401   .     A
C453   H457    1.080   .     S
C454   C462    1.402   .     A
C454   H458    1.083   .     S
C455   H459    1.082   .     S
C455   C462    1.401   .     A
C456   C461    1.403   .     A
C456   H460    1.083   .     S
C463   C1094   1.471   1_554 S
C464   C1093   1.471   .     S
C467   H468    1.081   .     S
C467   O469    1.221   .     D
C470   O472    1.221   .     D
C470   H471    1.073   .     S
C473   H474    1.073   .     S
C473   O475    1.221   .     D
C476   H477    1.068   .     S
C476   O478    1.221   .     D
C479   H480    1.084   .     S
C479   O481    1.220   .     D
C482   H483    1.084   .     S
C482   O484    1.220   .     D
C485   H486    1.083   .     S
C485   O487    1.221   .     D
C488   H489    1.082   .     S
C488   O490    1.221   .     D
O491   Cu505   1.956   .     S
O491   C497    1.300   .     A
O492   Cu506   1.956   .     S
O492   C498    1.299   .     A
O493   C498    1.297   .     A
O493   Cu505   1.955   .     S
O494   Cu506   1.955   .     S
O494   C497    1.296   .     A
N495   C510    1.385   .     A
N495   Cu505   2.039   .     S
N495   C508    1.377   .     A
N496   C509    1.377   .     A
N496   Cu506   2.039   .     S
N496   C507    1.370   .     A
C497   C536    1.448   .     S
C498   C535    1.448   .     S
O499   Cu505   1.957   .     S
O499   C503    1.306   .     A
O500   Cu506   1.957   .     S
O500   C504    1.304   .     A
O501   C504    1.305   .     A
O501   Cu505   1.956   .     S
O502   C503    1.304   .     A
O502   Cu506   1.956   .     S
C503   C531    1.463   .     S
C504   C532    1.460   .     S
Cu505  Cu506   2.714   .     S
C507   C537    1.476   .     S
C508   C540    1.484   .     S
C508   C89     1.432   1_565 S
C509   C543    1.482   .     S
C510   C546    1.488   .     S
C510   C87     1.434   1_565 S
C511   C549    1.492   .     S
C511   C536    1.411   .     A
C512   C552    1.491   .     S
C512   C535    1.411   .     A
C512   C584    1.405   .     S
C513   C535    1.412   .     A
C513   C555    1.490   .     S
C513   C581    1.405   .     S
C514   C536    1.412   .     A
C514   C558    1.490   .     S
C515   C533    1.403   .     A
C515   H519    1.083   .     S
C515   C523    1.389   .     A
C516   C534    1.404   .     A
C516   H520    1.083   .     S
C516   C524    1.390   .     A
C517   H521    1.083   .     S
C517   C525    1.389   .     A
C517   C534    1.404   .     A
C518   C533    1.404   .     A
C518   C526    1.391   .     A
C518   H522    1.083   .     S
C523   C531    1.401   .     A
C523   H527    1.080   .     S
C524   C532    1.402   .     A
C524   H528    1.083   .     S
C525   H529    1.082   .     S
C525   C532    1.401   .     A
C526   C531    1.403   .     A
C526   H530    1.083   .     S
C533   C1164   1.471   1_554 S
C534   C1163   1.471   .     S
C537   H538    1.081   .     S
C537   O539    1.221   .     D
C540   O542    1.221   .     D
C540   H541    1.073   .     S
C543   H544    1.073   .     S
C543   O545    1.221   .     D
C546   H547    1.068   .     S
C546   O548    1.221   .     D
C549   H550    1.084   .     S
C549   O551    1.220   .     D
C552   H553    1.084   .     S
C552   O554    1.220   .     D
C555   H556    1.083   .     S
C555   O557    1.221   .     D
C558   H559    1.082   .     S
C558   O560    1.221   .     D
O561   Cu575   1.956   .     S
O561   C567    1.300   .     A
O562   Cu576   1.956   .     S
O562   C568    1.299   .     A
O563   C568    1.297   .     A
O563   Cu575   1.955   .     S
O564   Cu576   1.955   .     S
O564   C567    1.296   .     A
N565   C580    1.385   .     A
N565   Cu575   2.039   .     S
N565   C578    1.377   .     A
N566   C579    1.377   .     A
N566   Cu576   2.039   .     S
N566   C577    1.370   .     A
C567   C606    1.448   .     S
C568   C605    1.448   .     S
O569   Cu575   1.957   .     S
O569   C573    1.306   .     A
O570   Cu576   1.957   .     S
O570   C574    1.304   .     A
O571   C574    1.305   .     A
O571   Cu575   1.956   .     S
O572   C573    1.304   .     A
O572   Cu576   1.956   .     S
C573   C601    1.463   .     S
C574   C602    1.460   .     S
Cu575  Cu576   2.714   .     S
C577   C607    1.476   .     S
C578   C610    1.484   .     S
C578   C159    1.432   1_565 S
C579   C613    1.482   .     S
C580   C616    1.488   .     S
C580   C157    1.434   1_565 S
C581   C619    1.492   .     S
C581   C606    1.411   .     A
C582   C622    1.491   .     S
C582   C605    1.411   .     A
C582   C444    1.405   1_655 S
C583   C605    1.412   .     A
C583   C625    1.490   .     S
C583   C441    1.405   1_655 S
C584   C606    1.412   .     A
C584   C628    1.490   .     S
C585   C603    1.403   .     A
C585   H589    1.083   .     S
C585   C593    1.389   .     A
C586   C604    1.404   .     A
C586   H590    1.083   .     S
C586   C594    1.390   .     A
C587   H591    1.083   .     S
C587   C595    1.389   .     A
C587   C604    1.404   .     A
C588   C603    1.404   .     A
C588   C596    1.391   .     A
C588   H592    1.083   .     S
C593   C601    1.401   .     A
C593   H597    1.080   .     S
C594   C602    1.402   .     A
C594   H598    1.083   .     S
C595   H599    1.082   .     S
C595   C602    1.401   .     A
C596   C601    1.403   .     A
C596   H600    1.083   .     S
C603   C1234   1.471   1_554 S
C604   C1233   1.471   .     S
C607   H608    1.081   .     S
C607   O609    1.221   .     D
C610   O612    1.221   .     D
C610   H611    1.073   .     S
C613   H614    1.073   .     S
C613   O615    1.221   .     D
C616   H617    1.068   .     S
C616   O618    1.221   .     D
C619   H620    1.084   .     S
C619   O621    1.220   .     D
C622   H623    1.084   .     S
C622   O624    1.220   .     D
C625   H626    1.083   .     S
C625   O627    1.221   .     D
C628   H629    1.082   .     S
C628   O630    1.221   .     D
O631   Cu645   1.956   .     S
O631   C637    1.300   .     A
O632   Cu646   1.956   .     S
O632   C638    1.299   .     A
O633   C638    1.297   .     A
O633   Cu645   1.955   .     S
O634   Cu646   1.955   .     S
O634   C637    1.296   .     A
N635   C650    1.385   .     A
N635   Cu645   2.039   .     S
N635   C648    1.377   .     A
N636   C649    1.377   .     A
N636   Cu646   2.039   .     S
N636   C647    1.370   .     A
C637   C676    1.448   .     S
C638   C675    1.448   .     S
O639   Cu645   1.957   .     S
O639   C643    1.306   .     A
O640   Cu646   1.957   .     S
O640   C644    1.304   .     A
O641   C644    1.305   .     A
O641   Cu645   1.956   .     S
O642   C643    1.304   .     A
O642   Cu646   1.956   .     S
C643   C671    1.463   .     S
C644   C672    1.460   .     S
Cu645  Cu646   2.714   .     S
C647   C677    1.476   .     S
C647   C1070   1.434   1_545 S
C648   C680    1.484   .     S
C648   C859    1.432   .     S
C649   C683    1.482   .     S
C649   C1068   1.432   1_545 S
C650   C686    1.488   .     S
C650   C857    1.434   .     S
C651   C689    1.492   .     S
C651   C676    1.411   .     A
C651   C793    1.405   1_455 S
C652   C692    1.491   .     S
C652   C675    1.411   .     A
C652   C724    1.405   .     S
C653   C675    1.412   .     A
C653   C695    1.490   .     S
C653   C721    1.405   .     S
C654   C676    1.412   .     A
C654   C698    1.490   .     S
C654   C792    1.405   1_455 S
C655   C673    1.403   .     A
C655   H659    1.083   .     S
C655   C663    1.389   .     A
C656   C674    1.404   .     A
C656   H660    1.083   .     S
C656   C664    1.390   .     A
C657   H661    1.083   .     S
C657   C665    1.389   .     A
C657   C674    1.404   .     A
C658   C673    1.404   .     A
C658   C666    1.391   .     A
C658   H662    1.083   .     S
C663   C671    1.401   .     A
C663   H667    1.080   .     S
C664   C672    1.402   .     A
C664   H668    1.083   .     S
C665   H669    1.082   .     S
C665   C672    1.401   .     A
C666   C671    1.403   .     A
C666   H670    1.083   .     S
C674   C43     1.471   1_556 S
C677   H678    1.081   .     S
C677   O679    1.221   .     D
C680   O682    1.221   .     D
C680   H681    1.073   .     S
C683   H684    1.073   .     S
C683   O685    1.221   .     D
C686   H687    1.068   .     S
C686   O688    1.221   .     D
C689   H690    1.084   .     S
C689   O691    1.220   .     D
C692   H693    1.084   .     S
C692   O694    1.220   .     D
C695   H696    1.083   .     S
C695   O697    1.221   .     D
C698   H699    1.082   .     S
C698   O700    1.221   .     D
O701   Cu715   1.956   .     S
O701   C707    1.300   .     A
O702   Cu716   1.956   .     S
O702   C708    1.299   .     A
O703   C708    1.297   .     A
O703   Cu715   1.955   .     S
O704   Cu716   1.955   .     S
O704   C707    1.296   .     A
N705   C720    1.385   .     A
N705   Cu715   2.039   .     S
N705   C718    1.377   .     A
N706   C719    1.377   .     A
N706   Cu716   2.039   .     S
N706   C717    1.370   .     A
C707   C746    1.448   .     S
C708   C745    1.448   .     S
O709   Cu715   1.957   .     S
O709   C713    1.306   .     A
O710   Cu716   1.957   .     S
O710   C714    1.304   .     A
O711   C714    1.305   .     A
O711   Cu715   1.956   .     S
O712   C713    1.304   .     A
O712   Cu716   1.956   .     S
C713   C741    1.463   .     S
C714   C742    1.460   .     S
Cu715  Cu716   2.714   .     S
C717   C747    1.476   .     S
C717   C1140   1.434   1_545 S
C718   C750    1.484   .     S
C718   C929    1.432   .     S
C719   C753    1.482   .     S
C719   C1138   1.432   1_545 S
C720   C756    1.488   .     S
C720   C927    1.434   .     S
C721   C759    1.492   .     S
C721   C746    1.411   .     A
C722   C762    1.491   .     S
C722   C745    1.411   .     A
C722   C794    1.405   .     S
C723   C745    1.412   .     A
C723   C765    1.490   .     S
C723   C791    1.405   .     S
C724   C746    1.412   .     A
C724   C768    1.490   .     S
C725   C743    1.403   .     A
C725   H729    1.083   .     S
C725   C733    1.389   .     A
C726   C744    1.404   .     A
C726   H730    1.083   .     S
C726   C734    1.390   .     A
C727   H731    1.083   .     S
C727   C735    1.389   .     A
C727   C744    1.404   .     A
C728   C743    1.404   .     A
C728   C736    1.391   .     A
C728   H732    1.083   .     S
C733   C741    1.401   .     A
C733   H737    1.080   .     S
C734   C742    1.402   .     A
C734   H738    1.083   .     S
C735   H739    1.082   .     S
C735   C742    1.401   .     A
C736   C741    1.403   .     A
C736   H740    1.083   .     S
C744   C113    1.471   1_556 S
C747   H748    1.081   .     S
C747   O749    1.221   .     D
C750   O752    1.221   .     D
C750   H751    1.073   .     S
C753   H754    1.073   .     S
C753   O755    1.221   .     D
C756   H757    1.068   .     S
C756   O758    1.221   .     D
C759   H760    1.084   .     S
C759   O761    1.220   .     D
C762   H763    1.084   .     S
C762   O764    1.220   .     D
C765   H766    1.083   .     S
C765   O767    1.221   .     D
C768   H769    1.082   .     S
C768   O770    1.221   .     D
O771   Cu785   1.956   .     S
O771   C777    1.300   .     A
O772   Cu786   1.956   .     S
O772   C778    1.299   .     A
O773   C778    1.297   .     A
O773   Cu785   1.955   .     S
O774   Cu786   1.955   .     S
O774   C777    1.296   .     A
N775   C790    1.385   .     A
N775   Cu785   2.039   .     S
N775   C788    1.377   .     A
N776   C789    1.377   .     A
N776   Cu786   2.039   .     S
N776   C787    1.370   .     A
C777   C816    1.448   .     S
C778   C815    1.448   .     S
O779   Cu785   1.957   .     S
O779   C783    1.306   .     A
O780   Cu786   1.957   .     S
O780   C784    1.304   .     A
O781   C784    1.305   .     A
O781   Cu785   1.956   .     S
O782   C783    1.304   .     A
O782   Cu786   1.956   .     S
C783   C811    1.463   .     S
C784   C812    1.460   .     S
Cu785  Cu786   2.714   .     S
C787   C817    1.476   .     S
C787   C1210   1.434   1_545 S
C788   C820    1.484   .     S
C788   C999    1.432   .     S
C789   C823    1.482   .     S
C789   C1208   1.432   1_545 S
C790   C826    1.488   .     S
C790   C997    1.434   .     S
C791   C829    1.492   .     S
C791   C816    1.411   .     A
C792   C832    1.491   .     S
C792   C815    1.411   .     A
C792   C654    1.405   1_655 S
C793   C815    1.412   .     A
C793   C835    1.490   .     S
C793   C651    1.405   1_655 S
C794   C816    1.412   .     A
C794   C838    1.490   .     S
C795   C813    1.403   .     A
C795   H799    1.083   .     S
C795   C803    1.389   .     A
C796   C814    1.404   .     A
C796   H800    1.083   .     S
C796   C804    1.390   .     A
C797   H801    1.083   .     S
C797   C805    1.389   .     A
C797   C814    1.404   .     A
C798   C813    1.404   .     A
C798   C806    1.391   .     A
C798   H802    1.083   .     S
C803   C811    1.401   .     A
C803   H807    1.080   .     S
C804   C812    1.402   .     A
C804   H808    1.083   .     S
C805   H809    1.082   .     S
C805   C812    1.401   .     A
C806   C811    1.403   .     A
C806   H810    1.083   .     S
C814   C183    1.471   1_556 S
C817   H818    1.081   .     S
C817   O819    1.221   .     D
C820   O822    1.221   .     D
C820   H821    1.073   .     S
C823   H824    1.073   .     S
C823   O825    1.221   .     D
C826   H827    1.068   .     S
C826   O828    1.221   .     D
C829   H830    1.084   .     S
C829   O831    1.220   .     D
C832   H833    1.084   .     S
C832   O834    1.220   .     D
C835   H836    1.083   .     S
C835   O837    1.221   .     D
C838   H839    1.082   .     S
C838   O840    1.221   .     D
O841   Cu855   1.956   .     S
O841   C847    1.300   .     A
O842   Cu856   1.956   .     S
O842   C848    1.299   .     A
O843   C848    1.297   .     A
O843   Cu855   1.955   .     S
O844   Cu856   1.955   .     S
O844   C847    1.296   .     A
N845   C860    1.385   .     A
N845   Cu855   2.039   .     S
N845   C858    1.377   .     A
N846   C859    1.377   .     A
N846   Cu856   2.039   .     S
N846   C857    1.370   .     A
C847   C886    1.448   .     S
C848   C885    1.448   .     S
O849   Cu855   1.957   .     S
O849   C853    1.306   .     A
O850   Cu856   1.957   .     S
O850   C854    1.304   .     A
O851   C854    1.305   .     A
O851   Cu855   1.956   .     S
O852   C853    1.304   .     A
O852   Cu856   1.956   .     S
C853   C881    1.463   .     S
C854   C882    1.460   .     S
Cu855  Cu856   2.714   .     S
C857   C887    1.476   .     S
C858   C890    1.484   .     S
C858   C1069   1.432   .     S
C859   C893    1.482   .     S
C860   C896    1.488   .     S
C860   C1067   1.434   .     S
C861   C899    1.492   .     S
C861   C886    1.411   .     A
C861   C1003   1.405   1_455 S
C862   C902    1.491   .     S
C862   C885    1.411   .     A
C862   C934    1.405   .     S
C863   C885    1.412   .     A
C863   C905    1.490   .     S
C863   C931    1.405   .     S
C864   C886    1.412   .     A
C864   C908    1.490   .     S
C864   C1002   1.405   1_455 S
C865   C883    1.403   .     A
C865   H869    1.083   .     S
C865   C873    1.389   .     A
C866   C884    1.404   .     A
C866   H870    1.083   .     S
C866   C874    1.390   .     A
C867   H871    1.083   .     S
C867   C875    1.389   .     A
C867   C884    1.404   .     A
C868   C883    1.404   .     A
C868   C876    1.391   .     A
C868   H872    1.083   .     S
C873   C881    1.401   .     A
C873   H877    1.080   .     S
C874   C882    1.402   .     A
C874   H878    1.083   .     S
C875   H879    1.082   .     S
C875   C882    1.401   .     A
C876   C881    1.403   .     A
C876   H880    1.083   .     S
C884   C253    1.471   1_556 S
C887   H888    1.081   .     S
C887   O889    1.221   .     D
C890   O892    1.221   .     D
C890   H891    1.073   .     S
C893   H894    1.073   .     S
C893   O895    1.221   .     D
C896   H897    1.068   .     S
C896   O898    1.221   .     D
C899   H900    1.084   .     S
C899   O901    1.220   .     D
C902   H903    1.084   .     S
C902   O904    1.220   .     D
C905   H906    1.083   .     S
C905   O907    1.221   .     D
C908   H909    1.082   .     S
C908   O910    1.221   .     D
O911   Cu925   1.956   .     S
O911   C917    1.300   .     A
O912   Cu926   1.956   .     S
O912   C918    1.299   .     A
O913   C918    1.297   .     A
O913   Cu925   1.955   .     S
O914   Cu926   1.955   .     S
O914   C917    1.296   .     A
N915   C930    1.385   .     A
N915   Cu925   2.039   .     S
N915   C928    1.377   .     A
N916   C929    1.377   .     A
N916   Cu926   2.039   .     S
N916   C927    1.370   .     A
C917   C956    1.448   .     S
C918   C955    1.448   .     S
O919   Cu925   1.957   .     S
O919   C923    1.306   .     A
O920   Cu926   1.957   .     S
O920   C924    1.304   .     A
O921   C924    1.305   .     A
O921   Cu925   1.956   .     S
O922   C923    1.304   .     A
O922   Cu926   1.956   .     S
C923   C951    1.463   .     S
C924   C952    1.460   .     S
Cu925  Cu926   2.714   .     S
C927   C957    1.476   .     S
C928   C960    1.484   .     S
C928   C1139   1.432   .     S
C929   C963    1.482   .     S
C930   C966    1.488   .     S
C930   C1137   1.434   .     S
C931   C969    1.492   .     S
C931   C956    1.411   .     A
C932   C972    1.491   .     S
C932   C955    1.411   .     A
C932   C1004   1.405   .     S
C933   C955    1.412   .     A
C933   C975    1.490   .     S
C933   C1001   1.405   .     S
C934   C956    1.412   .     A
C934   C978    1.490   .     S
C935   C953    1.403   .     A
C935   H939    1.083   .     S
C935   C943    1.389   .     A
C936   C954    1.404   .     A
C936   H940    1.083   .     S
C936   C944    1.390   .     A
C937   H941    1.083   .     S
C937   C945    1.389   .     A
C937   C954    1.404   .     A
C938   C953    1.404   .     A
C938   C946    1.391   .     A
C938   H942    1.083   .     S
C943   C951    1.401   .     A
C943   H947    1.080   .     S
C944   C952    1.402   .     A
C944   H948    1.083   .     S
C945   H949    1.082   .     S
C945   C952    1.401   .     A
C946   C951    1.403   .     A
C946   H950    1.083   .     S
C954   C323    1.471   1_556 S
C957   H958    1.081   .     S
C957   O959    1.221   .     D
C960   O962    1.221   .     D
C960   H961    1.073   .     S
C963   H964    1.073   .     S
C963   O965    1.221   .     D
C966   H967    1.068   .     S
C966   O968    1.221   .     D
C969   H970    1.084   .     S
C969   O971    1.220   .     D
C972   H973    1.084   .     S
C972   O974    1.220   .     D
C975   H976    1.083   .     S
C975   O977    1.221   .     D
C978   H979    1.082   .     S
C978   O980    1.221   .     D
O981   Cu995   1.956   .     S
O981   C987    1.300   .     A
O982   Cu996   1.956   .     S
O982   C988    1.299   .     A
O983   C988    1.297   .     A
O983   Cu995   1.955   .     S
O984   Cu996   1.955   .     S
O984   C987    1.296   .     A
N985   C1000   1.385   .     A
N985   Cu995   2.039   .     S
N985   C998    1.377   .     A
N986   C999    1.377   .     A
N986   Cu996   2.039   .     S
N986   C997    1.370   .     A
C987   C1026   1.448   .     S
C988   C1025   1.448   .     S
O989   Cu995   1.957   .     S
O989   C993    1.306   .     A
O990   Cu996   1.957   .     S
O990   C994    1.304   .     A
O991   C994    1.305   .     A
O991   Cu995   1.956   .     S
O992   C993    1.304   .     A
O992   Cu996   1.956   .     S
C993   C1021   1.463   .     S
C994   C1022   1.460   .     S
Cu995  Cu996   2.714   .     S
C997   C1027   1.476   .     S
C998   C1030   1.484   .     S
C998   C1209   1.432   .     S
C999   C1033   1.482   .     S
C1000  C1036   1.488   .     S
C1000  C1207   1.434   .     S
C1001  C1039   1.492   .     S
C1001  C1026   1.411   .     A
C1002  C1042   1.491   .     S
C1002  C1025   1.411   .     A
C1002  C864    1.405   1_655 S
C1003  C1025   1.412   .     A
C1003  C1045   1.490   .     S
C1003  C861    1.405   1_655 S
C1004  C1026   1.412   .     A
C1004  C1048   1.490   .     S
C1005  C1023   1.403   .     A
C1005  H1009   1.083   .     S
C1005  C1013   1.389   .     A
C1006  C1024   1.404   .     A
C1006  H1010   1.083   .     S
C1006  C1014   1.390   .     A
C1007  H1011   1.083   .     S
C1007  C1015   1.389   .     A
C1007  C1024   1.404   .     A
C1008  C1023   1.404   .     A
C1008  C1016   1.391   .     A
C1008  H1012   1.083   .     S
C1013  C1021   1.401   .     A
C1013  H1017   1.080   .     S
C1014  C1022   1.402   .     A
C1014  H1018   1.083   .     S
C1015  H1019   1.082   .     S
C1015  C1022   1.401   .     A
C1016  C1021   1.403   .     A
C1016  H1020   1.083   .     S
C1024  C393    1.471   1_556 S
C1027  H1028   1.081   .     S
C1027  O1029   1.221   .     D
C1030  O1032   1.221   .     D
C1030  H1031   1.073   .     S
C1033  H1034   1.073   .     S
C1033  O1035   1.221   .     D
C1036  H1037   1.068   .     S
C1036  O1038   1.221   .     D
C1039  H1040   1.084   .     S
C1039  O1041   1.220   .     D
C1042  H1043   1.084   .     S
C1042  O1044   1.220   .     D
C1045  H1046   1.083   .     S
C1045  O1047   1.221   .     D
C1048  H1049   1.082   .     S
C1048  O1050   1.221   .     D
O1051  Cu1065  1.956   .     S
O1051  C1057   1.300   .     A
O1052  Cu1066  1.956   .     S
O1052  C1058   1.299   .     A
O1053  C1058   1.297   .     A
O1053  Cu1065  1.955   .     S
O1054  Cu1066  1.955   .     S
O1054  C1057   1.296   .     A
N1055  C1070   1.385   .     A
N1055  Cu1065  2.039   .     S
N1055  C1068   1.377   .     A
N1056  C1069   1.377   .     A
N1056  Cu1066  2.039   .     S
N1056  C1067   1.370   .     A
C1057  C1096   1.448   .     S
C1058  C1095   1.448   .     S
O1059  Cu1065  1.957   .     S
O1059  C1063   1.306   .     A
O1060  Cu1066  1.957   .     S
O1060  C1064   1.304   .     A
O1061  C1064   1.305   .     A
O1061  Cu1065  1.956   .     S
O1062  C1063   1.304   .     A
O1062  Cu1066  1.956   .     S
C1063  C1091   1.463   .     S
C1064  C1092   1.460   .     S
Cu1065 Cu1066  2.714   .     S
C1067  C1097   1.476   .     S
C1068  C1100   1.484   .     S
C1068  C649    1.432   1_565 S
C1069  C1103   1.482   .     S
C1070  C1106   1.488   .     S
C1070  C647    1.434   1_565 S
C1071  C1109   1.492   .     S
C1071  C1096   1.411   .     A
C1071  C1213   1.405   1_455 S
C1072  C1112   1.491   .     S
C1072  C1095   1.411   .     A
C1072  C1144   1.405   .     S
C1073  C1095   1.412   .     A
C1073  C1115   1.490   .     S
C1073  C1141   1.405   .     S
C1074  C1096   1.412   .     A
C1074  C1118   1.490   .     S
C1074  C1212   1.405   1_455 S
C1075  C1093   1.403   .     A
C1075  H1079   1.083   .     S
C1075  C1083   1.389   .     A
C1076  C1094   1.404   .     A
C1076  H1080   1.083   .     S
C1076  C1084   1.390   .     A
C1077  H1081   1.083   .     S
C1077  C1085   1.389   .     A
C1077  C1094   1.404   .     A
C1078  C1093   1.404   .     A
C1078  C1086   1.391   .     A
C1078  H1082   1.083   .     S
C1083  C1091   1.401   .     A
C1083  H1087   1.080   .     S
C1084  C1092   1.402   .     A
C1084  H1088   1.083   .     S
C1085  H1089   1.082   .     S
C1085  C1092   1.401   .     A
C1086  C1091   1.403   .     A
C1086  H1090   1.083   .     S
C1094  C463    1.471   1_556 S
C1097  H1098   1.081   .     S
C1097  O1099   1.221   .     D
C1100  O1102   1.221   .     D
C1100  H1101   1.073   .     S
C1103  H1104   1.073   .     S
C1103  O1105   1.221   .     D
C1106  H1107   1.068   .     S
C1106  O1108   1.221   .     D
C1109  H1110   1.084   .     S
C1109  O1111   1.220   .     D
C1112  H1113   1.084   .     S
C1112  O1114   1.220   .     D
C1115  H1116   1.083   .     S
C1115  O1117   1.221   .     D
C1118  H1119   1.082   .     S
C1118  O1120   1.221   .     D
O1121  Cu1135  1.956   .     S
O1121  C1127   1.300   .     A
O1122  Cu1136  1.956   .     S
O1122  C1128   1.299   .     A
O1123  C1128   1.297   .     A
O1123  Cu1135  1.955   .     S
O1124  Cu1136  1.955   .     S
O1124  C1127   1.296   .     A
N1125  C1140   1.385   .     A
N1125  Cu1135  2.039   .     S
N1125  C1138   1.377   .     A
N1126  C1139   1.377   .     A
N1126  Cu1136  2.039   .     S
N1126  C1137   1.370   .     A
C1127  C1166   1.448   .     S
C1128  C1165   1.448   .     S
O1129  Cu1135  1.957   .     S
O1129  C1133   1.306   .     A
O1130  Cu1136  1.957   .     S
O1130  C1134   1.304   .     A
O1131  C1134   1.305   .     A
O1131  Cu1135  1.956   .     S
O1132  C1133   1.304   .     A
O1132  Cu1136  1.956   .     S
C1133  C1161   1.463   .     S
C1134  C1162   1.460   .     S
Cu1135 Cu1136  2.714   .     S
C1137  C1167   1.476   .     S
C1138  C1170   1.484   .     S
C1138  C719    1.432   1_565 S
C1139  C1173   1.482   .     S
C1140  C1176   1.488   .     S
C1140  C717    1.434   1_565 S
C1141  C1179   1.492   .     S
C1141  C1166   1.411   .     A
C1142  C1182   1.491   .     S
C1142  C1165   1.411   .     A
C1142  C1214   1.405   .     S
C1143  C1165   1.412   .     A
C1143  C1185   1.490   .     S
C1143  C1211   1.405   .     S
C1144  C1166   1.412   .     A
C1144  C1188   1.490   .     S
C1145  C1163   1.403   .     A
C1145  H1149   1.083   .     S
C1145  C1153   1.389   .     A
C1146  C1164   1.404   .     A
C1146  H1150   1.083   .     S
C1146  C1154   1.390   .     A
C1147  H1151   1.083   .     S
C1147  C1155   1.389   .     A
C1147  C1164   1.404   .     A
C1148  C1163   1.404   .     A
C1148  C1156   1.391   .     A
C1148  H1152   1.083   .     S
C1153  C1161   1.401   .     A
C1153  H1157   1.080   .     S
C1154  C1162   1.402   .     A
C1154  H1158   1.083   .     S
C1155  H1159   1.082   .     S
C1155  C1162   1.401   .     A
C1156  C1161   1.403   .     A
C1156  H1160   1.083   .     S
C1164  C533    1.471   1_556 S
C1167  H1168   1.081   .     S
C1167  O1169   1.221   .     D
C1170  O1172   1.221   .     D
C1170  H1171   1.073   .     S
C1173  H1174   1.073   .     S
C1173  O1175   1.221   .     D
C1176  H1177   1.068   .     S
C1176  O1178   1.221   .     D
C1179  H1180   1.084   .     S
C1179  O1181   1.220   .     D
C1182  H1183   1.084   .     S
C1182  O1184   1.220   .     D
C1185  H1186   1.083   .     S
C1185  O1187   1.221   .     D
C1188  H1189   1.082   .     S
C1188  O1190   1.221   .     D
O1191  Cu1205  1.956   .     S
O1191  C1197   1.300   .     A
O1192  Cu1206  1.956   .     S
O1192  C1198   1.299   .     A
O1193  C1198   1.297   .     A
O1193  Cu1205  1.955   .     S
O1194  Cu1206  1.955   .     S
O1194  C1197   1.296   .     A
N1195  C1210   1.385   .     A
N1195  Cu1205  2.039   .     S
N1195  C1208   1.377   .     A
N1196  C1209   1.377   .     A
N1196  Cu1206  2.039   .     S
N1196  C1207   1.370   .     A
C1197  C1236   1.448   .     S
C1198  C1235   1.448   .     S
O1199  Cu1205  1.957   .     S
O1199  C1203   1.306   .     A
O1200  Cu1206  1.957   .     S
O1200  C1204   1.304   .     A
O1201  C1204   1.305   .     A
O1201  Cu1205  1.956   .     S
O1202  C1203   1.304   .     A
O1202  Cu1206  1.956   .     S
C1203  C1231   1.463   .     S
C1204  C1232   1.460   .     S
Cu1205 Cu1206  2.714   .     S
C1207  C1237   1.476   .     S
C1208  C1240   1.484   .     S
C1208  C789    1.432   1_565 S
C1209  C1243   1.482   .     S
C1210  C1246   1.488   .     S
C1210  C787    1.434   1_565 S
C1211  C1249   1.492   .     S
C1211  C1236   1.411   .     A
C1212  C1252   1.491   .     S
C1212  C1235   1.411   .     A
C1212  C1074   1.405   1_655 S
C1213  C1235   1.412   .     A
C1213  C1255   1.490   .     S
C1213  C1071   1.405   1_655 S
C1214  C1236   1.412   .     A
C1214  C1258   1.490   .     S
C1215  C1233   1.403   .     A
C1215  H1219   1.083   .     S
C1215  C1223   1.389   .     A
C1216  C1234   1.404   .     A
C1216  H1220   1.083   .     S
C1216  C1224   1.390   .     A
C1217  H1221   1.083   .     S
C1217  C1225   1.389   .     A
C1217  C1234   1.404   .     A
C1218  C1233   1.404   .     A
C1218  C1226   1.391   .     A
C1218  H1222   1.083   .     S
C1223  C1231   1.401   .     A
C1223  H1227   1.080   .     S
C1224  C1232   1.402   .     A
C1224  H1228   1.083   .     S
C1225  H1229   1.082   .     S
C1225  C1232   1.401   .     A
C1226  C1231   1.403   .     A
C1226  H1230   1.083   .     S
C1234  C603    1.471   1_556 S
C1237  H1238   1.081   .     S
C1237  O1239   1.221   .     D
C1240  O1242   1.221   .     D
C1240  H1241   1.073   .     S
C1243  H1244   1.073   .     S
C1243  O1245   1.221   .     D
C1246  H1247   1.068   .     S
C1246  O1248   1.221   .     D
C1249  H1250   1.084   .     S
C1249  O1251   1.220   .     D
C1252  H1253   1.084   .     S
C1252  O1254   1.220   .     D
C1255  H1256   1.083   .     S
C1255  O1257   1.221   .     D
C1258  H1259   1.082   .     S
C1258  O1260   1.221   .     D
