data_str_m3_o2_o10_pcu_sym.151
_audit_creation_date              2020-01-03
_audit_creation_method            'Materials Studio'
_symmetry_space_group_name_H-M    'P1'
_symmetry_Int_Tables_number       1
_symmetry_cell_setting            triclinic
loop_
_symmetry_equiv_pos_as_xyz
  x,y,z
_cell_length_a                    25.9227
_cell_length_b                    30.0219
_cell_length_c                    28.5535
_cell_angle_alpha                 90.1044
_cell_angle_beta                  98.2912
_cell_angle_gamma                 91.6211
loop_
_atom_site_label
_atom_site_type_symbol
_atom_site_fract_x
_atom_site_fract_y
_atom_site_fract_z
_atom_site_U_iso_or_equiv
_atom_site_adp_type
_atom_site_occupancy
C1     C     0.16657   0.16397   0.24994   0.00000  Uiso   1.00
C2     C     0.16673   0.33604   0.25003   0.00000  Uiso   1.00
C3     C     0.12049   0.23547   0.04705   0.00000  Uiso   1.00
C4     C     0.18449   0.28922   0.44932   0.00000  Uiso   1.00
C5     C     0.12476   0.23147   0.09671   0.00000  Uiso   1.00
C6     C     0.18904   0.28552   0.40079   0.00000  Uiso   1.00
C7     C     0.20717   0.26919   0.10639   0.00000  Uiso   1.00
C8     C     0.14352   0.21573   0.39590   0.00000  Uiso   1.00
C9     C     0.20748   0.26768   0.05722   0.00000  Uiso   1.00
C10    C     0.14523   0.21548   0.44533   0.00000  Uiso   1.00
C11    C     0.16353   0.25229   0.02621   0.00000  Uiso   1.00
C12    C     0.16405   0.25274   0.47309   0.00000  Uiso   1.00
C13    C     0.06726   0.24889   0.23786   0.00000  Uiso   1.00
C14    C     0.26607   0.25110   0.26216   0.00000  Uiso   1.00
C15    C     0.01245   0.24226   0.23264   0.00000  Uiso   1.00
C16    C     0.32088   0.25768   0.26744   0.00000  Uiso   1.00
C17    C     0.14764   0.04661   0.28624   0.00000  Uiso   1.00
C18    C     0.14887   0.45236   0.20791   0.00000  Uiso   1.00
C19    C     0.14788   0.09259   0.28648   0.00000  Uiso   1.00
C20    C     0.14910   0.40638   0.20799   0.00000  Uiso   1.00
C21    C     0.16650   0.11606   0.24978   0.00000  Uiso   1.00
C22    C     0.16669   0.38397   0.24995   0.00000  Uiso   1.00
C23    C     0.18503   0.09354   0.21291   0.00000  Uiso   1.00
C24    C     0.18434   0.40759   0.29174   0.00000  Uiso   1.00
C25    C     0.18532   0.04755   0.21296   0.00000  Uiso   1.00
C26    C     0.18463   0.45358   0.29153   0.00000  Uiso   1.00
C27    C     0.16655   0.02408   0.24960   0.00000  Uiso   1.00
C28    C     0.16673   0.47597   0.24966   0.00000  Uiso   1.00
H29    H     0.13232   0.02863   0.31434   0.00000  Uiso   1.00
H30    H     0.13429   0.46948   0.17552   0.00000  Uiso   1.00
H31    H     0.13293   0.10967   0.31489   0.00000  Uiso   1.00
H32    H     0.13494   0.38840   0.17552   0.00000  Uiso   1.00
H33    H     0.19993   0.11144   0.18455   0.00000  Uiso   1.00
H34    H     0.19853   0.39063   0.32428   0.00000  Uiso   1.00
H35    H     0.20065   0.03033   0.18481   0.00000  Uiso   1.00
H36    H     0.19922   0.47166   0.32382   0.00000  Uiso   1.00
H37    H     0.24158   0.28056   0.04324   0.00000  Uiso   1.00
H38    H     0.12956   0.18657   0.46170   0.00000  Uiso   1.00
N39    N     0.16667   0.24999   0.12624   0.00000  Uiso   1.00
N40    N     0.16667   0.25001   0.37377   0.00000  Uiso   1.00
O41    O     0.16667   0.18454   0.28974   0.00000  Uiso   1.00
O42    O     0.16666   0.31546   0.21026   0.00000  Uiso   1.00
O43    O     0.16667   0.18453   0.21026   0.00000  Uiso   1.00
O44    O     0.16666   0.31547   0.28974   0.00000  Uiso   1.00
O45    O     0.09058   0.25000   0.28045   0.00000  Uiso   1.00
O46    O     0.24275   0.25000   0.21956   0.00000  Uiso   1.00
O47    O     0.09058   0.24999   0.20097   0.00000  Uiso   1.00
O48    O     0.24275   0.25001   0.29904   0.00000  Uiso   1.00
Zn49   Zn    0.16667   0.25000   0.30307   0.00000  Uiso   1.00
Zn50   Zn    0.16667   0.24999   0.19693   0.00000  Uiso   1.00
O51    O     0.32018   0.21660   0.19534   0.00000  Uiso   1.00
H52    H     0.01253   0.20488   0.17627   0.00000  Uiso   1.00
O53    O     0.01314   0.28319   0.30488   0.00000  Uiso   1.00
H54    H     0.32081   0.29451   0.32425   0.00000  Uiso   1.00
O55    O     0.07367   0.22236   0.02062   0.00000  Uiso   1.00
H56    H     0.06941   0.23910   0.49053   0.00000  Uiso   1.00
O57    O     0.20072   0.32899   0.47181   0.00000  Uiso   1.00
H58    H     0.18127   0.33291   0.49886   0.00000  Uiso   1.00
O59    O     0.08496   0.20910   0.11442   0.00000  Uiso   1.00
H60    H     0.10047   0.19447   0.14378   0.00000  Uiso   1.00
O61    O     0.21585   0.31923   0.38147   0.00000  Uiso   1.00
H62    H     0.23206   0.30600   0.35577   0.00000  Uiso   1.00
O63    O     0.24824   0.29113   0.13339   0.00000  Uiso   1.00
H64    H     0.23444   0.30475   0.16031   0.00000  Uiso   1.00
O65    O     0.11733   0.18087   0.37090   0.00000  Uiso   1.00
H66    H     0.10260   0.19243   0.33969   0.00000  Uiso   1.00
C67    C     0.49990   0.16397   0.24994   0.00000  Uiso   1.00
C68    C     0.50006   0.33604   0.25003   0.00000  Uiso   1.00
C69    C     0.45382   0.23547   0.04705   0.00000  Uiso   1.00
C70    C     0.51782   0.28922   0.44932   0.00000  Uiso   1.00
C71    C     0.45810   0.23147   0.09671   0.00000  Uiso   1.00
C72    C     0.52237   0.28552   0.40079   0.00000  Uiso   1.00
C73    C     0.54050   0.26919   0.10639   0.00000  Uiso   1.00
C74    C     0.47686   0.21573   0.39590   0.00000  Uiso   1.00
C75    C     0.54082   0.26768   0.05722   0.00000  Uiso   1.00
C76    C     0.47856   0.21548   0.44533   0.00000  Uiso   1.00
C77    C     0.49687   0.25229   0.02621   0.00000  Uiso   1.00
C78    C     0.49738   0.25274   0.47309   0.00000  Uiso   1.00
C79    C     0.40059   0.24889   0.23786   0.00000  Uiso   1.00
C80    C     0.59940   0.25110   0.26216   0.00000  Uiso   1.00
C81    C     0.34578   0.24226   0.23264   0.00000  Uiso   1.00
C82    C     0.65421   0.25768   0.26744   0.00000  Uiso   1.00
C83    C     0.48097   0.04661   0.28624   0.00000  Uiso   1.00
C84    C     0.48220   0.45236   0.20791   0.00000  Uiso   1.00
C85    C     0.48122   0.09259   0.28648   0.00000  Uiso   1.00
C86    C     0.48244   0.40638   0.20799   0.00000  Uiso   1.00
C87    C     0.49983   0.11606   0.24978   0.00000  Uiso   1.00
C88    C     0.50002   0.38397   0.24995   0.00000  Uiso   1.00
C89    C     0.51837   0.09354   0.21291   0.00000  Uiso   1.00
C90    C     0.51768   0.40759   0.29174   0.00000  Uiso   1.00
C91    C     0.51866   0.04755   0.21296   0.00000  Uiso   1.00
C92    C     0.51797   0.45358   0.29153   0.00000  Uiso   1.00
C93    C     0.49988   0.02408   0.24960   0.00000  Uiso   1.00
C94    C     0.50006   0.47597   0.24966   0.00000  Uiso   1.00
H95    H     0.46566   0.02863   0.31434   0.00000  Uiso   1.00
H96    H     0.46763   0.46948   0.17552   0.00000  Uiso   1.00
H97    H     0.46626   0.10967   0.31489   0.00000  Uiso   1.00
H98    H     0.46828   0.38840   0.17552   0.00000  Uiso   1.00
H99    H     0.53326   0.11144   0.18455   0.00000  Uiso   1.00
H100   H     0.53187   0.39063   0.32428   0.00000  Uiso   1.00
H101   H     0.53398   0.03033   0.18481   0.00000  Uiso   1.00
H102   H     0.53255   0.47166   0.32382   0.00000  Uiso   1.00
H103   H     0.57492   0.28056   0.04324   0.00000  Uiso   1.00
H104   H     0.46289   0.18657   0.46170   0.00000  Uiso   1.00
N105   N     0.50000   0.24999   0.12624   0.00000  Uiso   1.00
N106   N     0.50000   0.25001   0.37377   0.00000  Uiso   1.00
O107   O     0.50000   0.18454   0.28974   0.00000  Uiso   1.00
O108   O     0.50000   0.31546   0.21026   0.00000  Uiso   1.00
O109   O     0.50000   0.18453   0.21026   0.00000  Uiso   1.00
O110   O     0.50000   0.31547   0.28974   0.00000  Uiso   1.00
O111   O     0.42392   0.25000   0.28045   0.00000  Uiso   1.00
O112   O     0.57608   0.25000   0.21956   0.00000  Uiso   1.00
O113   O     0.42392   0.24999   0.20097   0.00000  Uiso   1.00
O114   O     0.57608   0.25001   0.29904   0.00000  Uiso   1.00
Zn115  Zn    0.50000   0.25000   0.30307   0.00000  Uiso   1.00
Zn116  Zn    0.50000   0.24999   0.19693   0.00000  Uiso   1.00
O117   O     0.65351   0.21660   0.19534   0.00000  Uiso   1.00
H118   H     0.34587   0.20488   0.17627   0.00000  Uiso   1.00
O119   O     0.34647   0.28319   0.30488   0.00000  Uiso   1.00
H120   H     0.65414   0.29451   0.32425   0.00000  Uiso   1.00
O121   O     0.40700   0.22236   0.02062   0.00000  Uiso   1.00
H122   H     0.40274   0.23910   0.49053   0.00000  Uiso   1.00
O123   O     0.53405   0.32899   0.47181   0.00000  Uiso   1.00
H124   H     0.51460   0.33291   0.49886   0.00000  Uiso   1.00
O125   O     0.41830   0.20910   0.11442   0.00000  Uiso   1.00
H126   H     0.43380   0.19447   0.14378   0.00000  Uiso   1.00
O127   O     0.54918   0.31923   0.38147   0.00000  Uiso   1.00
H128   H     0.56539   0.30600   0.35577   0.00000  Uiso   1.00
O129   O     0.58157   0.29113   0.13339   0.00000  Uiso   1.00
H130   H     0.56778   0.30475   0.16031   0.00000  Uiso   1.00
O131   O     0.45067   0.18087   0.37090   0.00000  Uiso   1.00
H132   H     0.43593   0.19243   0.33969   0.00000  Uiso   1.00
C133   C     0.83323   0.16397   0.24994   0.00000  Uiso   1.00
C134   C     0.83339   0.33604   0.25003   0.00000  Uiso   1.00
C135   C     0.78716   0.23547   0.04705   0.00000  Uiso   1.00
C136   C     0.85115   0.28922   0.44932   0.00000  Uiso   1.00
C137   C     0.79143   0.23147   0.09671   0.00000  Uiso   1.00
C138   C     0.85570   0.28552   0.40079   0.00000  Uiso   1.00
C139   C     0.87383   0.26919   0.10639   0.00000  Uiso   1.00
C140   C     0.81019   0.21573   0.39590   0.00000  Uiso   1.00
C141   C     0.87415   0.26768   0.05722   0.00000  Uiso   1.00
C142   C     0.81190   0.21548   0.44533   0.00000  Uiso   1.00
C143   C     0.83020   0.25229   0.02621   0.00000  Uiso   1.00
C144   C     0.83071   0.25274   0.47309   0.00000  Uiso   1.00
C145   C     0.73392   0.24889   0.23786   0.00000  Uiso   1.00
C146   C     0.93273   0.25110   0.26216   0.00000  Uiso   1.00
C147   C     0.67911   0.24226   0.23264   0.00000  Uiso   1.00
C148   C     0.98755   0.25768   0.26744   0.00000  Uiso   1.00
C149   C     0.81431   0.04661   0.28624   0.00000  Uiso   1.00
C150   C     0.81554   0.45236   0.20791   0.00000  Uiso   1.00
C151   C     0.81455   0.09259   0.28648   0.00000  Uiso   1.00
C152   C     0.81577   0.40638   0.20799   0.00000  Uiso   1.00
C153   C     0.83316   0.11606   0.24978   0.00000  Uiso   1.00
C154   C     0.83335   0.38397   0.24995   0.00000  Uiso   1.00
C155   C     0.85170   0.09354   0.21291   0.00000  Uiso   1.00
C156   C     0.85101   0.40759   0.29174   0.00000  Uiso   1.00
C157   C     0.85199   0.04755   0.21296   0.00000  Uiso   1.00
C158   C     0.85130   0.45358   0.29153   0.00000  Uiso   1.00
C159   C     0.83322   0.02408   0.24960   0.00000  Uiso   1.00
C160   C     0.83340   0.47597   0.24966   0.00000  Uiso   1.00
H161   H     0.79899   0.02863   0.31434   0.00000  Uiso   1.00
H162   H     0.80096   0.46948   0.17552   0.00000  Uiso   1.00
H163   H     0.79960   0.10967   0.31489   0.00000  Uiso   1.00
H164   H     0.80161   0.38840   0.17552   0.00000  Uiso   1.00
H165   H     0.86660   0.11144   0.18455   0.00000  Uiso   1.00
H166   H     0.86520   0.39063   0.32428   0.00000  Uiso   1.00
H167   H     0.86732   0.03033   0.18481   0.00000  Uiso   1.00
H168   H     0.86588   0.47166   0.32382   0.00000  Uiso   1.00
H169   H     0.90825   0.28056   0.04324   0.00000  Uiso   1.00
H170   H     0.79623   0.18657   0.46170   0.00000  Uiso   1.00
N171   N     0.83333   0.24999   0.12624   0.00000  Uiso   1.00
N172   N     0.83333   0.25001   0.37377   0.00000  Uiso   1.00
O173   O     0.83334   0.18454   0.28974   0.00000  Uiso   1.00
O174   O     0.83333   0.31546   0.21026   0.00000  Uiso   1.00
O175   O     0.83334   0.18453   0.21026   0.00000  Uiso   1.00
O176   O     0.83333   0.31547   0.28974   0.00000  Uiso   1.00
O177   O     0.75725   0.25000   0.28045   0.00000  Uiso   1.00
O178   O     0.90942   0.25000   0.21956   0.00000  Uiso   1.00
O179   O     0.75725   0.24999   0.20097   0.00000  Uiso   1.00
O180   O     0.90942   0.25001   0.29904   0.00000  Uiso   1.00
Zn181  Zn    0.83333   0.25000   0.30307   0.00000  Uiso   1.00
Zn182  Zn    0.83333   0.24999   0.19693   0.00000  Uiso   1.00
O183   O     0.98684   0.21660   0.19534   0.00000  Uiso   1.00
H184   H     0.67920   0.20488   0.17627   0.00000  Uiso   1.00
O185   O     0.67980   0.28319   0.30488   0.00000  Uiso   1.00
H186   H     0.98747   0.29451   0.32425   0.00000  Uiso   1.00
O187   O     0.74033   0.22236   0.02062   0.00000  Uiso   1.00
H188   H     0.73608   0.23910   0.49053   0.00000  Uiso   1.00
O189   O     0.86738   0.32899   0.47181   0.00000  Uiso   1.00
H190   H     0.84794   0.33291   0.49886   0.00000  Uiso   1.00
O191   O     0.75163   0.20910   0.11442   0.00000  Uiso   1.00
H192   H     0.76714   0.19447   0.14378   0.00000  Uiso   1.00
O193   O     0.88251   0.31923   0.38147   0.00000  Uiso   1.00
H194   H     0.89873   0.30600   0.35577   0.00000  Uiso   1.00
O195   O     0.91491   0.29113   0.13339   0.00000  Uiso   1.00
H196   H     0.90111   0.30475   0.16031   0.00000  Uiso   1.00
O197   O     0.78400   0.18087   0.37090   0.00000  Uiso   1.00
H198   H     0.76927   0.19243   0.33969   0.00000  Uiso   1.00
C199   C     0.16657   0.66397   0.24994   0.00000  Uiso   1.00
C200   C     0.16673   0.83604   0.25003   0.00000  Uiso   1.00
C201   C     0.12049   0.73547   0.04705   0.00000  Uiso   1.00
C202   C     0.18449   0.78922   0.44932   0.00000  Uiso   1.00
C203   C     0.12476   0.73147   0.09671   0.00000  Uiso   1.00
C204   C     0.18904   0.78552   0.40079   0.00000  Uiso   1.00
C205   C     0.20717   0.76919   0.10639   0.00000  Uiso   1.00
C206   C     0.14352   0.71573   0.39590   0.00000  Uiso   1.00
C207   C     0.20748   0.76768   0.05722   0.00000  Uiso   1.00
C208   C     0.14523   0.71548   0.44533   0.00000  Uiso   1.00
C209   C     0.16353   0.75229   0.02621   0.00000  Uiso   1.00
C210   C     0.16405   0.75274   0.47309   0.00000  Uiso   1.00
C211   C     0.06726   0.74889   0.23786   0.00000  Uiso   1.00
C212   C     0.26607   0.75110   0.26216   0.00000  Uiso   1.00
C213   C     0.01245   0.74226   0.23264   0.00000  Uiso   1.00
C214   C     0.32088   0.75768   0.26744   0.00000  Uiso   1.00
C215   C     0.14764   0.54661   0.28624   0.00000  Uiso   1.00
C216   C     0.14887   0.95236   0.20791   0.00000  Uiso   1.00
C217   C     0.14788   0.59259   0.28648   0.00000  Uiso   1.00
C218   C     0.14910   0.90638   0.20799   0.00000  Uiso   1.00
C219   C     0.16650   0.61606   0.24978   0.00000  Uiso   1.00
C220   C     0.16669   0.88397   0.24995   0.00000  Uiso   1.00
C221   C     0.18503   0.59354   0.21291   0.00000  Uiso   1.00
C222   C     0.18434   0.90759   0.29174   0.00000  Uiso   1.00
C223   C     0.18532   0.54755   0.21296   0.00000  Uiso   1.00
C224   C     0.18463   0.95358   0.29153   0.00000  Uiso   1.00
C225   C     0.16655   0.52408   0.24960   0.00000  Uiso   1.00
C226   C     0.16673   0.97597   0.24966   0.00000  Uiso   1.00
H227   H     0.13232   0.52863   0.31434   0.00000  Uiso   1.00
H228   H     0.13429   0.96948   0.17552   0.00000  Uiso   1.00
H229   H     0.13293   0.60967   0.31489   0.00000  Uiso   1.00
H230   H     0.13494   0.88840   0.17552   0.00000  Uiso   1.00
H231   H     0.19993   0.61144   0.18455   0.00000  Uiso   1.00
H232   H     0.19853   0.89063   0.32428   0.00000  Uiso   1.00
H233   H     0.20065   0.53033   0.18481   0.00000  Uiso   1.00
H234   H     0.19922   0.97166   0.32382   0.00000  Uiso   1.00
H235   H     0.24158   0.78056   0.04324   0.00000  Uiso   1.00
H236   H     0.12956   0.68657   0.46170   0.00000  Uiso   1.00
N237   N     0.16667   0.74999   0.12624   0.00000  Uiso   1.00
N238   N     0.16667   0.75001   0.37377   0.00000  Uiso   1.00
O239   O     0.16667   0.68454   0.28974   0.00000  Uiso   1.00
O240   O     0.16666   0.81546   0.21026   0.00000  Uiso   1.00
O241   O     0.16667   0.68453   0.21026   0.00000  Uiso   1.00
O242   O     0.16666   0.81547   0.28974   0.00000  Uiso   1.00
O243   O     0.09058   0.75000   0.28045   0.00000  Uiso   1.00
O244   O     0.24275   0.75000   0.21956   0.00000  Uiso   1.00
O245   O     0.09058   0.74999   0.20097   0.00000  Uiso   1.00
O246   O     0.24275   0.75001   0.29904   0.00000  Uiso   1.00
Zn247  Zn    0.16667   0.75000   0.30307   0.00000  Uiso   1.00
Zn248  Zn    0.16667   0.74999   0.19693   0.00000  Uiso   1.00
O249   O     0.32018   0.71660   0.19534   0.00000  Uiso   1.00
H250   H     0.01253   0.70488   0.17627   0.00000  Uiso   1.00
O251   O     0.01314   0.78319   0.30488   0.00000  Uiso   1.00
H252   H     0.32081   0.79451   0.32425   0.00000  Uiso   1.00
O253   O     0.07367   0.72236   0.02062   0.00000  Uiso   1.00
H254   H     0.06941   0.73910   0.49053   0.00000  Uiso   1.00
O255   O     0.20072   0.82899   0.47181   0.00000  Uiso   1.00
H256   H     0.18127   0.83291   0.49886   0.00000  Uiso   1.00
O257   O     0.08496   0.70910   0.11442   0.00000  Uiso   1.00
H258   H     0.10047   0.69447   0.14378   0.00000  Uiso   1.00
O259   O     0.21585   0.81923   0.38147   0.00000  Uiso   1.00
H260   H     0.23206   0.80600   0.35577   0.00000  Uiso   1.00
O261   O     0.24824   0.79113   0.13339   0.00000  Uiso   1.00
H262   H     0.23444   0.80475   0.16031   0.00000  Uiso   1.00
O263   O     0.11733   0.68087   0.37090   0.00000  Uiso   1.00
H264   H     0.10260   0.69243   0.33969   0.00000  Uiso   1.00
C265   C     0.49990   0.66397   0.24994   0.00000  Uiso   1.00
C266   C     0.50006   0.83604   0.25003   0.00000  Uiso   1.00
C267   C     0.45382   0.73547   0.04705   0.00000  Uiso   1.00
C268   C     0.51782   0.78922   0.44932   0.00000  Uiso   1.00
C269   C     0.45810   0.73147   0.09671   0.00000  Uiso   1.00
C270   C     0.52237   0.78552   0.40079   0.00000  Uiso   1.00
C271   C     0.54050   0.76919   0.10639   0.00000  Uiso   1.00
C272   C     0.47686   0.71573   0.39590   0.00000  Uiso   1.00
C273   C     0.54082   0.76768   0.05722   0.00000  Uiso   1.00
C274   C     0.47856   0.71548   0.44533   0.00000  Uiso   1.00
C275   C     0.49687   0.75229   0.02621   0.00000  Uiso   1.00
C276   C     0.49738   0.75274   0.47309   0.00000  Uiso   1.00
C277   C     0.40059   0.74889   0.23786   0.00000  Uiso   1.00
C278   C     0.59940   0.75110   0.26216   0.00000  Uiso   1.00
C279   C     0.34578   0.74226   0.23264   0.00000  Uiso   1.00
C280   C     0.65421   0.75768   0.26744   0.00000  Uiso   1.00
C281   C     0.48097   0.54661   0.28624   0.00000  Uiso   1.00
C282   C     0.48220   0.95236   0.20791   0.00000  Uiso   1.00
C283   C     0.48122   0.59259   0.28648   0.00000  Uiso   1.00
C284   C     0.48244   0.90638   0.20799   0.00000  Uiso   1.00
C285   C     0.49983   0.61606   0.24978   0.00000  Uiso   1.00
C286   C     0.50002   0.88397   0.24995   0.00000  Uiso   1.00
C287   C     0.51837   0.59354   0.21291   0.00000  Uiso   1.00
C288   C     0.51768   0.90759   0.29174   0.00000  Uiso   1.00
C289   C     0.51866   0.54755   0.21296   0.00000  Uiso   1.00
C290   C     0.51797   0.95358   0.29153   0.00000  Uiso   1.00
C291   C     0.49988   0.52408   0.24960   0.00000  Uiso   1.00
C292   C     0.50006   0.97597   0.24966   0.00000  Uiso   1.00
H293   H     0.46566   0.52863   0.31434   0.00000  Uiso   1.00
H294   H     0.46763   0.96948   0.17552   0.00000  Uiso   1.00
H295   H     0.46626   0.60967   0.31489   0.00000  Uiso   1.00
H296   H     0.46828   0.88840   0.17552   0.00000  Uiso   1.00
H297   H     0.53326   0.61144   0.18455   0.00000  Uiso   1.00
H298   H     0.53187   0.89063   0.32428   0.00000  Uiso   1.00
H299   H     0.53398   0.53033   0.18481   0.00000  Uiso   1.00
H300   H     0.53255   0.97166   0.32382   0.00000  Uiso   1.00
H301   H     0.57492   0.78056   0.04324   0.00000  Uiso   1.00
H302   H     0.46289   0.68657   0.46170   0.00000  Uiso   1.00
N303   N     0.50000   0.74999   0.12624   0.00000  Uiso   1.00
N304   N     0.50000   0.75001   0.37377   0.00000  Uiso   1.00
O305   O     0.50000   0.68454   0.28974   0.00000  Uiso   1.00
O306   O     0.50000   0.81546   0.21026   0.00000  Uiso   1.00
O307   O     0.50000   0.68453   0.21026   0.00000  Uiso   1.00
O308   O     0.50000   0.81547   0.28974   0.00000  Uiso   1.00
O309   O     0.42392   0.75000   0.28045   0.00000  Uiso   1.00
O310   O     0.57608   0.75000   0.21956   0.00000  Uiso   1.00
O311   O     0.42392   0.74999   0.20097   0.00000  Uiso   1.00
O312   O     0.57608   0.75001   0.29904   0.00000  Uiso   1.00
Zn313  Zn    0.50000   0.75000   0.30307   0.00000  Uiso   1.00
Zn314  Zn    0.50000   0.74999   0.19693   0.00000  Uiso   1.00
O315   O     0.65351   0.71660   0.19534   0.00000  Uiso   1.00
H316   H     0.34587   0.70488   0.17627   0.00000  Uiso   1.00
O317   O     0.34647   0.78319   0.30488   0.00000  Uiso   1.00
H318   H     0.65414   0.79451   0.32425   0.00000  Uiso   1.00
O319   O     0.40700   0.72236   0.02062   0.00000  Uiso   1.00
H320   H     0.40274   0.73910   0.49053   0.00000  Uiso   1.00
O321   O     0.53405   0.82899   0.47181   0.00000  Uiso   1.00
H322   H     0.51460   0.83291   0.49886   0.00000  Uiso   1.00
O323   O     0.41830   0.70910   0.11442   0.00000  Uiso   1.00
H324   H     0.43380   0.69447   0.14378   0.00000  Uiso   1.00
O325   O     0.54918   0.81923   0.38147   0.00000  Uiso   1.00
H326   H     0.56539   0.80600   0.35577   0.00000  Uiso   1.00
O327   O     0.58157   0.79113   0.13339   0.00000  Uiso   1.00
H328   H     0.56778   0.80475   0.16031   0.00000  Uiso   1.00
O329   O     0.45067   0.68087   0.37090   0.00000  Uiso   1.00
H330   H     0.43593   0.69243   0.33969   0.00000  Uiso   1.00
C331   C     0.83323   0.66397   0.24994   0.00000  Uiso   1.00
C332   C     0.83339   0.83604   0.25003   0.00000  Uiso   1.00
C333   C     0.78716   0.73547   0.04705   0.00000  Uiso   1.00
C334   C     0.85115   0.78922   0.44932   0.00000  Uiso   1.00
C335   C     0.79143   0.73147   0.09671   0.00000  Uiso   1.00
C336   C     0.85570   0.78552   0.40079   0.00000  Uiso   1.00
C337   C     0.87383   0.76919   0.10639   0.00000  Uiso   1.00
C338   C     0.81019   0.71573   0.39590   0.00000  Uiso   1.00
C339   C     0.87415   0.76768   0.05722   0.00000  Uiso   1.00
C340   C     0.81190   0.71548   0.44533   0.00000  Uiso   1.00
C341   C     0.83020   0.75229   0.02621   0.00000  Uiso   1.00
C342   C     0.83071   0.75274   0.47309   0.00000  Uiso   1.00
C343   C     0.73392   0.74889   0.23786   0.00000  Uiso   1.00
C344   C     0.93273   0.75110   0.26216   0.00000  Uiso   1.00
C345   C     0.67911   0.74226   0.23264   0.00000  Uiso   1.00
C346   C     0.98755   0.75768   0.26744   0.00000  Uiso   1.00
C347   C     0.81431   0.54661   0.28624   0.00000  Uiso   1.00
C348   C     0.81554   0.95236   0.20791   0.00000  Uiso   1.00
C349   C     0.81455   0.59259   0.28648   0.00000  Uiso   1.00
C350   C     0.81577   0.90638   0.20799   0.00000  Uiso   1.00
C351   C     0.83316   0.61606   0.24978   0.00000  Uiso   1.00
C352   C     0.83335   0.88397   0.24995   0.00000  Uiso   1.00
C353   C     0.85170   0.59354   0.21291   0.00000  Uiso   1.00
C354   C     0.85101   0.90759   0.29174   0.00000  Uiso   1.00
C355   C     0.85199   0.54755   0.21296   0.00000  Uiso   1.00
C356   C     0.85130   0.95358   0.29153   0.00000  Uiso   1.00
C357   C     0.83322   0.52408   0.24960   0.00000  Uiso   1.00
C358   C     0.83340   0.97597   0.24966   0.00000  Uiso   1.00
H359   H     0.79899   0.52863   0.31434   0.00000  Uiso   1.00
H360   H     0.80096   0.96948   0.17552   0.00000  Uiso   1.00
H361   H     0.79960   0.60967   0.31489   0.00000  Uiso   1.00
H362   H     0.80161   0.88840   0.17552   0.00000  Uiso   1.00
H363   H     0.86660   0.61144   0.18455   0.00000  Uiso   1.00
H364   H     0.86520   0.89063   0.32428   0.00000  Uiso   1.00
H365   H     0.86732   0.53033   0.18481   0.00000  Uiso   1.00
H366   H     0.86588   0.97166   0.32382   0.00000  Uiso   1.00
H367   H     0.90825   0.78056   0.04324   0.00000  Uiso   1.00
H368   H     0.79623   0.68657   0.46170   0.00000  Uiso   1.00
N369   N     0.83333   0.74999   0.12624   0.00000  Uiso   1.00
N370   N     0.83333   0.75001   0.37377   0.00000  Uiso   1.00
O371   O     0.83334   0.68454   0.28974   0.00000  Uiso   1.00
O372   O     0.83333   0.81546   0.21026   0.00000  Uiso   1.00
O373   O     0.83334   0.68453   0.21026   0.00000  Uiso   1.00
O374   O     0.83333   0.81547   0.28974   0.00000  Uiso   1.00
O375   O     0.75725   0.75000   0.28045   0.00000  Uiso   1.00
O376   O     0.90942   0.75000   0.21956   0.00000  Uiso   1.00
O377   O     0.75725   0.74999   0.20097   0.00000  Uiso   1.00
O378   O     0.90942   0.75001   0.29904   0.00000  Uiso   1.00
Zn379  Zn    0.83333   0.75000   0.30307   0.00000  Uiso   1.00
Zn380  Zn    0.83333   0.74999   0.19693   0.00000  Uiso   1.00
O381   O     0.98684   0.71660   0.19534   0.00000  Uiso   1.00
H382   H     0.67920   0.70488   0.17627   0.00000  Uiso   1.00
O383   O     0.67980   0.78319   0.30488   0.00000  Uiso   1.00
H384   H     0.98747   0.79451   0.32425   0.00000  Uiso   1.00
O385   O     0.74033   0.72236   0.02062   0.00000  Uiso   1.00
H386   H     0.73608   0.73910   0.49053   0.00000  Uiso   1.00
O387   O     0.86738   0.82899   0.47181   0.00000  Uiso   1.00
H388   H     0.84794   0.83291   0.49886   0.00000  Uiso   1.00
O389   O     0.75163   0.70910   0.11442   0.00000  Uiso   1.00
H390   H     0.76714   0.69447   0.14378   0.00000  Uiso   1.00
O391   O     0.88251   0.81923   0.38147   0.00000  Uiso   1.00
H392   H     0.89873   0.80600   0.35577   0.00000  Uiso   1.00
O393   O     0.91491   0.79113   0.13339   0.00000  Uiso   1.00
H394   H     0.90111   0.80475   0.16031   0.00000  Uiso   1.00
O395   O     0.78400   0.68087   0.37090   0.00000  Uiso   1.00
H396   H     0.76927   0.69243   0.33969   0.00000  Uiso   1.00
C397   C     0.16657   0.16397   0.74994   0.00000  Uiso   1.00
C398   C     0.16673   0.33604   0.75003   0.00000  Uiso   1.00
C399   C     0.12049   0.23547   0.54705   0.00000  Uiso   1.00
C400   C     0.18449   0.28922   0.94932   0.00000  Uiso   1.00
C401   C     0.12476   0.23147   0.59671   0.00000  Uiso   1.00
C402   C     0.18904   0.28552   0.90079   0.00000  Uiso   1.00
C403   C     0.20717   0.26919   0.60639   0.00000  Uiso   1.00
C404   C     0.14352   0.21573   0.89590   0.00000  Uiso   1.00
C405   C     0.20748   0.26768   0.55722   0.00000  Uiso   1.00
C406   C     0.14523   0.21548   0.94533   0.00000  Uiso   1.00
C407   C     0.16353   0.25229   0.52621   0.00000  Uiso   1.00
C408   C     0.16405   0.25274   0.97309   0.00000  Uiso   1.00
C409   C     0.06726   0.24889   0.73786   0.00000  Uiso   1.00
C410   C     0.26607   0.25110   0.76216   0.00000  Uiso   1.00
C411   C     0.01245   0.24226   0.73264   0.00000  Uiso   1.00
C412   C     0.32088   0.25768   0.76744   0.00000  Uiso   1.00
C413   C     0.14764   0.04661   0.78624   0.00000  Uiso   1.00
C414   C     0.14887   0.45236   0.70791   0.00000  Uiso   1.00
C415   C     0.14788   0.09259   0.78648   0.00000  Uiso   1.00
C416   C     0.14910   0.40638   0.70799   0.00000  Uiso   1.00
C417   C     0.16650   0.11606   0.74978   0.00000  Uiso   1.00
C418   C     0.16669   0.38397   0.74995   0.00000  Uiso   1.00
C419   C     0.18503   0.09354   0.71291   0.00000  Uiso   1.00
C420   C     0.18434   0.40759   0.79174   0.00000  Uiso   1.00
C421   C     0.18532   0.04755   0.71296   0.00000  Uiso   1.00
C422   C     0.18463   0.45358   0.79153   0.00000  Uiso   1.00
C423   C     0.16655   0.02408   0.74960   0.00000  Uiso   1.00
C424   C     0.16673   0.47597   0.74966   0.00000  Uiso   1.00
H425   H     0.13232   0.02863   0.81434   0.00000  Uiso   1.00
H426   H     0.13429   0.46948   0.67552   0.00000  Uiso   1.00
H427   H     0.13293   0.10967   0.81489   0.00000  Uiso   1.00
H428   H     0.13494   0.38840   0.67552   0.00000  Uiso   1.00
H429   H     0.19993   0.11144   0.68455   0.00000  Uiso   1.00
H430   H     0.19853   0.39063   0.82428   0.00000  Uiso   1.00
H431   H     0.20065   0.03033   0.68481   0.00000  Uiso   1.00
H432   H     0.19922   0.47166   0.82382   0.00000  Uiso   1.00
H433   H     0.24158   0.28056   0.54324   0.00000  Uiso   1.00
H434   H     0.12956   0.18657   0.96170   0.00000  Uiso   1.00
N435   N     0.16667   0.24999   0.62624   0.00000  Uiso   1.00
N436   N     0.16667   0.25001   0.87377   0.00000  Uiso   1.00
O437   O     0.16667   0.18454   0.78974   0.00000  Uiso   1.00
O438   O     0.16666   0.31546   0.71026   0.00000  Uiso   1.00
O439   O     0.16667   0.18453   0.71026   0.00000  Uiso   1.00
O440   O     0.16666   0.31547   0.78974   0.00000  Uiso   1.00
O441   O     0.09058   0.25000   0.78045   0.00000  Uiso   1.00
O442   O     0.24275   0.25000   0.71956   0.00000  Uiso   1.00
O443   O     0.09058   0.24999   0.70097   0.00000  Uiso   1.00
O444   O     0.24275   0.25001   0.79904   0.00000  Uiso   1.00
Zn445  Zn    0.16667   0.25000   0.80307   0.00000  Uiso   1.00
Zn446  Zn    0.16667   0.24999   0.69693   0.00000  Uiso   1.00
O447   O     0.32018   0.21660   0.69534   0.00000  Uiso   1.00
H448   H     0.01253   0.20488   0.67627   0.00000  Uiso   1.00
O449   O     0.01314   0.28319   0.80488   0.00000  Uiso   1.00
H450   H     0.32081   0.29451   0.82425   0.00000  Uiso   1.00
O451   O     0.07367   0.22236   0.52062   0.00000  Uiso   1.00
H452   H     0.06941   0.23910   0.99053   0.00000  Uiso   1.00
O453   O     0.20072   0.32899   0.97181   0.00000  Uiso   1.00
H454   H     0.18127   0.33291   0.99886   0.00000  Uiso   1.00
O455   O     0.08496   0.20910   0.61442   0.00000  Uiso   1.00
H456   H     0.10047   0.19447   0.64378   0.00000  Uiso   1.00
O457   O     0.21585   0.31923   0.88147   0.00000  Uiso   1.00
H458   H     0.23206   0.30600   0.85577   0.00000  Uiso   1.00
O459   O     0.24824   0.29113   0.63339   0.00000  Uiso   1.00
H460   H     0.23444   0.30475   0.66031   0.00000  Uiso   1.00
O461   O     0.11733   0.18087   0.87090   0.00000  Uiso   1.00
H462   H     0.10260   0.19243   0.83969   0.00000  Uiso   1.00
C463   C     0.49990   0.16397   0.74994   0.00000  Uiso   1.00
C464   C     0.50006   0.33604   0.75003   0.00000  Uiso   1.00
C465   C     0.45382   0.23547   0.54705   0.00000  Uiso   1.00
C466   C     0.51782   0.28922   0.94932   0.00000  Uiso   1.00
C467   C     0.45810   0.23147   0.59671   0.00000  Uiso   1.00
C468   C     0.52237   0.28552   0.90079   0.00000  Uiso   1.00
C469   C     0.54050   0.26919   0.60639   0.00000  Uiso   1.00
C470   C     0.47686   0.21573   0.89590   0.00000  Uiso   1.00
C471   C     0.54082   0.26768   0.55722   0.00000  Uiso   1.00
C472   C     0.47856   0.21548   0.94533   0.00000  Uiso   1.00
C473   C     0.49687   0.25229   0.52621   0.00000  Uiso   1.00
C474   C     0.49738   0.25274   0.97309   0.00000  Uiso   1.00
C475   C     0.40059   0.24889   0.73786   0.00000  Uiso   1.00
C476   C     0.59940   0.25110   0.76216   0.00000  Uiso   1.00
C477   C     0.34578   0.24226   0.73264   0.00000  Uiso   1.00
C478   C     0.65421   0.25768   0.76744   0.00000  Uiso   1.00
C479   C     0.48097   0.04661   0.78624   0.00000  Uiso   1.00
C480   C     0.48220   0.45236   0.70791   0.00000  Uiso   1.00
C481   C     0.48122   0.09259   0.78648   0.00000  Uiso   1.00
C482   C     0.48244   0.40638   0.70799   0.00000  Uiso   1.00
C483   C     0.49983   0.11606   0.74978   0.00000  Uiso   1.00
C484   C     0.50002   0.38397   0.74995   0.00000  Uiso   1.00
C485   C     0.51837   0.09354   0.71291   0.00000  Uiso   1.00
C486   C     0.51768   0.40759   0.79174   0.00000  Uiso   1.00
C487   C     0.51866   0.04755   0.71296   0.00000  Uiso   1.00
C488   C     0.51797   0.45358   0.79153   0.00000  Uiso   1.00
C489   C     0.49988   0.02408   0.74960   0.00000  Uiso   1.00
C490   C     0.50006   0.47597   0.74966   0.00000  Uiso   1.00
H491   H     0.46566   0.02863   0.81434   0.00000  Uiso   1.00
H492   H     0.46763   0.46948   0.67552   0.00000  Uiso   1.00
H493   H     0.46626   0.10967   0.81489   0.00000  Uiso   1.00
H494   H     0.46828   0.38840   0.67552   0.00000  Uiso   1.00
H495   H     0.53326   0.11144   0.68455   0.00000  Uiso   1.00
H496   H     0.53187   0.39063   0.82428   0.00000  Uiso   1.00
H497   H     0.53398   0.03033   0.68481   0.00000  Uiso   1.00
H498   H     0.53255   0.47166   0.82382   0.00000  Uiso   1.00
H499   H     0.57492   0.28056   0.54324   0.00000  Uiso   1.00
H500   H     0.46289   0.18657   0.96170   0.00000  Uiso   1.00
N501   N     0.50000   0.24999   0.62624   0.00000  Uiso   1.00
N502   N     0.50000   0.25001   0.87377   0.00000  Uiso   1.00
O503   O     0.50000   0.18454   0.78974   0.00000  Uiso   1.00
O504   O     0.50000   0.31546   0.71026   0.00000  Uiso   1.00
O505   O     0.50000   0.18453   0.71026   0.00000  Uiso   1.00
O506   O     0.50000   0.31547   0.78974   0.00000  Uiso   1.00
O507   O     0.42392   0.25000   0.78045   0.00000  Uiso   1.00
O508   O     0.57608   0.25000   0.71956   0.00000  Uiso   1.00
O509   O     0.42392   0.24999   0.70097   0.00000  Uiso   1.00
O510   O     0.57608   0.25001   0.79904   0.00000  Uiso   1.00
Zn511  Zn    0.50000   0.25000   0.80307   0.00000  Uiso   1.00
Zn512  Zn    0.50000   0.24999   0.69693   0.00000  Uiso   1.00
O513   O     0.65351   0.21660   0.69534   0.00000  Uiso   1.00
H514   H     0.34587   0.20488   0.67627   0.00000  Uiso   1.00
O515   O     0.34647   0.28319   0.80488   0.00000  Uiso   1.00
H516   H     0.65414   0.29451   0.82425   0.00000  Uiso   1.00
O517   O     0.40700   0.22236   0.52062   0.00000  Uiso   1.00
H518   H     0.40274   0.23910   0.99053   0.00000  Uiso   1.00
O519   O     0.53405   0.32899   0.97181   0.00000  Uiso   1.00
H520   H     0.51460   0.33291   0.99886   0.00000  Uiso   1.00
O521   O     0.41830   0.20910   0.61442   0.00000  Uiso   1.00
H522   H     0.43380   0.19447   0.64378   0.00000  Uiso   1.00
O523   O     0.54918   0.31923   0.88147   0.00000  Uiso   1.00
H524   H     0.56539   0.30600   0.85577   0.00000  Uiso   1.00
O525   O     0.58157   0.29113   0.63339   0.00000  Uiso   1.00
H526   H     0.56778   0.30475   0.66031   0.00000  Uiso   1.00
O527   O     0.45067   0.18087   0.87090   0.00000  Uiso   1.00
H528   H     0.43593   0.19243   0.83969   0.00000  Uiso   1.00
C529   C     0.83323   0.16397   0.74994   0.00000  Uiso   1.00
C530   C     0.83339   0.33604   0.75003   0.00000  Uiso   1.00
C531   C     0.78716   0.23547   0.54705   0.00000  Uiso   1.00
C532   C     0.85115   0.28922   0.94932   0.00000  Uiso   1.00
C533   C     0.79143   0.23147   0.59671   0.00000  Uiso   1.00
C534   C     0.85570   0.28552   0.90079   0.00000  Uiso   1.00
C535   C     0.87383   0.26919   0.60639   0.00000  Uiso   1.00
C536   C     0.81019   0.21573   0.89590   0.00000  Uiso   1.00
C537   C     0.87415   0.26768   0.55722   0.00000  Uiso   1.00
C538   C     0.81190   0.21548   0.94533   0.00000  Uiso   1.00
C539   C     0.83020   0.25229   0.52621   0.00000  Uiso   1.00
C540   C     0.83071   0.25274   0.97309   0.00000  Uiso   1.00
C541   C     0.73392   0.24889   0.73786   0.00000  Uiso   1.00
C542   C     0.93273   0.25110   0.76216   0.00000  Uiso   1.00
C543   C     0.67911   0.24226   0.73264   0.00000  Uiso   1.00
C544   C     0.98755   0.25768   0.76744   0.00000  Uiso   1.00
C545   C     0.81431   0.04661   0.78624   0.00000  Uiso   1.00
C546   C     0.81554   0.45236   0.70791   0.00000  Uiso   1.00
C547   C     0.81455   0.09259   0.78648   0.00000  Uiso   1.00
C548   C     0.81577   0.40638   0.70799   0.00000  Uiso   1.00
C549   C     0.83316   0.11606   0.74978   0.00000  Uiso   1.00
C550   C     0.83335   0.38397   0.74995   0.00000  Uiso   1.00
C551   C     0.85170   0.09354   0.71291   0.00000  Uiso   1.00
C552   C     0.85101   0.40759   0.79174   0.00000  Uiso   1.00
C553   C     0.85199   0.04755   0.71296   0.00000  Uiso   1.00
C554   C     0.85130   0.45358   0.79153   0.00000  Uiso   1.00
C555   C     0.83322   0.02408   0.74960   0.00000  Uiso   1.00
C556   C     0.83340   0.47597   0.74966   0.00000  Uiso   1.00
H557   H     0.79899   0.02863   0.81434   0.00000  Uiso   1.00
H558   H     0.80096   0.46948   0.67552   0.00000  Uiso   1.00
H559   H     0.79960   0.10967   0.81489   0.00000  Uiso   1.00
H560   H     0.80161   0.38840   0.67552   0.00000  Uiso   1.00
H561   H     0.86660   0.11144   0.68455   0.00000  Uiso   1.00
H562   H     0.86520   0.39063   0.82428   0.00000  Uiso   1.00
H563   H     0.86732   0.03033   0.68481   0.00000  Uiso   1.00
H564   H     0.86588   0.47166   0.82382   0.00000  Uiso   1.00
H565   H     0.90825   0.28056   0.54324   0.00000  Uiso   1.00
H566   H     0.79623   0.18657   0.96170   0.00000  Uiso   1.00
N567   N     0.83333   0.24999   0.62624   0.00000  Uiso   1.00
N568   N     0.83333   0.25001   0.87377   0.00000  Uiso   1.00
O569   O     0.83334   0.18454   0.78974   0.00000  Uiso   1.00
O570   O     0.83333   0.31546   0.71026   0.00000  Uiso   1.00
O571   O     0.83334   0.18453   0.71026   0.00000  Uiso   1.00
O572   O     0.83333   0.31547   0.78974   0.00000  Uiso   1.00
O573   O     0.75725   0.25000   0.78045   0.00000  Uiso   1.00
O574   O     0.90942   0.25000   0.71956   0.00000  Uiso   1.00
O575   O     0.75725   0.24999   0.70097   0.00000  Uiso   1.00
O576   O     0.90942   0.25001   0.79904   0.00000  Uiso   1.00
Zn577  Zn    0.83333   0.25000   0.80307   0.00000  Uiso   1.00
Zn578  Zn    0.83333   0.24999   0.69693   0.00000  Uiso   1.00
O579   O     0.98684   0.21660   0.69534   0.00000  Uiso   1.00
H580   H     0.67920   0.20488   0.67627   0.00000  Uiso   1.00
O581   O     0.67980   0.28319   0.80488   0.00000  Uiso   1.00
H582   H     0.98747   0.29451   0.82425   0.00000  Uiso   1.00
O583   O     0.74033   0.22236   0.52062   0.00000  Uiso   1.00
H584   H     0.73608   0.23910   0.99053   0.00000  Uiso   1.00
O585   O     0.86738   0.32899   0.97181   0.00000  Uiso   1.00
H586   H     0.84794   0.33291   0.99886   0.00000  Uiso   1.00
O587   O     0.75163   0.20910   0.61442   0.00000  Uiso   1.00
H588   H     0.76714   0.19447   0.64378   0.00000  Uiso   1.00
O589   O     0.88251   0.31923   0.88147   0.00000  Uiso   1.00
H590   H     0.89873   0.30600   0.85577   0.00000  Uiso   1.00
O591   O     0.91491   0.29113   0.63339   0.00000  Uiso   1.00
H592   H     0.90111   0.30475   0.66031   0.00000  Uiso   1.00
O593   O     0.78400   0.18087   0.87090   0.00000  Uiso   1.00
H594   H     0.76927   0.19243   0.83969   0.00000  Uiso   1.00
C595   C     0.16657   0.66397   0.74994   0.00000  Uiso   1.00
C596   C     0.16673   0.83604   0.75003   0.00000  Uiso   1.00
C597   C     0.12049   0.73547   0.54705   0.00000  Uiso   1.00
C598   C     0.18449   0.78922   0.94932   0.00000  Uiso   1.00
C599   C     0.12476   0.73147   0.59671   0.00000  Uiso   1.00
C600   C     0.18904   0.78552   0.90079   0.00000  Uiso   1.00
C601   C     0.20717   0.76919   0.60639   0.00000  Uiso   1.00
C602   C     0.14352   0.71573   0.89590   0.00000  Uiso   1.00
C603   C     0.20748   0.76768   0.55722   0.00000  Uiso   1.00
C604   C     0.14523   0.71548   0.94533   0.00000  Uiso   1.00
C605   C     0.16353   0.75229   0.52621   0.00000  Uiso   1.00
C606   C     0.16405   0.75274   0.97309   0.00000  Uiso   1.00
C607   C     0.06726   0.74889   0.73786   0.00000  Uiso   1.00
C608   C     0.26607   0.75110   0.76216   0.00000  Uiso   1.00
C609   C     0.01245   0.74226   0.73264   0.00000  Uiso   1.00
C610   C     0.32088   0.75768   0.76744   0.00000  Uiso   1.00
C611   C     0.14764   0.54661   0.78624   0.00000  Uiso   1.00
C612   C     0.14887   0.95236   0.70791   0.00000  Uiso   1.00
C613   C     0.14788   0.59259   0.78648   0.00000  Uiso   1.00
C614   C     0.14910   0.90638   0.70799   0.00000  Uiso   1.00
C615   C     0.16650   0.61606   0.74978   0.00000  Uiso   1.00
C616   C     0.16669   0.88397   0.74995   0.00000  Uiso   1.00
C617   C     0.18503   0.59354   0.71291   0.00000  Uiso   1.00
C618   C     0.18434   0.90759   0.79174   0.00000  Uiso   1.00
C619   C     0.18532   0.54755   0.71296   0.00000  Uiso   1.00
C620   C     0.18463   0.95358   0.79153   0.00000  Uiso   1.00
C621   C     0.16655   0.52408   0.74960   0.00000  Uiso   1.00
C622   C     0.16673   0.97597   0.74966   0.00000  Uiso   1.00
H623   H     0.13232   0.52863   0.81434   0.00000  Uiso   1.00
H624   H     0.13429   0.96948   0.67552   0.00000  Uiso   1.00
H625   H     0.13293   0.60967   0.81489   0.00000  Uiso   1.00
H626   H     0.13494   0.88840   0.67552   0.00000  Uiso   1.00
H627   H     0.19993   0.61144   0.68455   0.00000  Uiso   1.00
H628   H     0.19853   0.89063   0.82428   0.00000  Uiso   1.00
H629   H     0.20065   0.53033   0.68481   0.00000  Uiso   1.00
H630   H     0.19922   0.97166   0.82382   0.00000  Uiso   1.00
H631   H     0.24158   0.78056   0.54324   0.00000  Uiso   1.00
H632   H     0.12956   0.68657   0.96170   0.00000  Uiso   1.00
N633   N     0.16667   0.74999   0.62624   0.00000  Uiso   1.00
N634   N     0.16667   0.75001   0.87377   0.00000  Uiso   1.00
O635   O     0.16667   0.68454   0.78974   0.00000  Uiso   1.00
O636   O     0.16666   0.81546   0.71026   0.00000  Uiso   1.00
O637   O     0.16667   0.68453   0.71026   0.00000  Uiso   1.00
O638   O     0.16666   0.81547   0.78974   0.00000  Uiso   1.00
O639   O     0.09058   0.75000   0.78045   0.00000  Uiso   1.00
O640   O     0.24275   0.75000   0.71956   0.00000  Uiso   1.00
O641   O     0.09058   0.74999   0.70097   0.00000  Uiso   1.00
O642   O     0.24275   0.75001   0.79904   0.00000  Uiso   1.00
Zn643  Zn    0.16667   0.75000   0.80307   0.00000  Uiso   1.00
Zn644  Zn    0.16667   0.74999   0.69693   0.00000  Uiso   1.00
O645   O     0.32018   0.71660   0.69534   0.00000  Uiso   1.00
H646   H     0.01253   0.70488   0.67627   0.00000  Uiso   1.00
O647   O     0.01314   0.78319   0.80488   0.00000  Uiso   1.00
H648   H     0.32081   0.79451   0.82425   0.00000  Uiso   1.00
O649   O     0.07367   0.72236   0.52062   0.00000  Uiso   1.00
H650   H     0.06941   0.73910   0.99053   0.00000  Uiso   1.00
O651   O     0.20072   0.82899   0.97181   0.00000  Uiso   1.00
H652   H     0.18127   0.83291   0.99886   0.00000  Uiso   1.00
O653   O     0.08496   0.70910   0.61442   0.00000  Uiso   1.00
H654   H     0.10047   0.69447   0.64378   0.00000  Uiso   1.00
O655   O     0.21585   0.81923   0.88147   0.00000  Uiso   1.00
H656   H     0.23206   0.80600   0.85577   0.00000  Uiso   1.00
O657   O     0.24824   0.79113   0.63339   0.00000  Uiso   1.00
H658   H     0.23444   0.80475   0.66031   0.00000  Uiso   1.00
O659   O     0.11733   0.68087   0.87090   0.00000  Uiso   1.00
H660   H     0.10260   0.69243   0.83969   0.00000  Uiso   1.00
C661   C     0.49990   0.66397   0.74994   0.00000  Uiso   1.00
C662   C     0.50006   0.83604   0.75003   0.00000  Uiso   1.00
C663   C     0.45382   0.73547   0.54705   0.00000  Uiso   1.00
C664   C     0.51782   0.78922   0.94932   0.00000  Uiso   1.00
C665   C     0.45810   0.73147   0.59671   0.00000  Uiso   1.00
C666   C     0.52237   0.78552   0.90079   0.00000  Uiso   1.00
C667   C     0.54050   0.76919   0.60639   0.00000  Uiso   1.00
C668   C     0.47686   0.71573   0.89590   0.00000  Uiso   1.00
C669   C     0.54082   0.76768   0.55722   0.00000  Uiso   1.00
C670   C     0.47856   0.71548   0.94533   0.00000  Uiso   1.00
C671   C     0.49687   0.75229   0.52621   0.00000  Uiso   1.00
C672   C     0.49738   0.75274   0.97309   0.00000  Uiso   1.00
C673   C     0.40059   0.74889   0.73786   0.00000  Uiso   1.00
C674   C     0.59940   0.75110   0.76216   0.00000  Uiso   1.00
C675   C     0.34578   0.74226   0.73264   0.00000  Uiso   1.00
C676   C     0.65421   0.75768   0.76744   0.00000  Uiso   1.00
C677   C     0.48097   0.54661   0.78624   0.00000  Uiso   1.00
C678   C     0.48220   0.95236   0.70791   0.00000  Uiso   1.00
C679   C     0.48122   0.59259   0.78648   0.00000  Uiso   1.00
C680   C     0.48244   0.90638   0.70799   0.00000  Uiso   1.00
C681   C     0.49983   0.61606   0.74978   0.00000  Uiso   1.00
C682   C     0.50002   0.88397   0.74995   0.00000  Uiso   1.00
C683   C     0.51837   0.59354   0.71291   0.00000  Uiso   1.00
C684   C     0.51768   0.90759   0.79174   0.00000  Uiso   1.00
C685   C     0.51866   0.54755   0.71296   0.00000  Uiso   1.00
C686   C     0.51797   0.95358   0.79153   0.00000  Uiso   1.00
C687   C     0.49988   0.52408   0.74960   0.00000  Uiso   1.00
C688   C     0.50006   0.97597   0.74966   0.00000  Uiso   1.00
H689   H     0.46566   0.52863   0.81434   0.00000  Uiso   1.00
H690   H     0.46763   0.96948   0.67552   0.00000  Uiso   1.00
H691   H     0.46626   0.60967   0.81489   0.00000  Uiso   1.00
H692   H     0.46828   0.88840   0.67552   0.00000  Uiso   1.00
H693   H     0.53326   0.61144   0.68455   0.00000  Uiso   1.00
H694   H     0.53187   0.89063   0.82428   0.00000  Uiso   1.00
H695   H     0.53398   0.53033   0.68481   0.00000  Uiso   1.00
H696   H     0.53255   0.97166   0.82382   0.00000  Uiso   1.00
H697   H     0.57492   0.78056   0.54324   0.00000  Uiso   1.00
H698   H     0.46289   0.68657   0.96170   0.00000  Uiso   1.00
N699   N     0.50000   0.74999   0.62624   0.00000  Uiso   1.00
N700   N     0.50000   0.75001   0.87377   0.00000  Uiso   1.00
O701   O     0.50000   0.68454   0.78974   0.00000  Uiso   1.00
O702   O     0.50000   0.81546   0.71026   0.00000  Uiso   1.00
O703   O     0.50000   0.68453   0.71026   0.00000  Uiso   1.00
O704   O     0.50000   0.81547   0.78974   0.00000  Uiso   1.00
O705   O     0.42392   0.75000   0.78045   0.00000  Uiso   1.00
O706   O     0.57608   0.75000   0.71956   0.00000  Uiso   1.00
O707   O     0.42392   0.74999   0.70097   0.00000  Uiso   1.00
O708   O     0.57608   0.75001   0.79904   0.00000  Uiso   1.00
Zn709  Zn    0.50000   0.75000   0.80307   0.00000  Uiso   1.00
Zn710  Zn    0.50000   0.74999   0.69693   0.00000  Uiso   1.00
O711   O     0.65351   0.71660   0.69534   0.00000  Uiso   1.00
H712   H     0.34587   0.70488   0.67627   0.00000  Uiso   1.00
O713   O     0.34647   0.78319   0.80488   0.00000  Uiso   1.00
H714   H     0.65414   0.79451   0.82425   0.00000  Uiso   1.00
O715   O     0.40700   0.72236   0.52062   0.00000  Uiso   1.00
H716   H     0.40274   0.73910   0.99053   0.00000  Uiso   1.00
O717   O     0.53405   0.82899   0.97181   0.00000  Uiso   1.00
H718   H     0.51460   0.83291   0.99886   0.00000  Uiso   1.00
O719   O     0.41830   0.70910   0.61442   0.00000  Uiso   1.00
H720   H     0.43380   0.69447   0.64378   0.00000  Uiso   1.00
O721   O     0.54918   0.81923   0.88147   0.00000  Uiso   1.00
H722   H     0.56539   0.80600   0.85577   0.00000  Uiso   1.00
O723   O     0.58157   0.79113   0.63339   0.00000  Uiso   1.00
H724   H     0.56778   0.80475   0.66031   0.00000  Uiso   1.00
O725   O     0.45067   0.68087   0.87090   0.00000  Uiso   1.00
H726   H     0.43593   0.69243   0.83969   0.00000  Uiso   1.00
C727   C     0.83323   0.66397   0.74994   0.00000  Uiso   1.00
C728   C     0.83339   0.83604   0.75003   0.00000  Uiso   1.00
C729   C     0.78716   0.73547   0.54705   0.00000  Uiso   1.00
C730   C     0.85115   0.78922   0.94932   0.00000  Uiso   1.00
C731   C     0.79143   0.73147   0.59671   0.00000  Uiso   1.00
C732   C     0.85570   0.78552   0.90079   0.00000  Uiso   1.00
C733   C     0.87383   0.76919   0.60639   0.00000  Uiso   1.00
C734   C     0.81019   0.71573   0.89590   0.00000  Uiso   1.00
C735   C     0.87415   0.76768   0.55722   0.00000  Uiso   1.00
C736   C     0.81190   0.71548   0.94533   0.00000  Uiso   1.00
C737   C     0.83020   0.75229   0.52621   0.00000  Uiso   1.00
C738   C     0.83071   0.75274   0.97309   0.00000  Uiso   1.00
C739   C     0.73392   0.74889   0.73786   0.00000  Uiso   1.00
C740   C     0.93273   0.75110   0.76216   0.00000  Uiso   1.00
C741   C     0.67911   0.74226   0.73264   0.00000  Uiso   1.00
C742   C     0.98755   0.75768   0.76744   0.00000  Uiso   1.00
C743   C     0.81431   0.54661   0.78624   0.00000  Uiso   1.00
C744   C     0.81554   0.95236   0.70791   0.00000  Uiso   1.00
C745   C     0.81455   0.59259   0.78648   0.00000  Uiso   1.00
C746   C     0.81577   0.90638   0.70799   0.00000  Uiso   1.00
C747   C     0.83316   0.61606   0.74978   0.00000  Uiso   1.00
C748   C     0.83335   0.88397   0.74995   0.00000  Uiso   1.00
C749   C     0.85170   0.59354   0.71291   0.00000  Uiso   1.00
C750   C     0.85101   0.90759   0.79174   0.00000  Uiso   1.00
C751   C     0.85199   0.54755   0.71296   0.00000  Uiso   1.00
C752   C     0.85130   0.95358   0.79153   0.00000  Uiso   1.00
C753   C     0.83322   0.52408   0.74960   0.00000  Uiso   1.00
C754   C     0.83340   0.97597   0.74966   0.00000  Uiso   1.00
H755   H     0.79899   0.52863   0.81434   0.00000  Uiso   1.00
H756   H     0.80096   0.96948   0.67552   0.00000  Uiso   1.00
H757   H     0.79960   0.60967   0.81489   0.00000  Uiso   1.00
H758   H     0.80161   0.88840   0.67552   0.00000  Uiso   1.00
H759   H     0.86660   0.61144   0.68455   0.00000  Uiso   1.00
H760   H     0.86520   0.89063   0.82428   0.00000  Uiso   1.00
H761   H     0.86732   0.53033   0.68481   0.00000  Uiso   1.00
H762   H     0.86588   0.97166   0.82382   0.00000  Uiso   1.00
H763   H     0.90825   0.78056   0.54324   0.00000  Uiso   1.00
H764   H     0.79623   0.68657   0.96170   0.00000  Uiso   1.00
N765   N     0.83333   0.74999   0.62624   0.00000  Uiso   1.00
N766   N     0.83333   0.75001   0.87377   0.00000  Uiso   1.00
O767   O     0.83334   0.68454   0.78974   0.00000  Uiso   1.00
O768   O     0.83333   0.81546   0.71026   0.00000  Uiso   1.00
O769   O     0.83334   0.68453   0.71026   0.00000  Uiso   1.00
O770   O     0.83333   0.81547   0.78974   0.00000  Uiso   1.00
O771   O     0.75725   0.75000   0.78045   0.00000  Uiso   1.00
O772   O     0.90942   0.75000   0.71956   0.00000  Uiso   1.00
O773   O     0.75725   0.74999   0.70097   0.00000  Uiso   1.00
O774   O     0.90942   0.75001   0.79904   0.00000  Uiso   1.00
Zn775  Zn    0.83333   0.75000   0.80307   0.00000  Uiso   1.00
Zn776  Zn    0.83333   0.74999   0.69693   0.00000  Uiso   1.00
O777   O     0.98684   0.71660   0.69534   0.00000  Uiso   1.00
H778   H     0.67920   0.70488   0.67627   0.00000  Uiso   1.00
O779   O     0.67980   0.78319   0.80488   0.00000  Uiso   1.00
H780   H     0.98747   0.79451   0.82425   0.00000  Uiso   1.00
O781   O     0.74033   0.72236   0.52062   0.00000  Uiso   1.00
H782   H     0.73608   0.73910   0.99053   0.00000  Uiso   1.00
O783   O     0.86738   0.82899   0.97181   0.00000  Uiso   1.00
H784   H     0.84794   0.83291   0.99886   0.00000  Uiso   1.00
O785   O     0.75163   0.70910   0.61442   0.00000  Uiso   1.00
H786   H     0.76714   0.69447   0.64378   0.00000  Uiso   1.00
O787   O     0.88251   0.81923   0.88147   0.00000  Uiso   1.00
H788   H     0.89873   0.80600   0.85577   0.00000  Uiso   1.00
O789   O     0.91491   0.79113   0.63339   0.00000  Uiso   1.00
H790   H     0.90111   0.80475   0.66031   0.00000  Uiso   1.00
O791   O     0.78400   0.68087   0.87090   0.00000  Uiso   1.00
H792   H     0.76927   0.69243   0.83969   0.00000  Uiso   1.00
loop_
_geom_bond_atom_site_label_1
_geom_bond_atom_site_label_2
_geom_bond_distance
_geom_bond_site_symmetry_2
_ccdc_geom_bond_type
C1     C21     1.438   .     S
C1     O41     1.292   .     A
C1     O43     1.291   .     A
C2     O44     1.292   .     A
C2     C22     1.439   .     S
C2     O42     1.291   .     A
C3     C11     1.419   .     A
C3     C5      1.412   .     A
C3     O55     1.380   .     S
C4     O57     1.380   .     S
C4     C12     1.419   .     A
C4     C6      1.412   .     A
C5     N39     1.378   .     A
C5     O59     1.373   .     S
C6     O61     1.373   .     S
C6     N40     1.379   .     A
C7     O63     1.372   .     S
C7     C9      1.406   .     A
C7     N39     1.376   .     A
C8     O65     1.372   .     S
C8     N40     1.377   .     A
C8     C10     1.406   .     A
C9     C11     1.405   .     A
C9     H37     1.083   .     S
C10    H38     1.083   .     S
C10    C12     1.404   .     A
C11    C408    1.519   1_554 S
C12    C407    1.519   .     S
C13    C15     1.415   .     S
C13    O45     1.278   .     A
C13    O47     1.288   .     A
C14    O46     1.278   .     A
C14    C16     1.415   .     S
C14    O48     1.288   .     A
C15    C148    1.349   1_455 S
C15    O183    1.390   1_455 S
C16    C81     1.349   .     S
C16    O119    1.390   .     S
C17    H29     1.083   .     S
C17    C27     1.399   .     A
C17    C19     1.380   .     A
C18    H30     1.083   .     S
C18    C28     1.399   .     A
C18    C20     1.381   .     A
C19    H31     1.082   .     S
C19    C21     1.399   .     A
C20    H32     1.084   .     S
C20    C22     1.400   .     A
C21    C23     1.399   .     A
C22    C24     1.399   .     A
C23    C25     1.381   .     A
C23    H33     1.084   .     S
C24    C26     1.381   .     A
C24    H34     1.082   .     S
C25    C27     1.399   .     A
C25    H35     1.083   .     S
C26    C28     1.399   .     A
C26    H36     1.083   .     S
C27    C226    1.444   1_545 S
C28    C225    1.444   .     S
N39    Zn50    2.019   .     S
N40    Zn49    2.019   .     S
O41    Zn49    2.001   .     S
O42    Zn50    2.001   .     S
O43    Zn50    2.003   .     S
O44    Zn49    2.003   .     S
O45    Zn49    1.985   .     S
O46    Zn50    1.985   .     S
O47    Zn50    1.992   .     S
O48    Zn49    1.992   .     S
O51    C81     1.390   .     S
O51    H118    0.990   .     S
H52    O183    0.990   1_455 S
O53    C148    1.390   1_455 S
O53    H186    0.991   1_455 S
H54    O119    0.991   .     S
O55    H452    0.990   1_554 S
H56    O451    0.990   .     S
O57    H58     0.990   .     S
O59    H60     0.986   .     S
O61    H62     0.985   .     S
O63    H64     0.986   .     S
O65    H66     0.985   .     S
C67    C87     1.438   .     S
C67    O107    1.292   .     A
C67    O109    1.291   .     A
C68    O110    1.292   .     A
C68    C88     1.439   .     S
C68    O108    1.291   .     A
C69    C77     1.419   .     A
C69    C71     1.412   .     A
C69    O121    1.380   .     S
C70    O123    1.380   .     S
C70    C78     1.419   .     A
C70    C72     1.412   .     A
C71    N105    1.378   .     A
C71    O125    1.373   .     S
C72    O127    1.373   .     S
C72    N106    1.379   .     A
C73    O129    1.372   .     S
C73    C75     1.406   .     A
C73    N105    1.376   .     A
C74    O131    1.372   .     S
C74    N106    1.377   .     A
C74    C76     1.406   .     A
C75    C77     1.405   .     A
C75    H103    1.083   .     S
C76    H104    1.083   .     S
C76    C78     1.404   .     A
C77    C474    1.519   1_554 S
C78    C473    1.519   .     S
C79    C81     1.415   .     S
C79    O111    1.278   .     A
C79    O113    1.288   .     A
C80    O112    1.278   .     A
C80    C82     1.415   .     S
C80    O114    1.288   .     A
C82    C147    1.349   .     S
C82    O185    1.390   .     S
C83    H95     1.083   .     S
C83    C93     1.399   .     A
C83    C85     1.380   .     A
C84    H96     1.083   .     S
C84    C94     1.399   .     A
C84    C86     1.381   .     A
C85    H97     1.082   .     S
C85    C87     1.399   .     A
C86    H98     1.084   .     S
C86    C88     1.400   .     A
C87    C89     1.399   .     A
C88    C90     1.399   .     A
C89    C91     1.381   .     A
C89    H99     1.084   .     S
C90    C92     1.381   .     A
C90    H100    1.082   .     S
C91    C93     1.399   .     A
C91    H101    1.083   .     S
C92    C94     1.399   .     A
C92    H102    1.083   .     S
C93    C292    1.444   1_545 S
C94    C291    1.444   .     S
N105   Zn116   2.019   .     S
N106   Zn115   2.019   .     S
O107   Zn115   2.001   .     S
O108   Zn116   2.001   .     S
O109   Zn116   2.003   .     S
O110   Zn115   2.003   .     S
O111   Zn115   1.985   .     S
O112   Zn116   1.985   .     S
O113   Zn116   1.992   .     S
O114   Zn115   1.992   .     S
O117   C147    1.390   .     S
O117   H184    0.990   .     S
H120   O185    0.991   .     S
O121   H518    0.990   1_554 S
H122   O517    0.990   .     S
O123   H124    0.990   .     S
O125   H126    0.986   .     S
O127   H128    0.985   .     S
O129   H130    0.986   .     S
O131   H132    0.985   .     S
C133   C153    1.438   .     S
C133   O173    1.292   .     A
C133   O175    1.291   .     A
C134   O176    1.292   .     A
C134   C154    1.439   .     S
C134   O174    1.291   .     A
C135   C143    1.419   .     A
C135   C137    1.412   .     A
C135   O187    1.380   .     S
C136   O189    1.380   .     S
C136   C144    1.419   .     A
C136   C138    1.412   .     A
C137   N171    1.378   .     A
C137   O191    1.373   .     S
C138   O193    1.373   .     S
C138   N172    1.379   .     A
C139   O195    1.372   .     S
C139   C141    1.406   .     A
C139   N171    1.376   .     A
C140   O197    1.372   .     S
C140   N172    1.377   .     A
C140   C142    1.406   .     A
C141   C143    1.405   .     A
C141   H169    1.083   .     S
C142   H170    1.083   .     S
C142   C144    1.404   .     A
C143   C540    1.519   1_554 S
C144   C539    1.519   .     S
C145   C147    1.415   .     S
C145   O177    1.278   .     A
C145   O179    1.288   .     A
C146   O178    1.278   .     A
C146   C148    1.415   .     S
C146   O180    1.288   .     A
C148   C15     1.349   1_655 S
C148   O53     1.390   1_655 S
C149   H161    1.083   .     S
C149   C159    1.399   .     A
C149   C151    1.380   .     A
C150   H162    1.083   .     S
C150   C160    1.399   .     A
C150   C152    1.381   .     A
C151   H163    1.082   .     S
C151   C153    1.399   .     A
C152   H164    1.084   .     S
C152   C154    1.400   .     A
C153   C155    1.399   .     A
C154   C156    1.399   .     A
C155   C157    1.381   .     A
C155   H165    1.084   .     S
C156   C158    1.381   .     A
C156   H166    1.082   .     S
C157   C159    1.399   .     A
C157   H167    1.083   .     S
C158   C160    1.399   .     A
C158   H168    1.083   .     S
C159   C358    1.444   1_545 S
C160   C357    1.444   .     S
N171   Zn182   2.019   .     S
N172   Zn181   2.019   .     S
O173   Zn181   2.001   .     S
O174   Zn182   2.001   .     S
O175   Zn182   2.003   .     S
O176   Zn181   2.003   .     S
O177   Zn181   1.985   .     S
O178   Zn182   1.985   .     S
O179   Zn182   1.992   .     S
O180   Zn181   1.992   .     S
O183   C15     1.390   1_655 S
O183   H52     0.990   1_655 S
H186   O53     0.991   1_655 S
O187   H584    0.990   1_554 S
H188   O583    0.990   .     S
O189   H190    0.990   .     S
O191   H192    0.986   .     S
O193   H194    0.985   .     S
O195   H196    0.986   .     S
O197   H198    0.985   .     S
C199   C219    1.438   .     S
C199   O239    1.292   .     A
C199   O241    1.291   .     A
C200   O242    1.292   .     A
C200   C220    1.439   .     S
C200   O240    1.291   .     A
C201   C209    1.419   .     A
C201   C203    1.412   .     A
C201   O253    1.380   .     S
C202   O255    1.380   .     S
C202   C210    1.419   .     A
C202   C204    1.412   .     A
C203   N237    1.378   .     A
C203   O257    1.373   .     S
C204   O259    1.373   .     S
C204   N238    1.379   .     A
C205   O261    1.372   .     S
C205   C207    1.406   .     A
C205   N237    1.376   .     A
C206   O263    1.372   .     S
C206   N238    1.377   .     A
C206   C208    1.406   .     A
C207   C209    1.405   .     A
C207   H235    1.083   .     S
C208   H236    1.083   .     S
C208   C210    1.404   .     A
C209   C606    1.519   1_554 S
C210   C605    1.519   .     S
C211   C213    1.415   .     S
C211   O243    1.278   .     A
C211   O245    1.288   .     A
C212   O244    1.278   .     A
C212   C214    1.415   .     S
C212   O246    1.288   .     A
C213   C346    1.349   1_455 S
C213   O381    1.390   1_455 S
C214   C279    1.349   .     S
C214   O317    1.390   .     S
C215   H227    1.083   .     S
C215   C225    1.399   .     A
C215   C217    1.380   .     A
C216   H228    1.083   .     S
C216   C226    1.399   .     A
C216   C218    1.381   .     A
C217   H229    1.082   .     S
C217   C219    1.399   .     A
C218   H230    1.084   .     S
C218   C220    1.400   .     A
C219   C221    1.399   .     A
C220   C222    1.399   .     A
C221   C223    1.381   .     A
C221   H231    1.084   .     S
C222   C224    1.381   .     A
C222   H232    1.082   .     S
C223   C225    1.399   .     A
C223   H233    1.083   .     S
C224   C226    1.399   .     A
C224   H234    1.083   .     S
C226   C27     1.444   1_565 S
N237   Zn248   2.019   .     S
N238   Zn247   2.019   .     S
O239   Zn247   2.001   .     S
O240   Zn248   2.001   .     S
O241   Zn248   2.003   .     S
O242   Zn247   2.003   .     S
O243   Zn247   1.985   .     S
O244   Zn248   1.985   .     S
O245   Zn248   1.992   .     S
O246   Zn247   1.992   .     S
O249   C279    1.390   .     S
O249   H316    0.990   .     S
H250   O381    0.990   1_455 S
O251   C346    1.390   1_455 S
O251   H384    0.991   1_455 S
H252   O317    0.991   .     S
O253   H650    0.990   1_554 S
H254   O649    0.990   .     S
O255   H256    0.990   .     S
O257   H258    0.986   .     S
O259   H260    0.985   .     S
O261   H262    0.986   .     S
O263   H264    0.985   .     S
C265   C285    1.438   .     S
C265   O305    1.292   .     A
C265   O307    1.291   .     A
C266   O308    1.292   .     A
C266   C286    1.439   .     S
C266   O306    1.291   .     A
C267   C275    1.419   .     A
C267   C269    1.412   .     A
C267   O319    1.380   .     S
C268   O321    1.380   .     S
C268   C276    1.419   .     A
C268   C270    1.412   .     A
C269   N303    1.378   .     A
C269   O323    1.373   .     S
C270   O325    1.373   .     S
C270   N304    1.379   .     A
C271   O327    1.372   .     S
C271   C273    1.406   .     A
C271   N303    1.376   .     A
C272   O329    1.372   .     S
C272   N304    1.377   .     A
C272   C274    1.406   .     A
C273   C275    1.405   .     A
C273   H301    1.083   .     S
C274   H302    1.083   .     S
C274   C276    1.404   .     A
C275   C672    1.519   1_554 S
C276   C671    1.519   .     S
C277   C279    1.415   .     S
C277   O309    1.278   .     A
C277   O311    1.288   .     A
C278   O310    1.278   .     A
C278   C280    1.415   .     S
C278   O312    1.288   .     A
C280   C345    1.349   .     S
C280   O383    1.390   .     S
C281   H293    1.083   .     S
C281   C291    1.399   .     A
C281   C283    1.380   .     A
C282   H294    1.083   .     S
C282   C292    1.399   .     A
C282   C284    1.381   .     A
C283   H295    1.082   .     S
C283   C285    1.399   .     A
C284   H296    1.084   .     S
C284   C286    1.400   .     A
C285   C287    1.399   .     A
C286   C288    1.399   .     A
C287   C289    1.381   .     A
C287   H297    1.084   .     S
C288   C290    1.381   .     A
C288   H298    1.082   .     S
C289   C291    1.399   .     A
C289   H299    1.083   .     S
C290   C292    1.399   .     A
C290   H300    1.083   .     S
C292   C93     1.444   1_565 S
N303   Zn314   2.019   .     S
N304   Zn313   2.019   .     S
O305   Zn313   2.001   .     S
O306   Zn314   2.001   .     S
O307   Zn314   2.003   .     S
O308   Zn313   2.003   .     S
O309   Zn313   1.985   .     S
O310   Zn314   1.985   .     S
O311   Zn314   1.992   .     S
O312   Zn313   1.992   .     S
O315   C345    1.390   .     S
O315   H382    0.990   .     S
H318   O383    0.991   .     S
O319   H716    0.990   1_554 S
H320   O715    0.990   .     S
O321   H322    0.990   .     S
O323   H324    0.986   .     S
O325   H326    0.985   .     S
O327   H328    0.986   .     S
O329   H330    0.985   .     S
C331   C351    1.438   .     S
C331   O371    1.292   .     A
C331   O373    1.291   .     A
C332   O374    1.292   .     A
C332   C352    1.439   .     S
C332   O372    1.291   .     A
C333   C341    1.419   .     A
C333   C335    1.412   .     A
C333   O385    1.380   .     S
C334   O387    1.380   .     S
C334   C342    1.419   .     A
C334   C336    1.412   .     A
C335   N369    1.378   .     A
C335   O389    1.373   .     S
C336   O391    1.373   .     S
C336   N370    1.379   .     A
C337   O393    1.372   .     S
C337   C339    1.406   .     A
C337   N369    1.376   .     A
C338   O395    1.372   .     S
C338   N370    1.377   .     A
C338   C340    1.406   .     A
C339   C341    1.405   .     A
C339   H367    1.083   .     S
C340   H368    1.083   .     S
C340   C342    1.404   .     A
C341   C738    1.519   1_554 S
C342   C737    1.519   .     S
C343   C345    1.415   .     S
C343   O375    1.278   .     A
C343   O377    1.288   .     A
C344   O376    1.278   .     A
C344   C346    1.415   .     S
C344   O378    1.288   .     A
C346   C213    1.349   1_655 S
C346   O251    1.390   1_655 S
C347   H359    1.083   .     S
C347   C357    1.399   .     A
C347   C349    1.380   .     A
C348   H360    1.083   .     S
C348   C358    1.399   .     A
C348   C350    1.381   .     A
C349   H361    1.082   .     S
C349   C351    1.399   .     A
C350   H362    1.084   .     S
C350   C352    1.400   .     A
C351   C353    1.399   .     A
C352   C354    1.399   .     A
C353   C355    1.381   .     A
C353   H363    1.084   .     S
C354   C356    1.381   .     A
C354   H364    1.082   .     S
C355   C357    1.399   .     A
C355   H365    1.083   .     S
C356   C358    1.399   .     A
C356   H366    1.083   .     S
C358   C159    1.444   1_565 S
N369   Zn380   2.019   .     S
N370   Zn379   2.019   .     S
O371   Zn379   2.001   .     S
O372   Zn380   2.001   .     S
O373   Zn380   2.003   .     S
O374   Zn379   2.003   .     S
O375   Zn379   1.985   .     S
O376   Zn380   1.985   .     S
O377   Zn380   1.992   .     S
O378   Zn379   1.992   .     S
O381   C213    1.390   1_655 S
O381   H250    0.990   1_655 S
H384   O251    0.991   1_655 S
O385   H782    0.990   1_554 S
H386   O781    0.990   .     S
O387   H388    0.990   .     S
O389   H390    0.986   .     S
O391   H392    0.985   .     S
O393   H394    0.986   .     S
O395   H396    0.985   .     S
C397   C417    1.438   .     S
C397   O437    1.292   .     A
C397   O439    1.291   .     A
C398   O440    1.292   .     A
C398   C418    1.439   .     S
C398   O438    1.291   .     A
C399   C407    1.419   .     A
C399   C401    1.412   .     A
C399   O451    1.380   .     S
C400   O453    1.380   .     S
C400   C408    1.419   .     A
C400   C402    1.412   .     A
C401   N435    1.378   .     A
C401   O455    1.373   .     S
C402   O457    1.373   .     S
C402   N436    1.379   .     A
C403   O459    1.372   .     S
C403   C405    1.406   .     A
C403   N435    1.376   .     A
C404   O461    1.372   .     S
C404   N436    1.377   .     A
C404   C406    1.406   .     A
C405   C407    1.405   .     A
C405   H433    1.083   .     S
C406   H434    1.083   .     S
C406   C408    1.404   .     A
C408   C11     1.519   1_556 S
C409   C411    1.415   .     S
C409   O441    1.278   .     A
C409   O443    1.288   .     A
C410   O442    1.278   .     A
C410   C412    1.415   .     S
C410   O444    1.288   .     A
C411   C544    1.349   1_455 S
C411   O579    1.390   1_455 S
C412   C477    1.349   .     S
C412   O515    1.390   .     S
C413   H425    1.083   .     S
C413   C423    1.399   .     A
C413   C415    1.380   .     A
C414   H426    1.083   .     S
C414   C424    1.399   .     A
C414   C416    1.381   .     A
C415   H427    1.082   .     S
C415   C417    1.399   .     A
C416   H428    1.084   .     S
C416   C418    1.400   .     A
C417   C419    1.399   .     A
C418   C420    1.399   .     A
C419   C421    1.381   .     A
C419   H429    1.084   .     S
C420   C422    1.381   .     A
C420   H430    1.082   .     S
C421   C423    1.399   .     A
C421   H431    1.083   .     S
C422   C424    1.399   .     A
C422   H432    1.083   .     S
C423   C622    1.444   1_545 S
C424   C621    1.444   .     S
N435   Zn446   2.019   .     S
N436   Zn445   2.019   .     S
O437   Zn445   2.001   .     S
O438   Zn446   2.001   .     S
O439   Zn446   2.003   .     S
O440   Zn445   2.003   .     S
O441   Zn445   1.985   .     S
O442   Zn446   1.985   .     S
O443   Zn446   1.992   .     S
O444   Zn445   1.992   .     S
O447   C477    1.390   .     S
O447   H514    0.990   .     S
H448   O579    0.990   1_455 S
O449   C544    1.390   1_455 S
O449   H582    0.991   1_455 S
H450   O515    0.991   .     S
H452   O55     0.990   1_556 S
O453   H454    0.990   .     S
O455   H456    0.986   .     S
O457   H458    0.985   .     S
O459   H460    0.986   .     S
O461   H462    0.985   .     S
C463   C483    1.438   .     S
C463   O503    1.292   .     A
C463   O505    1.291   .     A
C464   O506    1.292   .     A
C464   C484    1.439   .     S
C464   O504    1.291   .     A
C465   C473    1.419   .     A
C465   C467    1.412   .     A
C465   O517    1.380   .     S
C466   O519    1.380   .     S
C466   C474    1.419   .     A
C466   C468    1.412   .     A
C467   N501    1.378   .     A
C467   O521    1.373   .     S
C468   O523    1.373   .     S
C468   N502    1.379   .     A
C469   O525    1.372   .     S
C469   C471    1.406   .     A
C469   N501    1.376   .     A
C470   O527    1.372   .     S
C470   N502    1.377   .     A
C470   C472    1.406   .     A
C471   C473    1.405   .     A
C471   H499    1.083   .     S
C472   H500    1.083   .     S
C472   C474    1.404   .     A
C474   C77     1.519   1_556 S
C475   C477    1.415   .     S
C475   O507    1.278   .     A
C475   O509    1.288   .     A
C476   O508    1.278   .     A
C476   C478    1.415   .     S
C476   O510    1.288   .     A
C478   C543    1.349   .     S
C478   O581    1.390   .     S
C479   H491    1.083   .     S
C479   C489    1.399   .     A
C479   C481    1.380   .     A
C480   H492    1.083   .     S
C480   C490    1.399   .     A
C480   C482    1.381   .     A
C481   H493    1.082   .     S
C481   C483    1.399   .     A
C482   H494    1.084   .     S
C482   C484    1.400   .     A
C483   C485    1.399   .     A
C484   C486    1.399   .     A
C485   C487    1.381   .     A
C485   H495    1.084   .     S
C486   C488    1.381   .     A
C486   H496    1.082   .     S
C487   C489    1.399   .     A
C487   H497    1.083   .     S
C488   C490    1.399   .     A
C488   H498    1.083   .     S
C489   C688    1.444   1_545 S
C490   C687    1.444   .     S
N501   Zn512   2.019   .     S
N502   Zn511   2.019   .     S
O503   Zn511   2.001   .     S
O504   Zn512   2.001   .     S
O505   Zn512   2.003   .     S
O506   Zn511   2.003   .     S
O507   Zn511   1.985   .     S
O508   Zn512   1.985   .     S
O509   Zn512   1.992   .     S
O510   Zn511   1.992   .     S
O513   C543    1.390   .     S
O513   H580    0.990   .     S
H516   O581    0.991   .     S
H518   O121    0.990   1_556 S
O519   H520    0.990   .     S
O521   H522    0.986   .     S
O523   H524    0.985   .     S
O525   H526    0.986   .     S
O527   H528    0.985   .     S
C529   C549    1.438   .     S
C529   O569    1.292   .     A
C529   O571    1.291   .     A
C530   O572    1.292   .     A
C530   C550    1.439   .     S
C530   O570    1.291   .     A
C531   C539    1.419   .     A
C531   C533    1.412   .     A
C531   O583    1.380   .     S
C532   O585    1.380   .     S
C532   C540    1.419   .     A
C532   C534    1.412   .     A
C533   N567    1.378   .     A
C533   O587    1.373   .     S
C534   O589    1.373   .     S
C534   N568    1.379   .     A
C535   O591    1.372   .     S
C535   C537    1.406   .     A
C535   N567    1.376   .     A
C536   O593    1.372   .     S
C536   N568    1.377   .     A
C536   C538    1.406   .     A
C537   C539    1.405   .     A
C537   H565    1.083   .     S
C538   H566    1.083   .     S
C538   C540    1.404   .     A
C540   C143    1.519   1_556 S
C541   C543    1.415   .     S
C541   O573    1.278   .     A
C541   O575    1.288   .     A
C542   O574    1.278   .     A
C542   C544    1.415   .     S
C542   O576    1.288   .     A
C544   C411    1.349   1_655 S
C544   O449    1.390   1_655 S
C545   H557    1.083   .     S
C545   C555    1.399   .     A
C545   C547    1.380   .     A
C546   H558    1.083   .     S
C546   C556    1.399   .     A
C546   C548    1.381   .     A
C547   H559    1.082   .     S
C547   C549    1.399   .     A
C548   H560    1.084   .     S
C548   C550    1.400   .     A
C549   C551    1.399   .     A
C550   C552    1.399   .     A
C551   C553    1.381   .     A
C551   H561    1.084   .     S
C552   C554    1.381   .     A
C552   H562    1.082   .     S
C553   C555    1.399   .     A
C553   H563    1.083   .     S
C554   C556    1.399   .     A
C554   H564    1.083   .     S
C555   C754    1.444   1_545 S
C556   C753    1.444   .     S
N567   Zn578   2.019   .     S
N568   Zn577   2.019   .     S
O569   Zn577   2.001   .     S
O570   Zn578   2.001   .     S
O571   Zn578   2.003   .     S
O572   Zn577   2.003   .     S
O573   Zn577   1.985   .     S
O574   Zn578   1.985   .     S
O575   Zn578   1.992   .     S
O576   Zn577   1.992   .     S
O579   C411    1.390   1_655 S
O579   H448    0.990   1_655 S
H582   O449    0.991   1_655 S
H584   O187    0.990   1_556 S
O585   H586    0.990   .     S
O587   H588    0.986   .     S
O589   H590    0.985   .     S
O591   H592    0.986   .     S
O593   H594    0.985   .     S
C595   C615    1.438   .     S
C595   O635    1.292   .     A
C595   O637    1.291   .     A
C596   O638    1.292   .     A
C596   C616    1.439   .     S
C596   O636    1.291   .     A
C597   C605    1.419   .     A
C597   C599    1.412   .     A
C597   O649    1.380   .     S
C598   O651    1.380   .     S
C598   C606    1.419   .     A
C598   C600    1.412   .     A
C599   N633    1.378   .     A
C599   O653    1.373   .     S
C600   O655    1.373   .     S
C600   N634    1.379   .     A
C601   O657    1.372   .     S
C601   C603    1.406   .     A
C601   N633    1.376   .     A
C602   O659    1.372   .     S
C602   N634    1.377   .     A
C602   C604    1.406   .     A
C603   C605    1.405   .     A
C603   H631    1.083   .     S
C604   H632    1.083   .     S
C604   C606    1.404   .     A
C606   C209    1.519   1_556 S
C607   C609    1.415   .     S
C607   O639    1.278   .     A
C607   O641    1.288   .     A
C608   O640    1.278   .     A
C608   C610    1.415   .     S
C608   O642    1.288   .     A
C609   C742    1.349   1_455 S
C609   O777    1.390   1_455 S
C610   C675    1.349   .     S
C610   O713    1.390   .     S
C611   H623    1.083   .     S
C611   C621    1.399   .     A
C611   C613    1.380   .     A
C612   H624    1.083   .     S
C612   C622    1.399   .     A
C612   C614    1.381   .     A
C613   H625    1.082   .     S
C613   C615    1.399   .     A
C614   H626    1.084   .     S
C614   C616    1.400   .     A
C615   C617    1.399   .     A
C616   C618    1.399   .     A
C617   C619    1.381   .     A
C617   H627    1.084   .     S
C618   C620    1.381   .     A
C618   H628    1.082   .     S
C619   C621    1.399   .     A
C619   H629    1.083   .     S
C620   C622    1.399   .     A
C620   H630    1.083   .     S
C622   C423    1.444   1_565 S
N633   Zn644   2.019   .     S
N634   Zn643   2.019   .     S
O635   Zn643   2.001   .     S
O636   Zn644   2.001   .     S
O637   Zn644   2.003   .     S
O638   Zn643   2.003   .     S
O639   Zn643   1.985   .     S
O640   Zn644   1.985   .     S
O641   Zn644   1.992   .     S
O642   Zn643   1.992   .     S
O645   C675    1.390   .     S
O645   H712    0.990   .     S
H646   O777    0.990   1_455 S
O647   C742    1.390   1_455 S
O647   H780    0.991   1_455 S
H648   O713    0.991   .     S
H650   O253    0.990   1_556 S
O651   H652    0.990   .     S
O653   H654    0.986   .     S
O655   H656    0.985   .     S
O657   H658    0.986   .     S
O659   H660    0.985   .     S
C661   C681    1.438   .     S
C661   O701    1.292   .     A
C661   O703    1.291   .     A
C662   O704    1.292   .     A
C662   C682    1.439   .     S
C662   O702    1.291   .     A
C663   C671    1.419   .     A
C663   C665    1.412   .     A
C663   O715    1.380   .     S
C664   O717    1.380   .     S
C664   C672    1.419   .     A
C664   C666    1.412   .     A
C665   N699    1.378   .     A
C665   O719    1.373   .     S
C666   O721    1.373   .     S
C666   N700    1.379   .     A
C667   O723    1.372   .     S
C667   C669    1.406   .     A
C667   N699    1.376   .     A
C668   O725    1.372   .     S
C668   N700    1.377   .     A
C668   C670    1.406   .     A
C669   C671    1.405   .     A
C669   H697    1.083   .     S
C670   H698    1.083   .     S
C670   C672    1.404   .     A
C672   C275    1.519   1_556 S
C673   C675    1.415   .     S
C673   O705    1.278   .     A
C673   O707    1.288   .     A
C674   O706    1.278   .     A
C674   C676    1.415   .     S
C674   O708    1.288   .     A
C676   C741    1.349   .     S
C676   O779    1.390   .     S
C677   H689    1.083   .     S
C677   C687    1.399   .     A
C677   C679    1.380   .     A
C678   H690    1.083   .     S
C678   C688    1.399   .     A
C678   C680    1.381   .     A
C679   H691    1.082   .     S
C679   C681    1.399   .     A
C680   H692    1.084   .     S
C680   C682    1.400   .     A
C681   C683    1.399   .     A
C682   C684    1.399   .     A
C683   C685    1.381   .     A
C683   H693    1.084   .     S
C684   C686    1.381   .     A
C684   H694    1.082   .     S
C685   C687    1.399   .     A
C685   H695    1.083   .     S
C686   C688    1.399   .     A
C686   H696    1.083   .     S
C688   C489    1.444   1_565 S
N699   Zn710   2.019   .     S
N700   Zn709   2.019   .     S
O701   Zn709   2.001   .     S
O702   Zn710   2.001   .     S
O703   Zn710   2.003   .     S
O704   Zn709   2.003   .     S
O705   Zn709   1.985   .     S
O706   Zn710   1.985   .     S
O707   Zn710   1.992   .     S
O708   Zn709   1.992   .     S
O711   C741    1.390   .     S
O711   H778    0.990   .     S
H714   O779    0.991   .     S
H716   O319    0.990   1_556 S
O717   H718    0.990   .     S
O719   H720    0.986   .     S
O721   H722    0.985   .     S
O723   H724    0.986   .     S
O725   H726    0.985   .     S
C727   C747    1.438   .     S
C727   O767    1.292   .     A
C727   O769    1.291   .     A
C728   O770    1.292   .     A
C728   C748    1.439   .     S
C728   O768    1.291   .     A
C729   C737    1.419   .     A
C729   C731    1.412   .     A
C729   O781    1.380   .     S
C730   O783    1.380   .     S
C730   C738    1.419   .     A
C730   C732    1.412   .     A
C731   N765    1.378   .     A
C731   O785    1.373   .     S
C732   O787    1.373   .     S
C732   N766    1.379   .     A
C733   O789    1.372   .     S
C733   C735    1.406   .     A
C733   N765    1.376   .     A
C734   O791    1.372   .     S
C734   N766    1.377   .     A
C734   C736    1.406   .     A
C735   C737    1.405   .     A
C735   H763    1.083   .     S
C736   H764    1.083   .     S
C736   C738    1.404   .     A
C738   C341    1.519   1_556 S
C739   C741    1.415   .     S
C739   O771    1.278   .     A
C739   O773    1.288   .     A
C740   O772    1.278   .     A
C740   C742    1.415   .     S
C740   O774    1.288   .     A
C742   C609    1.349   1_655 S
C742   O647    1.390   1_655 S
C743   H755    1.083   .     S
C743   C753    1.399   .     A
C743   C745    1.380   .     A
C744   H756    1.083   .     S
C744   C754    1.399   .     A
C744   C746    1.381   .     A
C745   H757    1.082   .     S
C745   C747    1.399   .     A
C746   H758    1.084   .     S
C746   C748    1.400   .     A
C747   C749    1.399   .     A
C748   C750    1.399   .     A
C749   C751    1.381   .     A
C749   H759    1.084   .     S
C750   C752    1.381   .     A
C750   H760    1.082   .     S
C751   C753    1.399   .     A
C751   H761    1.083   .     S
C752   C754    1.399   .     A
C752   H762    1.083   .     S
C754   C555    1.444   1_565 S
N765   Zn776   2.019   .     S
N766   Zn775   2.019   .     S
O767   Zn775   2.001   .     S
O768   Zn776   2.001   .     S
O769   Zn776   2.003   .     S
O770   Zn775   2.003   .     S
O771   Zn775   1.985   .     S
O772   Zn776   1.985   .     S
O773   Zn776   1.992   .     S
O774   Zn775   1.992   .     S
O777   C609    1.390   1_655 S
O777   H646    0.990   1_655 S
H780   O647    0.991   1_655 S
H782   O385    0.990   1_556 S
O783   H784    0.990   .     S
O785   H786    0.986   .     S
O787   H788    0.985   .     S
O789   H790    0.986   .     S
O791   H792    0.985   .     S
