data_str_m2_o10_o16_pcu_sym.156
_audit_creation_date              2020-01-03
_audit_creation_method            'Materials Studio'
_symmetry_space_group_name_H-M    'P1'
_symmetry_Int_Tables_number       1
_symmetry_cell_setting            triclinic
loop_
_symmetry_equiv_pos_as_xyz
  x,y,z
_cell_length_a                    22.5786
_cell_length_b                    26.0348
_cell_length_c                    26.8262
_cell_angle_alpha                 95.3756
_cell_angle_beta                  79.3005
_cell_angle_gamma                 102.6770
loop_
_atom_site_label
_atom_site_type_symbol
_atom_site_fract_x
_atom_site_fract_y
_atom_site_fract_z
_atom_site_U_iso_or_equiv
_atom_site_adp_type
_atom_site_occupancy
C1     C     0.18119   0.26657   0.25266   0.00000  Uiso   1.00
C2     C     0.13901   0.17332   0.48799   0.00000  Uiso   1.00
C3     C     0.15489   0.18668   0.43654   0.00000  Uiso   1.00
C4     C     0.18363   0.19014   0.02027   0.00000  Uiso   1.00
C5     C     0.23563   0.23043   0.00540   0.00000  Uiso   1.00
C6     C     0.24663   0.24871   0.45659   0.00000  Uiso   1.00
C7     C     0.20793   0.22607   0.42207   0.00000  Uiso   1.00
C8     C     0.17942   0.16642   0.06600   0.00000  Uiso   1.00
C9     C     0.26453   0.23301   0.08844   0.00000  Uiso   1.00
C10    C     0.11536   0.16216   0.40184   0.00000  Uiso   1.00
C11    C     0.18826   0.32250   0.25620   0.00000  Uiso   1.00
C12    C     0.13424   0.16510   0.34676   0.00000  Uiso   1.00
C13    C     0.14332   0.01068   0.24740   0.00000  Uiso   1.00
C14    C     0.15157   0.06672   0.24871   0.00000  Uiso   1.00
C15    C     0.19954   0.17286   0.15367   0.00000  Uiso   1.00
C16    C     0.27547   0.25205   0.03989   0.00000  Uiso   1.00
C17    C     0.21745   0.18896   0.10114   0.00000  Uiso   1.00
C18    C     0.05780   0.13087   0.41981   0.00000  Uiso   1.00
C19    C     0.03840   0.12497   0.47133   0.00000  Uiso   1.00
C20    C     0.07771   0.14683   0.00551   0.00000  Uiso   1.00
Cu21   Cu    0.10710   0.16105   0.24435   0.00000  Uiso   1.00
Cu22   Cu    0.22623   0.17228   0.25564   0.00000  Uiso   1.00
H23    H     0.29304   0.25229   0.11590   0.00000  Uiso   1.00
H24    H     0.10019   0.32032   0.23838   0.00000  Uiso   1.00
H25    H     0.00514   0.21090   0.28561   0.00000  Uiso   1.00
H26    H     0.28601   0.27979   0.44469   0.00000  Uiso   1.00
H27    H     0.31398   0.28444   0.02977   0.00000  Uiso   1.00
H28    H     0.14604   0.13049   0.07511   0.00000  Uiso   1.00
H29    H     0.02682   0.11203   0.39401   0.00000  Uiso   1.00
H30    H     0.32497   0.10474   0.48484   0.00000  Uiso   1.00
H31    H     0.21847   0.24192   0.38491   0.00000  Uiso   1.00
H32    H     0.23083   0.01272   0.26622   0.00000  Uiso   1.00
N33    N     0.31574   0.18074   0.26416   0.00000  Uiso   1.00
N34    N     0.01759   0.15259   0.23584   0.00000  Uiso   1.00
O35    O     0.12797   0.23807   0.24633   0.00000  Uiso   1.00
O36    O     0.22858   0.24755   0.25586   0.00000  Uiso   1.00
O37    O     0.09181   0.15960   0.31839   0.00000  Uiso   1.00
O38    O     0.19242   0.16908   0.32793   0.00000  Uiso   1.00
O39    O     0.10476   0.08578   0.24413   0.00000  Uiso   1.00
O40    O     0.20536   0.09526   0.25367   0.00000  Uiso   1.00
O41    O     0.14092   0.16425   0.17207   0.00000  Uiso   1.00
O42    O     0.24152   0.17373   0.18160   0.00000  Uiso   1.00
I43    I     0.32055   0.08439   0.19294   0.00000  Uiso   1.00
I44    I     0.03225   0.15558   0.08052   0.00000  Uiso   1.00
C45    C     0.51452   0.26657   0.25266   0.00000  Uiso   1.00
C46    C     0.47234   0.17332   0.48799   0.00000  Uiso   1.00
C47    C     0.48823   0.18668   0.43654   0.00000  Uiso   1.00
C48    C     0.51696   0.19014   0.02027   0.00000  Uiso   1.00
C49    C     0.56896   0.23043   0.00540   0.00000  Uiso   1.00
C50    C     0.57996   0.24871   0.45659   0.00000  Uiso   1.00
C51    C     0.54126   0.22607   0.42207   0.00000  Uiso   1.00
C52    C     0.51275   0.16642   0.06600   0.00000  Uiso   1.00
C53    C     0.59786   0.23301   0.08844   0.00000  Uiso   1.00
C54    C     0.44869   0.16216   0.40184   0.00000  Uiso   1.00
C55    C     0.52159   0.32250   0.25620   0.00000  Uiso   1.00
C56    C     0.46757   0.16510   0.34676   0.00000  Uiso   1.00
C57    C     0.47666   0.01068   0.24740   0.00000  Uiso   1.00
C58    C     0.48491   0.06672   0.24871   0.00000  Uiso   1.00
C59    C     0.53287   0.17286   0.15367   0.00000  Uiso   1.00
C60    C     0.60880   0.25205   0.03989   0.00000  Uiso   1.00
C61    C     0.55078   0.18896   0.10114   0.00000  Uiso   1.00
C62    C     0.39113   0.13087   0.41981   0.00000  Uiso   1.00
C63    C     0.37174   0.12497   0.47133   0.00000  Uiso   1.00
C64    C     0.41104   0.14683   0.00551   0.00000  Uiso   1.00
Cu65   Cu    0.44043   0.16105   0.24435   0.00000  Uiso   1.00
Cu66   Cu    0.55957   0.17228   0.25564   0.00000  Uiso   1.00
H67    H     0.62637   0.25229   0.11590   0.00000  Uiso   1.00
H68    H     0.43353   0.32032   0.23838   0.00000  Uiso   1.00
H69    H     0.33847   0.21090   0.28561   0.00000  Uiso   1.00
H70    H     0.61934   0.27979   0.44469   0.00000  Uiso   1.00
H71    H     0.64732   0.28444   0.02977   0.00000  Uiso   1.00
H72    H     0.47938   0.13049   0.07511   0.00000  Uiso   1.00
H73    H     0.36016   0.11203   0.39401   0.00000  Uiso   1.00
H74    H     0.65831   0.10474   0.48484   0.00000  Uiso   1.00
H75    H     0.55180   0.24192   0.38491   0.00000  Uiso   1.00
H76    H     0.56416   0.01272   0.26622   0.00000  Uiso   1.00
N77    N     0.64908   0.18074   0.26416   0.00000  Uiso   1.00
N78    N     0.35092   0.15259   0.23584   0.00000  Uiso   1.00
O79    O     0.46131   0.23807   0.24633   0.00000  Uiso   1.00
O80    O     0.56191   0.24755   0.25586   0.00000  Uiso   1.00
O81    O     0.42515   0.15960   0.31839   0.00000  Uiso   1.00
O82    O     0.52575   0.16908   0.32793   0.00000  Uiso   1.00
O83    O     0.43809   0.08578   0.24413   0.00000  Uiso   1.00
O84    O     0.53869   0.09526   0.25367   0.00000  Uiso   1.00
O85    O     0.47425   0.16425   0.17207   0.00000  Uiso   1.00
O86    O     0.57485   0.17373   0.18160   0.00000  Uiso   1.00
I87    I     0.65388   0.08439   0.19294   0.00000  Uiso   1.00
I88    I     0.36558   0.15558   0.08052   0.00000  Uiso   1.00
C89    C     0.84786   0.26657   0.25266   0.00000  Uiso   1.00
C90    C     0.80567   0.17332   0.48799   0.00000  Uiso   1.00
C91    C     0.82156   0.18668   0.43654   0.00000  Uiso   1.00
C92    C     0.85029   0.19014   0.02027   0.00000  Uiso   1.00
C93    C     0.90229   0.23043   0.00540   0.00000  Uiso   1.00
C94    C     0.91329   0.24871   0.45659   0.00000  Uiso   1.00
C95    C     0.87460   0.22607   0.42207   0.00000  Uiso   1.00
C96    C     0.84609   0.16642   0.06600   0.00000  Uiso   1.00
C97    C     0.93119   0.23301   0.08844   0.00000  Uiso   1.00
C98    C     0.78203   0.16216   0.40184   0.00000  Uiso   1.00
C99    C     0.85493   0.32250   0.25620   0.00000  Uiso   1.00
C100   C     0.80091   0.16510   0.34676   0.00000  Uiso   1.00
C101   C     0.80999   0.01068   0.24740   0.00000  Uiso   1.00
C102   C     0.81824   0.06672   0.24871   0.00000  Uiso   1.00
C103   C     0.86621   0.17286   0.15367   0.00000  Uiso   1.00
C104   C     0.94213   0.25205   0.03989   0.00000  Uiso   1.00
C105   C     0.88411   0.18896   0.10114   0.00000  Uiso   1.00
C106   C     0.72446   0.13087   0.41981   0.00000  Uiso   1.00
C107   C     0.70507   0.12497   0.47133   0.00000  Uiso   1.00
C108   C     0.74437   0.14683   0.00551   0.00000  Uiso   1.00
Cu109  Cu    0.77377   0.16105   0.24435   0.00000  Uiso   1.00
Cu110  Cu    0.89290   0.17228   0.25564   0.00000  Uiso   1.00
H111   H     0.95970   0.25229   0.11590   0.00000  Uiso   1.00
H112   H     0.76686   0.32032   0.23838   0.00000  Uiso   1.00
H113   H     0.67181   0.21090   0.28561   0.00000  Uiso   1.00
H114   H     0.95267   0.27979   0.44469   0.00000  Uiso   1.00
H115   H     0.98065   0.28444   0.02977   0.00000  Uiso   1.00
H116   H     0.81271   0.13049   0.07511   0.00000  Uiso   1.00
H117   H     0.69349   0.11203   0.39401   0.00000  Uiso   1.00
H118   H     0.99164   0.10474   0.48484   0.00000  Uiso   1.00
H119   H     0.88514   0.24192   0.38491   0.00000  Uiso   1.00
H120   H     0.89750   0.01272   0.26622   0.00000  Uiso   1.00
N121   N     0.98241   0.18074   0.26416   0.00000  Uiso   1.00
N122   N     0.68426   0.15259   0.23584   0.00000  Uiso   1.00
O123   O     0.79464   0.23807   0.24633   0.00000  Uiso   1.00
O124   O     0.89524   0.24755   0.25586   0.00000  Uiso   1.00
O125   O     0.75848   0.15960   0.31839   0.00000  Uiso   1.00
O126   O     0.85908   0.16908   0.32793   0.00000  Uiso   1.00
O127   O     0.77142   0.08578   0.24413   0.00000  Uiso   1.00
O128   O     0.87203   0.09526   0.25367   0.00000  Uiso   1.00
O129   O     0.80758   0.16425   0.17207   0.00000  Uiso   1.00
O130   O     0.90819   0.17373   0.18160   0.00000  Uiso   1.00
I131   I     0.98721   0.08439   0.19294   0.00000  Uiso   1.00
I132   I     0.69891   0.15558   0.08052   0.00000  Uiso   1.00
C133   C     0.18119   0.59990   0.25266   0.00000  Uiso   1.00
C134   C     0.13901   0.50665   0.48799   0.00000  Uiso   1.00
C135   C     0.15489   0.52002   0.43654   0.00000  Uiso   1.00
C136   C     0.18363   0.52347   0.02027   0.00000  Uiso   1.00
C137   C     0.23563   0.56376   0.00540   0.00000  Uiso   1.00
C138   C     0.24663   0.58204   0.45659   0.00000  Uiso   1.00
C139   C     0.20793   0.55940   0.42207   0.00000  Uiso   1.00
C140   C     0.17942   0.49976   0.06600   0.00000  Uiso   1.00
C141   C     0.26453   0.56634   0.08844   0.00000  Uiso   1.00
C142   C     0.11536   0.49549   0.40184   0.00000  Uiso   1.00
C143   C     0.18826   0.65583   0.25620   0.00000  Uiso   1.00
C144   C     0.13424   0.49843   0.34676   0.00000  Uiso   1.00
C145   C     0.14332   0.34401   0.24740   0.00000  Uiso   1.00
C146   C     0.15157   0.40006   0.24871   0.00000  Uiso   1.00
C147   C     0.19954   0.50619   0.15367   0.00000  Uiso   1.00
C148   C     0.27547   0.58539   0.03989   0.00000  Uiso   1.00
C149   C     0.21745   0.52229   0.10114   0.00000  Uiso   1.00
C150   C     0.05780   0.46420   0.41981   0.00000  Uiso   1.00
C151   C     0.03840   0.45830   0.47133   0.00000  Uiso   1.00
C152   C     0.07771   0.48016   0.00551   0.00000  Uiso   1.00
Cu153  Cu    0.10710   0.49439   0.24435   0.00000  Uiso   1.00
Cu154  Cu    0.22623   0.50561   0.25564   0.00000  Uiso   1.00
H155   H     0.29304   0.58563   0.11590   0.00000  Uiso   1.00
H156   H     0.10019   0.65366   0.23838   0.00000  Uiso   1.00
H157   H     0.00514   0.54423   0.28561   0.00000  Uiso   1.00
H158   H     0.28601   0.61312   0.44469   0.00000  Uiso   1.00
H159   H     0.31398   0.61777   0.02977   0.00000  Uiso   1.00
H160   H     0.14604   0.46382   0.07511   0.00000  Uiso   1.00
H161   H     0.02682   0.44536   0.39401   0.00000  Uiso   1.00
H162   H     0.32497   0.43808   0.48484   0.00000  Uiso   1.00
H163   H     0.21847   0.57525   0.38491   0.00000  Uiso   1.00
H164   H     0.23083   0.34605   0.26622   0.00000  Uiso   1.00
N165   N     0.31574   0.51407   0.26416   0.00000  Uiso   1.00
N166   N     0.01759   0.48593   0.23584   0.00000  Uiso   1.00
O167   O     0.12797   0.57141   0.24633   0.00000  Uiso   1.00
O168   O     0.22858   0.58089   0.25586   0.00000  Uiso   1.00
O169   O     0.09181   0.49293   0.31839   0.00000  Uiso   1.00
O170   O     0.19242   0.50241   0.32793   0.00000  Uiso   1.00
O171   O     0.10476   0.41911   0.24413   0.00000  Uiso   1.00
O172   O     0.20536   0.42859   0.25367   0.00000  Uiso   1.00
O173   O     0.14092   0.49759   0.17207   0.00000  Uiso   1.00
O174   O     0.24152   0.50707   0.18160   0.00000  Uiso   1.00
I175   I     0.32055   0.41772   0.19294   0.00000  Uiso   1.00
I176   I     0.03225   0.48891   0.08052   0.00000  Uiso   1.00
C177   C     0.51452   0.59990   0.25266   0.00000  Uiso   1.00
C178   C     0.47234   0.50665   0.48799   0.00000  Uiso   1.00
C179   C     0.48823   0.52002   0.43654   0.00000  Uiso   1.00
C180   C     0.51696   0.52347   0.02027   0.00000  Uiso   1.00
C181   C     0.56896   0.56376   0.00540   0.00000  Uiso   1.00
C182   C     0.57996   0.58204   0.45659   0.00000  Uiso   1.00
C183   C     0.54126   0.55940   0.42207   0.00000  Uiso   1.00
C184   C     0.51275   0.49976   0.06600   0.00000  Uiso   1.00
C185   C     0.59786   0.56634   0.08844   0.00000  Uiso   1.00
C186   C     0.44869   0.49549   0.40184   0.00000  Uiso   1.00
C187   C     0.52159   0.65583   0.25620   0.00000  Uiso   1.00
C188   C     0.46757   0.49843   0.34676   0.00000  Uiso   1.00
C189   C     0.47666   0.34401   0.24740   0.00000  Uiso   1.00
C190   C     0.48491   0.40006   0.24871   0.00000  Uiso   1.00
C191   C     0.53287   0.50619   0.15367   0.00000  Uiso   1.00
C192   C     0.60880   0.58539   0.03989   0.00000  Uiso   1.00
C193   C     0.55078   0.52229   0.10114   0.00000  Uiso   1.00
C194   C     0.39113   0.46420   0.41981   0.00000  Uiso   1.00
C195   C     0.37174   0.45830   0.47133   0.00000  Uiso   1.00
C196   C     0.41104   0.48016   0.00551   0.00000  Uiso   1.00
Cu197  Cu    0.44043   0.49439   0.24435   0.00000  Uiso   1.00
Cu198  Cu    0.55957   0.50561   0.25564   0.00000  Uiso   1.00
H199   H     0.62637   0.58563   0.11590   0.00000  Uiso   1.00
H200   H     0.43353   0.65366   0.23838   0.00000  Uiso   1.00
H201   H     0.33847   0.54423   0.28561   0.00000  Uiso   1.00
H202   H     0.61934   0.61312   0.44469   0.00000  Uiso   1.00
H203   H     0.64732   0.61777   0.02977   0.00000  Uiso   1.00
H204   H     0.47938   0.46382   0.07511   0.00000  Uiso   1.00
H205   H     0.36016   0.44536   0.39401   0.00000  Uiso   1.00
H206   H     0.65831   0.43808   0.48484   0.00000  Uiso   1.00
H207   H     0.55180   0.57525   0.38491   0.00000  Uiso   1.00
H208   H     0.56416   0.34605   0.26622   0.00000  Uiso   1.00
N209   N     0.64908   0.51407   0.26416   0.00000  Uiso   1.00
N210   N     0.35092   0.48593   0.23584   0.00000  Uiso   1.00
O211   O     0.46131   0.57141   0.24633   0.00000  Uiso   1.00
O212   O     0.56191   0.58089   0.25586   0.00000  Uiso   1.00
O213   O     0.42515   0.49293   0.31839   0.00000  Uiso   1.00
O214   O     0.52575   0.50241   0.32793   0.00000  Uiso   1.00
O215   O     0.43809   0.41911   0.24413   0.00000  Uiso   1.00
O216   O     0.53869   0.42859   0.25367   0.00000  Uiso   1.00
O217   O     0.47425   0.49759   0.17207   0.00000  Uiso   1.00
O218   O     0.57485   0.50707   0.18160   0.00000  Uiso   1.00
I219   I     0.65388   0.41772   0.19294   0.00000  Uiso   1.00
I220   I     0.36558   0.48891   0.08052   0.00000  Uiso   1.00
C221   C     0.84786   0.59990   0.25266   0.00000  Uiso   1.00
C222   C     0.80567   0.50665   0.48799   0.00000  Uiso   1.00
C223   C     0.82156   0.52002   0.43654   0.00000  Uiso   1.00
C224   C     0.85029   0.52347   0.02027   0.00000  Uiso   1.00
C225   C     0.90229   0.56376   0.00540   0.00000  Uiso   1.00
C226   C     0.91329   0.58204   0.45659   0.00000  Uiso   1.00
C227   C     0.87460   0.55940   0.42207   0.00000  Uiso   1.00
C228   C     0.84609   0.49976   0.06600   0.00000  Uiso   1.00
C229   C     0.93119   0.56634   0.08844   0.00000  Uiso   1.00
C230   C     0.78203   0.49549   0.40184   0.00000  Uiso   1.00
C231   C     0.85493   0.65583   0.25620   0.00000  Uiso   1.00
C232   C     0.80091   0.49843   0.34676   0.00000  Uiso   1.00
C233   C     0.80999   0.34401   0.24740   0.00000  Uiso   1.00
C234   C     0.81824   0.40006   0.24871   0.00000  Uiso   1.00
C235   C     0.86621   0.50619   0.15367   0.00000  Uiso   1.00
C236   C     0.94213   0.58539   0.03989   0.00000  Uiso   1.00
C237   C     0.88411   0.52229   0.10114   0.00000  Uiso   1.00
C238   C     0.72446   0.46420   0.41981   0.00000  Uiso   1.00
C239   C     0.70507   0.45830   0.47133   0.00000  Uiso   1.00
C240   C     0.74437   0.48016   0.00551   0.00000  Uiso   1.00
Cu241  Cu    0.77377   0.49439   0.24435   0.00000  Uiso   1.00
Cu242  Cu    0.89290   0.50561   0.25564   0.00000  Uiso   1.00
H243   H     0.95970   0.58563   0.11590   0.00000  Uiso   1.00
H244   H     0.76686   0.65366   0.23838   0.00000  Uiso   1.00
H245   H     0.67181   0.54423   0.28561   0.00000  Uiso   1.00
H246   H     0.95267   0.61312   0.44469   0.00000  Uiso   1.00
H247   H     0.98065   0.61777   0.02977   0.00000  Uiso   1.00
H248   H     0.81271   0.46382   0.07511   0.00000  Uiso   1.00
H249   H     0.69349   0.44536   0.39401   0.00000  Uiso   1.00
H250   H     0.99164   0.43808   0.48484   0.00000  Uiso   1.00
H251   H     0.88514   0.57525   0.38491   0.00000  Uiso   1.00
H252   H     0.89750   0.34605   0.26622   0.00000  Uiso   1.00
N253   N     0.98241   0.51407   0.26416   0.00000  Uiso   1.00
N254   N     0.68426   0.48593   0.23584   0.00000  Uiso   1.00
O255   O     0.79464   0.57141   0.24633   0.00000  Uiso   1.00
O256   O     0.89524   0.58089   0.25586   0.00000  Uiso   1.00
O257   O     0.75848   0.49293   0.31839   0.00000  Uiso   1.00
O258   O     0.85908   0.50241   0.32793   0.00000  Uiso   1.00
O259   O     0.77142   0.41911   0.24413   0.00000  Uiso   1.00
O260   O     0.87203   0.42859   0.25367   0.00000  Uiso   1.00
O261   O     0.80758   0.49759   0.17207   0.00000  Uiso   1.00
O262   O     0.90819   0.50707   0.18160   0.00000  Uiso   1.00
I263   I     0.98721   0.41772   0.19294   0.00000  Uiso   1.00
I264   I     0.69891   0.48891   0.08052   0.00000  Uiso   1.00
C265   C     0.18119   0.93324   0.25266   0.00000  Uiso   1.00
C266   C     0.13901   0.83999   0.48799   0.00000  Uiso   1.00
C267   C     0.15489   0.85335   0.43654   0.00000  Uiso   1.00
C268   C     0.18363   0.85680   0.02027   0.00000  Uiso   1.00
C269   C     0.23563   0.89709   0.00540   0.00000  Uiso   1.00
C270   C     0.24663   0.91538   0.45659   0.00000  Uiso   1.00
C271   C     0.20793   0.89273   0.42207   0.00000  Uiso   1.00
C272   C     0.17942   0.83309   0.06600   0.00000  Uiso   1.00
C273   C     0.26453   0.89968   0.08844   0.00000  Uiso   1.00
C274   C     0.11536   0.82882   0.40184   0.00000  Uiso   1.00
C275   C     0.18826   0.98917   0.25620   0.00000  Uiso   1.00
C276   C     0.13424   0.83177   0.34676   0.00000  Uiso   1.00
C277   C     0.14332   0.67735   0.24740   0.00000  Uiso   1.00
C278   C     0.15157   0.73339   0.24871   0.00000  Uiso   1.00
C279   C     0.19954   0.83952   0.15367   0.00000  Uiso   1.00
C280   C     0.27547   0.91872   0.03989   0.00000  Uiso   1.00
C281   C     0.21745   0.85562   0.10114   0.00000  Uiso   1.00
C282   C     0.05780   0.79753   0.41981   0.00000  Uiso   1.00
C283   C     0.03840   0.79163   0.47133   0.00000  Uiso   1.00
C284   C     0.07771   0.81350   0.00551   0.00000  Uiso   1.00
Cu285  Cu    0.10710   0.82772   0.24435   0.00000  Uiso   1.00
Cu286  Cu    0.22623   0.83895   0.25564   0.00000  Uiso   1.00
H287   H     0.29304   0.91896   0.11590   0.00000  Uiso   1.00
H288   H     0.10019   0.98699   0.23838   0.00000  Uiso   1.00
H289   H     0.00514   0.87757   0.28561   0.00000  Uiso   1.00
H290   H     0.28601   0.94646   0.44469   0.00000  Uiso   1.00
H291   H     0.31398   0.95111   0.02977   0.00000  Uiso   1.00
H292   H     0.14604   0.79716   0.07511   0.00000  Uiso   1.00
H293   H     0.02682   0.77869   0.39401   0.00000  Uiso   1.00
H294   H     0.32497   0.77141   0.48484   0.00000  Uiso   1.00
H295   H     0.21847   0.90858   0.38491   0.00000  Uiso   1.00
H296   H     0.23083   0.67938   0.26622   0.00000  Uiso   1.00
N297   N     0.31574   0.84741   0.26416   0.00000  Uiso   1.00
N298   N     0.01759   0.81926   0.23584   0.00000  Uiso   1.00
O299   O     0.12797   0.90474   0.24633   0.00000  Uiso   1.00
O300   O     0.22858   0.91422   0.25586   0.00000  Uiso   1.00
O301   O     0.09181   0.82627   0.31839   0.00000  Uiso   1.00
O302   O     0.19242   0.83575   0.32793   0.00000  Uiso   1.00
O303   O     0.10476   0.75245   0.24413   0.00000  Uiso   1.00
O304   O     0.20536   0.76193   0.25367   0.00000  Uiso   1.00
O305   O     0.14092   0.83092   0.17207   0.00000  Uiso   1.00
O306   O     0.24152   0.84040   0.18160   0.00000  Uiso   1.00
I307   I     0.32055   0.75106   0.19294   0.00000  Uiso   1.00
I308   I     0.03225   0.82225   0.08052   0.00000  Uiso   1.00
C309   C     0.51452   0.93324   0.25266   0.00000  Uiso   1.00
C310   C     0.47234   0.83999   0.48799   0.00000  Uiso   1.00
C311   C     0.48823   0.85335   0.43654   0.00000  Uiso   1.00
C312   C     0.51696   0.85680   0.02027   0.00000  Uiso   1.00
C313   C     0.56896   0.89709   0.00540   0.00000  Uiso   1.00
C314   C     0.57996   0.91538   0.45659   0.00000  Uiso   1.00
C315   C     0.54126   0.89273   0.42207   0.00000  Uiso   1.00
C316   C     0.51275   0.83309   0.06600   0.00000  Uiso   1.00
C317   C     0.59786   0.89968   0.08844   0.00000  Uiso   1.00
C318   C     0.44869   0.82882   0.40184   0.00000  Uiso   1.00
C319   C     0.52159   0.98917   0.25620   0.00000  Uiso   1.00
C320   C     0.46757   0.83177   0.34676   0.00000  Uiso   1.00
C321   C     0.47666   0.67735   0.24740   0.00000  Uiso   1.00
C322   C     0.48491   0.73339   0.24871   0.00000  Uiso   1.00
C323   C     0.53287   0.83952   0.15367   0.00000  Uiso   1.00
C324   C     0.60880   0.91872   0.03989   0.00000  Uiso   1.00
C325   C     0.55078   0.85562   0.10114   0.00000  Uiso   1.00
C326   C     0.39113   0.79753   0.41981   0.00000  Uiso   1.00
C327   C     0.37174   0.79163   0.47133   0.00000  Uiso   1.00
C328   C     0.41104   0.81350   0.00551   0.00000  Uiso   1.00
Cu329  Cu    0.44043   0.82772   0.24435   0.00000  Uiso   1.00
Cu330  Cu    0.55957   0.83895   0.25564   0.00000  Uiso   1.00
H331   H     0.62637   0.91896   0.11590   0.00000  Uiso   1.00
H332   H     0.43353   0.98699   0.23838   0.00000  Uiso   1.00
H333   H     0.33847   0.87757   0.28561   0.00000  Uiso   1.00
H334   H     0.61934   0.94646   0.44469   0.00000  Uiso   1.00
H335   H     0.64732   0.95111   0.02977   0.00000  Uiso   1.00
H336   H     0.47938   0.79716   0.07511   0.00000  Uiso   1.00
H337   H     0.36016   0.77869   0.39401   0.00000  Uiso   1.00
H338   H     0.65831   0.77141   0.48484   0.00000  Uiso   1.00
H339   H     0.55180   0.90858   0.38491   0.00000  Uiso   1.00
H340   H     0.56416   0.67938   0.26622   0.00000  Uiso   1.00
N341   N     0.64908   0.84741   0.26416   0.00000  Uiso   1.00
N342   N     0.35092   0.81926   0.23584   0.00000  Uiso   1.00
O343   O     0.46131   0.90474   0.24633   0.00000  Uiso   1.00
O344   O     0.56191   0.91422   0.25586   0.00000  Uiso   1.00
O345   O     0.42515   0.82627   0.31839   0.00000  Uiso   1.00
O346   O     0.52575   0.83575   0.32793   0.00000  Uiso   1.00
O347   O     0.43809   0.75245   0.24413   0.00000  Uiso   1.00
O348   O     0.53869   0.76193   0.25367   0.00000  Uiso   1.00
O349   O     0.47425   0.83092   0.17207   0.00000  Uiso   1.00
O350   O     0.57485   0.84040   0.18160   0.00000  Uiso   1.00
I351   I     0.65388   0.75106   0.19294   0.00000  Uiso   1.00
I352   I     0.36558   0.82225   0.08052   0.00000  Uiso   1.00
C353   C     0.84786   0.93324   0.25266   0.00000  Uiso   1.00
C354   C     0.80567   0.83999   0.48799   0.00000  Uiso   1.00
C355   C     0.82156   0.85335   0.43654   0.00000  Uiso   1.00
C356   C     0.85029   0.85680   0.02027   0.00000  Uiso   1.00
C357   C     0.90229   0.89709   0.00540   0.00000  Uiso   1.00
C358   C     0.91329   0.91538   0.45659   0.00000  Uiso   1.00
C359   C     0.87460   0.89273   0.42207   0.00000  Uiso   1.00
C360   C     0.84609   0.83309   0.06600   0.00000  Uiso   1.00
C361   C     0.93119   0.89968   0.08844   0.00000  Uiso   1.00
C362   C     0.78203   0.82882   0.40184   0.00000  Uiso   1.00
C363   C     0.85493   0.98917   0.25620   0.00000  Uiso   1.00
C364   C     0.80091   0.83177   0.34676   0.00000  Uiso   1.00
C365   C     0.80999   0.67735   0.24740   0.00000  Uiso   1.00
C366   C     0.81824   0.73339   0.24871   0.00000  Uiso   1.00
C367   C     0.86621   0.83952   0.15367   0.00000  Uiso   1.00
C368   C     0.94213   0.91872   0.03989   0.00000  Uiso   1.00
C369   C     0.88411   0.85562   0.10114   0.00000  Uiso   1.00
C370   C     0.72446   0.79753   0.41981   0.00000  Uiso   1.00
C371   C     0.70507   0.79163   0.47133   0.00000  Uiso   1.00
C372   C     0.74437   0.81350   0.00551   0.00000  Uiso   1.00
Cu373  Cu    0.77377   0.82772   0.24435   0.00000  Uiso   1.00
Cu374  Cu    0.89290   0.83895   0.25564   0.00000  Uiso   1.00
H375   H     0.95970   0.91896   0.11590   0.00000  Uiso   1.00
H376   H     0.76686   0.98699   0.23838   0.00000  Uiso   1.00
H377   H     0.67181   0.87757   0.28561   0.00000  Uiso   1.00
H378   H     0.95267   0.94646   0.44469   0.00000  Uiso   1.00
H379   H     0.98065   0.95111   0.02977   0.00000  Uiso   1.00
H380   H     0.81271   0.79716   0.07511   0.00000  Uiso   1.00
H381   H     0.69349   0.77869   0.39401   0.00000  Uiso   1.00
H382   H     0.99164   0.77141   0.48484   0.00000  Uiso   1.00
H383   H     0.88514   0.90858   0.38491   0.00000  Uiso   1.00
H384   H     0.89750   0.67938   0.26622   0.00000  Uiso   1.00
N385   N     0.98241   0.84741   0.26416   0.00000  Uiso   1.00
N386   N     0.68426   0.81926   0.23584   0.00000  Uiso   1.00
O387   O     0.79464   0.90474   0.24633   0.00000  Uiso   1.00
O388   O     0.89524   0.91422   0.25586   0.00000  Uiso   1.00
O389   O     0.75848   0.82627   0.31839   0.00000  Uiso   1.00
O390   O     0.85908   0.83575   0.32793   0.00000  Uiso   1.00
O391   O     0.77142   0.75245   0.24413   0.00000  Uiso   1.00
O392   O     0.87203   0.76193   0.25367   0.00000  Uiso   1.00
O393   O     0.80758   0.83092   0.17207   0.00000  Uiso   1.00
O394   O     0.90819   0.84040   0.18160   0.00000  Uiso   1.00
I395   I     0.98721   0.75106   0.19294   0.00000  Uiso   1.00
I396   I     0.69891   0.82225   0.08052   0.00000  Uiso   1.00
C397   C     0.18119   0.26657   0.75266   0.00000  Uiso   1.00
C398   C     0.13901   0.17332   0.98799   0.00000  Uiso   1.00
C399   C     0.15489   0.18668   0.93654   0.00000  Uiso   1.00
C400   C     0.18363   0.19014   0.52027   0.00000  Uiso   1.00
C401   C     0.23563   0.23043   0.50540   0.00000  Uiso   1.00
C402   C     0.24663   0.24871   0.95659   0.00000  Uiso   1.00
C403   C     0.20793   0.22607   0.92207   0.00000  Uiso   1.00
C404   C     0.17942   0.16642   0.56600   0.00000  Uiso   1.00
C405   C     0.26453   0.23301   0.58844   0.00000  Uiso   1.00
C406   C     0.11536   0.16216   0.90184   0.00000  Uiso   1.00
C407   C     0.18826   0.32250   0.75620   0.00000  Uiso   1.00
C408   C     0.13424   0.16510   0.84676   0.00000  Uiso   1.00
C409   C     0.14332   0.01068   0.74740   0.00000  Uiso   1.00
C410   C     0.15157   0.06672   0.74871   0.00000  Uiso   1.00
C411   C     0.19954   0.17286   0.65367   0.00000  Uiso   1.00
C412   C     0.27547   0.25205   0.53989   0.00000  Uiso   1.00
C413   C     0.21745   0.18896   0.60114   0.00000  Uiso   1.00
C414   C     0.05780   0.13087   0.91981   0.00000  Uiso   1.00
C415   C     0.03840   0.12497   0.97133   0.00000  Uiso   1.00
C416   C     0.07771   0.14683   0.50551   0.00000  Uiso   1.00
Cu417  Cu    0.10710   0.16105   0.74435   0.00000  Uiso   1.00
Cu418  Cu    0.22623   0.17228   0.75564   0.00000  Uiso   1.00
H419   H     0.29304   0.25229   0.61590   0.00000  Uiso   1.00
H420   H     0.10019   0.32032   0.73838   0.00000  Uiso   1.00
H421   H     0.00514   0.21090   0.78561   0.00000  Uiso   1.00
H422   H     0.28601   0.27979   0.94469   0.00000  Uiso   1.00
H423   H     0.31398   0.28444   0.52977   0.00000  Uiso   1.00
H424   H     0.14604   0.13049   0.57511   0.00000  Uiso   1.00
H425   H     0.02682   0.11203   0.89401   0.00000  Uiso   1.00
H426   H     0.32497   0.10474   0.98484   0.00000  Uiso   1.00
H427   H     0.21847   0.24192   0.88491   0.00000  Uiso   1.00
H428   H     0.23083   0.01272   0.76622   0.00000  Uiso   1.00
N429   N     0.31574   0.18074   0.76416   0.00000  Uiso   1.00
N430   N     0.01759   0.15259   0.73584   0.00000  Uiso   1.00
O431   O     0.12797   0.23807   0.74633   0.00000  Uiso   1.00
O432   O     0.22858   0.24755   0.75586   0.00000  Uiso   1.00
O433   O     0.09181   0.15960   0.81839   0.00000  Uiso   1.00
O434   O     0.19242   0.16908   0.82793   0.00000  Uiso   1.00
O435   O     0.10476   0.08578   0.74413   0.00000  Uiso   1.00
O436   O     0.20536   0.09526   0.75367   0.00000  Uiso   1.00
O437   O     0.14092   0.16425   0.67207   0.00000  Uiso   1.00
O438   O     0.24152   0.17373   0.68160   0.00000  Uiso   1.00
I439   I     0.32055   0.08439   0.69294   0.00000  Uiso   1.00
I440   I     0.03225   0.15558   0.58052   0.00000  Uiso   1.00
C441   C     0.51452   0.26657   0.75266   0.00000  Uiso   1.00
C442   C     0.47234   0.17332   0.98799   0.00000  Uiso   1.00
C443   C     0.48823   0.18668   0.93654   0.00000  Uiso   1.00
C444   C     0.51696   0.19014   0.52027   0.00000  Uiso   1.00
C445   C     0.56896   0.23043   0.50540   0.00000  Uiso   1.00
C446   C     0.57996   0.24871   0.95659   0.00000  Uiso   1.00
C447   C     0.54126   0.22607   0.92207   0.00000  Uiso   1.00
C448   C     0.51275   0.16642   0.56600   0.00000  Uiso   1.00
C449   C     0.59786   0.23301   0.58844   0.00000  Uiso   1.00
C450   C     0.44869   0.16216   0.90184   0.00000  Uiso   1.00
C451   C     0.52159   0.32250   0.75620   0.00000  Uiso   1.00
C452   C     0.46757   0.16510   0.84676   0.00000  Uiso   1.00
C453   C     0.47666   0.01068   0.74740   0.00000  Uiso   1.00
C454   C     0.48491   0.06672   0.74871   0.00000  Uiso   1.00
C455   C     0.53287   0.17286   0.65367   0.00000  Uiso   1.00
C456   C     0.60880   0.25205   0.53989   0.00000  Uiso   1.00
C457   C     0.55078   0.18896   0.60114   0.00000  Uiso   1.00
C458   C     0.39113   0.13087   0.91981   0.00000  Uiso   1.00
C459   C     0.37174   0.12497   0.97133   0.00000  Uiso   1.00
C460   C     0.41104   0.14683   0.50551   0.00000  Uiso   1.00
Cu461  Cu    0.44043   0.16105   0.74435   0.00000  Uiso   1.00
Cu462  Cu    0.55957   0.17228   0.75564   0.00000  Uiso   1.00
H463   H     0.62637   0.25229   0.61590   0.00000  Uiso   1.00
H464   H     0.43353   0.32032   0.73838   0.00000  Uiso   1.00
H465   H     0.33847   0.21090   0.78561   0.00000  Uiso   1.00
H466   H     0.61934   0.27979   0.94469   0.00000  Uiso   1.00
H467   H     0.64732   0.28444   0.52977   0.00000  Uiso   1.00
H468   H     0.47938   0.13049   0.57511   0.00000  Uiso   1.00
H469   H     0.36016   0.11203   0.89401   0.00000  Uiso   1.00
H470   H     0.65831   0.10474   0.98484   0.00000  Uiso   1.00
H471   H     0.55180   0.24192   0.88491   0.00000  Uiso   1.00
H472   H     0.56416   0.01272   0.76622   0.00000  Uiso   1.00
N473   N     0.64908   0.18074   0.76416   0.00000  Uiso   1.00
N474   N     0.35092   0.15259   0.73584   0.00000  Uiso   1.00
O475   O     0.46131   0.23807   0.74633   0.00000  Uiso   1.00
O476   O     0.56191   0.24755   0.75586   0.00000  Uiso   1.00
O477   O     0.42515   0.15960   0.81839   0.00000  Uiso   1.00
O478   O     0.52575   0.16908   0.82793   0.00000  Uiso   1.00
O479   O     0.43809   0.08578   0.74413   0.00000  Uiso   1.00
O480   O     0.53869   0.09526   0.75367   0.00000  Uiso   1.00
O481   O     0.47425   0.16425   0.67207   0.00000  Uiso   1.00
O482   O     0.57485   0.17373   0.68160   0.00000  Uiso   1.00
I483   I     0.65388   0.08439   0.69294   0.00000  Uiso   1.00
I484   I     0.36558   0.15558   0.58052   0.00000  Uiso   1.00
C485   C     0.84786   0.26657   0.75266   0.00000  Uiso   1.00
C486   C     0.80567   0.17332   0.98799   0.00000  Uiso   1.00
C487   C     0.82156   0.18668   0.93654   0.00000  Uiso   1.00
C488   C     0.85029   0.19014   0.52027   0.00000  Uiso   1.00
C489   C     0.90229   0.23043   0.50540   0.00000  Uiso   1.00
C490   C     0.91329   0.24871   0.95659   0.00000  Uiso   1.00
C491   C     0.87460   0.22607   0.92207   0.00000  Uiso   1.00
C492   C     0.84609   0.16642   0.56600   0.00000  Uiso   1.00
C493   C     0.93119   0.23301   0.58844   0.00000  Uiso   1.00
C494   C     0.78203   0.16216   0.90184   0.00000  Uiso   1.00
C495   C     0.85493   0.32250   0.75620   0.00000  Uiso   1.00
C496   C     0.80091   0.16510   0.84676   0.00000  Uiso   1.00
C497   C     0.80999   0.01068   0.74740   0.00000  Uiso   1.00
C498   C     0.81824   0.06672   0.74871   0.00000  Uiso   1.00
C499   C     0.86621   0.17286   0.65367   0.00000  Uiso   1.00
C500   C     0.94213   0.25205   0.53989   0.00000  Uiso   1.00
C501   C     0.88411   0.18896   0.60114   0.00000  Uiso   1.00
C502   C     0.72446   0.13087   0.91981   0.00000  Uiso   1.00
C503   C     0.70507   0.12497   0.97133   0.00000  Uiso   1.00
C504   C     0.74437   0.14683   0.50551   0.00000  Uiso   1.00
Cu505  Cu    0.77377   0.16105   0.74435   0.00000  Uiso   1.00
Cu506  Cu    0.89290   0.17228   0.75564   0.00000  Uiso   1.00
H507   H     0.95970   0.25229   0.61590   0.00000  Uiso   1.00
H508   H     0.76686   0.32032   0.73838   0.00000  Uiso   1.00
H509   H     0.67181   0.21090   0.78561   0.00000  Uiso   1.00
H510   H     0.95267   0.27979   0.94469   0.00000  Uiso   1.00
H511   H     0.98065   0.28444   0.52977   0.00000  Uiso   1.00
H512   H     0.81271   0.13049   0.57511   0.00000  Uiso   1.00
H513   H     0.69349   0.11203   0.89401   0.00000  Uiso   1.00
H514   H     0.99164   0.10474   0.98484   0.00000  Uiso   1.00
H515   H     0.88514   0.24192   0.88491   0.00000  Uiso   1.00
H516   H     0.89750   0.01272   0.76622   0.00000  Uiso   1.00
N517   N     0.98241   0.18074   0.76416   0.00000  Uiso   1.00
N518   N     0.68426   0.15259   0.73584   0.00000  Uiso   1.00
O519   O     0.79464   0.23807   0.74633   0.00000  Uiso   1.00
O520   O     0.89524   0.24755   0.75586   0.00000  Uiso   1.00
O521   O     0.75848   0.15960   0.81839   0.00000  Uiso   1.00
O522   O     0.85908   0.16908   0.82793   0.00000  Uiso   1.00
O523   O     0.77142   0.08578   0.74413   0.00000  Uiso   1.00
O524   O     0.87203   0.09526   0.75367   0.00000  Uiso   1.00
O525   O     0.80758   0.16425   0.67207   0.00000  Uiso   1.00
O526   O     0.90819   0.17373   0.68160   0.00000  Uiso   1.00
I527   I     0.98721   0.08439   0.69294   0.00000  Uiso   1.00
I528   I     0.69891   0.15558   0.58052   0.00000  Uiso   1.00
C529   C     0.18119   0.59990   0.75266   0.00000  Uiso   1.00
C530   C     0.13901   0.50665   0.98799   0.00000  Uiso   1.00
C531   C     0.15489   0.52002   0.93654   0.00000  Uiso   1.00
C532   C     0.18363   0.52347   0.52027   0.00000  Uiso   1.00
C533   C     0.23563   0.56376   0.50540   0.00000  Uiso   1.00
C534   C     0.24663   0.58204   0.95659   0.00000  Uiso   1.00
C535   C     0.20793   0.55940   0.92207   0.00000  Uiso   1.00
C536   C     0.17942   0.49976   0.56600   0.00000  Uiso   1.00
C537   C     0.26453   0.56634   0.58844   0.00000  Uiso   1.00
C538   C     0.11536   0.49549   0.90184   0.00000  Uiso   1.00
C539   C     0.18826   0.65583   0.75620   0.00000  Uiso   1.00
C540   C     0.13424   0.49843   0.84676   0.00000  Uiso   1.00
C541   C     0.14332   0.34401   0.74740   0.00000  Uiso   1.00
C542   C     0.15157   0.40006   0.74871   0.00000  Uiso   1.00
C543   C     0.19954   0.50619   0.65367   0.00000  Uiso   1.00
C544   C     0.27547   0.58539   0.53989   0.00000  Uiso   1.00
C545   C     0.21745   0.52229   0.60114   0.00000  Uiso   1.00
C546   C     0.05780   0.46420   0.91981   0.00000  Uiso   1.00
C547   C     0.03840   0.45830   0.97133   0.00000  Uiso   1.00
C548   C     0.07771   0.48016   0.50551   0.00000  Uiso   1.00
Cu549  Cu    0.10710   0.49439   0.74435   0.00000  Uiso   1.00
Cu550  Cu    0.22623   0.50561   0.75564   0.00000  Uiso   1.00
H551   H     0.29304   0.58563   0.61590   0.00000  Uiso   1.00
H552   H     0.10019   0.65366   0.73838   0.00000  Uiso   1.00
H553   H     0.00514   0.54423   0.78561   0.00000  Uiso   1.00
H554   H     0.28601   0.61312   0.94469   0.00000  Uiso   1.00
H555   H     0.31398   0.61777   0.52977   0.00000  Uiso   1.00
H556   H     0.14604   0.46382   0.57511   0.00000  Uiso   1.00
H557   H     0.02682   0.44536   0.89401   0.00000  Uiso   1.00
H558   H     0.32497   0.43808   0.98484   0.00000  Uiso   1.00
H559   H     0.21847   0.57525   0.88491   0.00000  Uiso   1.00
H560   H     0.23083   0.34605   0.76622   0.00000  Uiso   1.00
N561   N     0.31574   0.51407   0.76416   0.00000  Uiso   1.00
N562   N     0.01759   0.48593   0.73584   0.00000  Uiso   1.00
O563   O     0.12797   0.57141   0.74633   0.00000  Uiso   1.00
O564   O     0.22858   0.58089   0.75586   0.00000  Uiso   1.00
O565   O     0.09181   0.49293   0.81839   0.00000  Uiso   1.00
O566   O     0.19242   0.50241   0.82793   0.00000  Uiso   1.00
O567   O     0.10476   0.41911   0.74413   0.00000  Uiso   1.00
O568   O     0.20536   0.42859   0.75367   0.00000  Uiso   1.00
O569   O     0.14092   0.49759   0.67207   0.00000  Uiso   1.00
O570   O     0.24152   0.50707   0.68160   0.00000  Uiso   1.00
I571   I     0.32055   0.41772   0.69294   0.00000  Uiso   1.00
I572   I     0.03225   0.48891   0.58052   0.00000  Uiso   1.00
C573   C     0.51452   0.59990   0.75266   0.00000  Uiso   1.00
C574   C     0.47234   0.50665   0.98799   0.00000  Uiso   1.00
C575   C     0.48823   0.52002   0.93654   0.00000  Uiso   1.00
C576   C     0.51696   0.52347   0.52027   0.00000  Uiso   1.00
C577   C     0.56896   0.56376   0.50540   0.00000  Uiso   1.00
C578   C     0.57996   0.58204   0.95659   0.00000  Uiso   1.00
C579   C     0.54126   0.55940   0.92207   0.00000  Uiso   1.00
C580   C     0.51275   0.49976   0.56600   0.00000  Uiso   1.00
C581   C     0.59786   0.56634   0.58844   0.00000  Uiso   1.00
C582   C     0.44869   0.49549   0.90184   0.00000  Uiso   1.00
C583   C     0.52159   0.65583   0.75620   0.00000  Uiso   1.00
C584   C     0.46757   0.49843   0.84676   0.00000  Uiso   1.00
C585   C     0.47666   0.34401   0.74740   0.00000  Uiso   1.00
C586   C     0.48491   0.40006   0.74871   0.00000  Uiso   1.00
C587   C     0.53287   0.50619   0.65367   0.00000  Uiso   1.00
C588   C     0.60880   0.58539   0.53989   0.00000  Uiso   1.00
C589   C     0.55078   0.52229   0.60114   0.00000  Uiso   1.00
C590   C     0.39113   0.46420   0.91981   0.00000  Uiso   1.00
C591   C     0.37174   0.45830   0.97133   0.00000  Uiso   1.00
C592   C     0.41104   0.48016   0.50551   0.00000  Uiso   1.00
Cu593  Cu    0.44043   0.49439   0.74435   0.00000  Uiso   1.00
Cu594  Cu    0.55957   0.50561   0.75564   0.00000  Uiso   1.00
H595   H     0.62637   0.58563   0.61590   0.00000  Uiso   1.00
H596   H     0.43353   0.65366   0.73838   0.00000  Uiso   1.00
H597   H     0.33847   0.54423   0.78561   0.00000  Uiso   1.00
H598   H     0.61934   0.61312   0.94469   0.00000  Uiso   1.00
H599   H     0.64732   0.61777   0.52977   0.00000  Uiso   1.00
H600   H     0.47938   0.46382   0.57511   0.00000  Uiso   1.00
H601   H     0.36016   0.44536   0.89401   0.00000  Uiso   1.00
H602   H     0.65831   0.43808   0.98484   0.00000  Uiso   1.00
H603   H     0.55180   0.57525   0.88491   0.00000  Uiso   1.00
H604   H     0.56416   0.34605   0.76622   0.00000  Uiso   1.00
N605   N     0.64908   0.51407   0.76416   0.00000  Uiso   1.00
N606   N     0.35092   0.48593   0.73584   0.00000  Uiso   1.00
O607   O     0.46131   0.57141   0.74633   0.00000  Uiso   1.00
O608   O     0.56191   0.58089   0.75586   0.00000  Uiso   1.00
O609   O     0.42515   0.49293   0.81839   0.00000  Uiso   1.00
O610   O     0.52575   0.50241   0.82793   0.00000  Uiso   1.00
O611   O     0.43809   0.41911   0.74413   0.00000  Uiso   1.00
O612   O     0.53869   0.42859   0.75367   0.00000  Uiso   1.00
O613   O     0.47425   0.49759   0.67207   0.00000  Uiso   1.00
O614   O     0.57485   0.50707   0.68160   0.00000  Uiso   1.00
I615   I     0.65388   0.41772   0.69294   0.00000  Uiso   1.00
I616   I     0.36558   0.48891   0.58052   0.00000  Uiso   1.00
C617   C     0.84786   0.59990   0.75266   0.00000  Uiso   1.00
C618   C     0.80567   0.50665   0.98799   0.00000  Uiso   1.00
C619   C     0.82156   0.52002   0.93654   0.00000  Uiso   1.00
C620   C     0.85029   0.52347   0.52027   0.00000  Uiso   1.00
C621   C     0.90229   0.56376   0.50540   0.00000  Uiso   1.00
C622   C     0.91329   0.58204   0.95659   0.00000  Uiso   1.00
C623   C     0.87460   0.55940   0.92207   0.00000  Uiso   1.00
C624   C     0.84609   0.49976   0.56600   0.00000  Uiso   1.00
C625   C     0.93119   0.56634   0.58844   0.00000  Uiso   1.00
C626   C     0.78203   0.49549   0.90184   0.00000  Uiso   1.00
C627   C     0.85493   0.65583   0.75620   0.00000  Uiso   1.00
C628   C     0.80091   0.49843   0.84676   0.00000  Uiso   1.00
C629   C     0.80999   0.34401   0.74740   0.00000  Uiso   1.00
C630   C     0.81824   0.40006   0.74871   0.00000  Uiso   1.00
C631   C     0.86621   0.50619   0.65367   0.00000  Uiso   1.00
C632   C     0.94213   0.58539   0.53989   0.00000  Uiso   1.00
C633   C     0.88411   0.52229   0.60114   0.00000  Uiso   1.00
C634   C     0.72446   0.46420   0.91981   0.00000  Uiso   1.00
C635   C     0.70507   0.45830   0.97133   0.00000  Uiso   1.00
C636   C     0.74437   0.48016   0.50551   0.00000  Uiso   1.00
Cu637  Cu    0.77377   0.49439   0.74435   0.00000  Uiso   1.00
Cu638  Cu    0.89290   0.50561   0.75564   0.00000  Uiso   1.00
H639   H     0.95970   0.58563   0.61590   0.00000  Uiso   1.00
H640   H     0.76686   0.65366   0.73838   0.00000  Uiso   1.00
H641   H     0.67181   0.54423   0.78561   0.00000  Uiso   1.00
H642   H     0.95267   0.61312   0.94469   0.00000  Uiso   1.00
H643   H     0.98065   0.61777   0.52977   0.00000  Uiso   1.00
H644   H     0.81271   0.46382   0.57511   0.00000  Uiso   1.00
H645   H     0.69349   0.44536   0.89401   0.00000  Uiso   1.00
H646   H     0.99164   0.43808   0.98484   0.00000  Uiso   1.00
H647   H     0.88514   0.57525   0.88491   0.00000  Uiso   1.00
H648   H     0.89750   0.34605   0.76622   0.00000  Uiso   1.00
N649   N     0.98241   0.51407   0.76416   0.00000  Uiso   1.00
N650   N     0.68426   0.48593   0.73584   0.00000  Uiso   1.00
O651   O     0.79464   0.57141   0.74633   0.00000  Uiso   1.00
O652   O     0.89524   0.58089   0.75586   0.00000  Uiso   1.00
O653   O     0.75848   0.49293   0.81839   0.00000  Uiso   1.00
O654   O     0.85908   0.50241   0.82793   0.00000  Uiso   1.00
O655   O     0.77142   0.41911   0.74413   0.00000  Uiso   1.00
O656   O     0.87203   0.42859   0.75367   0.00000  Uiso   1.00
O657   O     0.80758   0.49759   0.67207   0.00000  Uiso   1.00
O658   O     0.90819   0.50707   0.68160   0.00000  Uiso   1.00
I659   I     0.98721   0.41772   0.69294   0.00000  Uiso   1.00
I660   I     0.69891   0.48891   0.58052   0.00000  Uiso   1.00
C661   C     0.18119   0.93324   0.75266   0.00000  Uiso   1.00
C662   C     0.13901   0.83999   0.98799   0.00000  Uiso   1.00
C663   C     0.15489   0.85335   0.93654   0.00000  Uiso   1.00
C664   C     0.18363   0.85680   0.52027   0.00000  Uiso   1.00
C665   C     0.23563   0.89709   0.50540   0.00000  Uiso   1.00
C666   C     0.24663   0.91538   0.95659   0.00000  Uiso   1.00
C667   C     0.20793   0.89273   0.92207   0.00000  Uiso   1.00
C668   C     0.17942   0.83309   0.56600   0.00000  Uiso   1.00
C669   C     0.26453   0.89968   0.58844   0.00000  Uiso   1.00
C670   C     0.11536   0.82882   0.90184   0.00000  Uiso   1.00
C671   C     0.18826   0.98917   0.75620   0.00000  Uiso   1.00
C672   C     0.13424   0.83177   0.84676   0.00000  Uiso   1.00
C673   C     0.14332   0.67735   0.74740   0.00000  Uiso   1.00
C674   C     0.15157   0.73339   0.74871   0.00000  Uiso   1.00
C675   C     0.19954   0.83952   0.65367   0.00000  Uiso   1.00
C676   C     0.27547   0.91872   0.53989   0.00000  Uiso   1.00
C677   C     0.21745   0.85562   0.60114   0.00000  Uiso   1.00
C678   C     0.05780   0.79753   0.91981   0.00000  Uiso   1.00
C679   C     0.03840   0.79163   0.97133   0.00000  Uiso   1.00
C680   C     0.07771   0.81350   0.50551   0.00000  Uiso   1.00
Cu681  Cu    0.10710   0.82772   0.74435   0.00000  Uiso   1.00
Cu682  Cu    0.22623   0.83895   0.75564   0.00000  Uiso   1.00
H683   H     0.29304   0.91896   0.61590   0.00000  Uiso   1.00
H684   H     0.10019   0.98699   0.73838   0.00000  Uiso   1.00
H685   H     0.00514   0.87757   0.78561   0.00000  Uiso   1.00
H686   H     0.28601   0.94646   0.94469   0.00000  Uiso   1.00
H687   H     0.31398   0.95111   0.52977   0.00000  Uiso   1.00
H688   H     0.14604   0.79716   0.57511   0.00000  Uiso   1.00
H689   H     0.02682   0.77869   0.89401   0.00000  Uiso   1.00
H690   H     0.32497   0.77141   0.98484   0.00000  Uiso   1.00
H691   H     0.21847   0.90858   0.88491   0.00000  Uiso   1.00
H692   H     0.23083   0.67938   0.76622   0.00000  Uiso   1.00
N693   N     0.31574   0.84741   0.76416   0.00000  Uiso   1.00
N694   N     0.01759   0.81926   0.73584   0.00000  Uiso   1.00
O695   O     0.12797   0.90474   0.74633   0.00000  Uiso   1.00
O696   O     0.22858   0.91422   0.75586   0.00000  Uiso   1.00
O697   O     0.09181   0.82627   0.81839   0.00000  Uiso   1.00
O698   O     0.19242   0.83575   0.82793   0.00000  Uiso   1.00
O699   O     0.10476   0.75245   0.74413   0.00000  Uiso   1.00
O700   O     0.20536   0.76193   0.75367   0.00000  Uiso   1.00
O701   O     0.14092   0.83092   0.67207   0.00000  Uiso   1.00
O702   O     0.24152   0.84040   0.68160   0.00000  Uiso   1.00
I703   I     0.32055   0.75106   0.69294   0.00000  Uiso   1.00
I704   I     0.03225   0.82225   0.58052   0.00000  Uiso   1.00
C705   C     0.51452   0.93324   0.75266   0.00000  Uiso   1.00
C706   C     0.47234   0.83999   0.98799   0.00000  Uiso   1.00
C707   C     0.48823   0.85335   0.93654   0.00000  Uiso   1.00
C708   C     0.51696   0.85680   0.52027   0.00000  Uiso   1.00
C709   C     0.56896   0.89709   0.50540   0.00000  Uiso   1.00
C710   C     0.57996   0.91538   0.95659   0.00000  Uiso   1.00
C711   C     0.54126   0.89273   0.92207   0.00000  Uiso   1.00
C712   C     0.51275   0.83309   0.56600   0.00000  Uiso   1.00
C713   C     0.59786   0.89968   0.58844   0.00000  Uiso   1.00
C714   C     0.44869   0.82882   0.90184   0.00000  Uiso   1.00
C715   C     0.52159   0.98917   0.75620   0.00000  Uiso   1.00
C716   C     0.46757   0.83177   0.84676   0.00000  Uiso   1.00
C717   C     0.47666   0.67735   0.74740   0.00000  Uiso   1.00
C718   C     0.48491   0.73339   0.74871   0.00000  Uiso   1.00
C719   C     0.53287   0.83952   0.65367   0.00000  Uiso   1.00
C720   C     0.60880   0.91872   0.53989   0.00000  Uiso   1.00
C721   C     0.55078   0.85562   0.60114   0.00000  Uiso   1.00
C722   C     0.39113   0.79753   0.91981   0.00000  Uiso   1.00
C723   C     0.37174   0.79163   0.97133   0.00000  Uiso   1.00
C724   C     0.41104   0.81350   0.50551   0.00000  Uiso   1.00
Cu725  Cu    0.44043   0.82772   0.74435   0.00000  Uiso   1.00
Cu726  Cu    0.55957   0.83895   0.75564   0.00000  Uiso   1.00
H727   H     0.62637   0.91896   0.61590   0.00000  Uiso   1.00
H728   H     0.43353   0.98699   0.73838   0.00000  Uiso   1.00
H729   H     0.33847   0.87757   0.78561   0.00000  Uiso   1.00
H730   H     0.61934   0.94646   0.94469   0.00000  Uiso   1.00
H731   H     0.64732   0.95111   0.52977   0.00000  Uiso   1.00
H732   H     0.47938   0.79716   0.57511   0.00000  Uiso   1.00
H733   H     0.36016   0.77869   0.89401   0.00000  Uiso   1.00
H734   H     0.65831   0.77141   0.98484   0.00000  Uiso   1.00
H735   H     0.55180   0.90858   0.88491   0.00000  Uiso   1.00
H736   H     0.56416   0.67938   0.76622   0.00000  Uiso   1.00
N737   N     0.64908   0.84741   0.76416   0.00000  Uiso   1.00
N738   N     0.35092   0.81926   0.73584   0.00000  Uiso   1.00
O739   O     0.46131   0.90474   0.74633   0.00000  Uiso   1.00
O740   O     0.56191   0.91422   0.75586   0.00000  Uiso   1.00
O741   O     0.42515   0.82627   0.81839   0.00000  Uiso   1.00
O742   O     0.52575   0.83575   0.82793   0.00000  Uiso   1.00
O743   O     0.43809   0.75245   0.74413   0.00000  Uiso   1.00
O744   O     0.53869   0.76193   0.75367   0.00000  Uiso   1.00
O745   O     0.47425   0.83092   0.67207   0.00000  Uiso   1.00
O746   O     0.57485   0.84040   0.68160   0.00000  Uiso   1.00
I747   I     0.65388   0.75106   0.69294   0.00000  Uiso   1.00
I748   I     0.36558   0.82225   0.58052   0.00000  Uiso   1.00
C749   C     0.84786   0.93324   0.75266   0.00000  Uiso   1.00
C750   C     0.80567   0.83999   0.98799   0.00000  Uiso   1.00
C751   C     0.82156   0.85335   0.93654   0.00000  Uiso   1.00
C752   C     0.85029   0.85680   0.52027   0.00000  Uiso   1.00
C753   C     0.90229   0.89709   0.50540   0.00000  Uiso   1.00
C754   C     0.91329   0.91538   0.95659   0.00000  Uiso   1.00
C755   C     0.87460   0.89273   0.92207   0.00000  Uiso   1.00
C756   C     0.84609   0.83309   0.56600   0.00000  Uiso   1.00
C757   C     0.93119   0.89968   0.58844   0.00000  Uiso   1.00
C758   C     0.78203   0.82882   0.90184   0.00000  Uiso   1.00
C759   C     0.85493   0.98917   0.75620   0.00000  Uiso   1.00
C760   C     0.80091   0.83177   0.84676   0.00000  Uiso   1.00
C761   C     0.80999   0.67735   0.74740   0.00000  Uiso   1.00
C762   C     0.81824   0.73339   0.74871   0.00000  Uiso   1.00
C763   C     0.86621   0.83952   0.65367   0.00000  Uiso   1.00
C764   C     0.94213   0.91872   0.53989   0.00000  Uiso   1.00
C765   C     0.88411   0.85562   0.60114   0.00000  Uiso   1.00
C766   C     0.72446   0.79753   0.91981   0.00000  Uiso   1.00
C767   C     0.70507   0.79163   0.97133   0.00000  Uiso   1.00
C768   C     0.74437   0.81350   0.50551   0.00000  Uiso   1.00
Cu769  Cu    0.77377   0.82772   0.74435   0.00000  Uiso   1.00
Cu770  Cu    0.89290   0.83895   0.75564   0.00000  Uiso   1.00
H771   H     0.95970   0.91896   0.61590   0.00000  Uiso   1.00
H772   H     0.76686   0.98699   0.73838   0.00000  Uiso   1.00
H773   H     0.67181   0.87757   0.78561   0.00000  Uiso   1.00
H774   H     0.95267   0.94646   0.94469   0.00000  Uiso   1.00
H775   H     0.98065   0.95111   0.52977   0.00000  Uiso   1.00
H776   H     0.81271   0.79716   0.57511   0.00000  Uiso   1.00
H777   H     0.69349   0.77869   0.89401   0.00000  Uiso   1.00
H778   H     0.99164   0.77141   0.98484   0.00000  Uiso   1.00
H779   H     0.88514   0.90858   0.88491   0.00000  Uiso   1.00
H780   H     0.89750   0.67938   0.76622   0.00000  Uiso   1.00
N781   N     0.98241   0.84741   0.76416   0.00000  Uiso   1.00
N782   N     0.68426   0.81926   0.73584   0.00000  Uiso   1.00
O783   O     0.79464   0.90474   0.74633   0.00000  Uiso   1.00
O784   O     0.89524   0.91422   0.75586   0.00000  Uiso   1.00
O785   O     0.75848   0.82627   0.81839   0.00000  Uiso   1.00
O786   O     0.85908   0.83575   0.82793   0.00000  Uiso   1.00
O787   O     0.77142   0.75245   0.74413   0.00000  Uiso   1.00
O788   O     0.87203   0.76193   0.75367   0.00000  Uiso   1.00
O789   O     0.80758   0.83092   0.67207   0.00000  Uiso   1.00
O790   O     0.90819   0.84040   0.68160   0.00000  Uiso   1.00
I791   I     0.98721   0.75106   0.69294   0.00000  Uiso   1.00
I792   I     0.69891   0.82225   0.58052   0.00000  Uiso   1.00
loop_
_geom_bond_atom_site_label_1
_geom_bond_atom_site_label_2
_geom_bond_distance
_geom_bond_site_symmetry_2
_ccdc_geom_bond_type
C1     O35     1.298   .     A
C1     O36     1.293   .     A
C1     C11     1.426   .     S
C2     C3      1.416   .     A
C2     C400    1.420   .     S
C2     C416    1.419   .     S
C3     C7      1.414   .     A
C3     C10     1.420   .     A
C4     C8      1.403   .     A
C4     C5      1.415   .     A
C4     C398    1.420   1_554 S
C5     C16     1.404   .     A
C5     C402    1.395   1_554 S
C6     C7      1.393   .     A
C6     H26     1.084   .     S
C6     C401    1.395   .     S
C7     H31     1.080   .     S
C8     H28     1.081   .     S
C8     C17     1.395   .     A
C9     C17     1.402   .     A
C9     C16     1.397   .     A
C9     H23     1.083   .     S
C10    C12     1.464   .     S
C10    C18     1.400   .     A
C11    C145    1.327   .     S
C11    H164    1.086   .     S
C12    O38     1.302   .     A
C12    O37     1.307   .     A
C13    C14     1.428   .     S
C13    C275    1.327   1_545 S
C13    H288    1.088   1_545 S
C14    O40     1.300   .     A
C14    O39     1.292   .     A
C15    O42     1.308   .     A
C15    O41     1.301   .     A
C15    C17     1.466   .     S
C16    H27     1.084   .     S
C18    H29     1.084   .     S
C18    C19     1.382   .     A
C19    C416    1.391   .     S
C19    H118    1.083   1_455 S
C20    I44     2.099   .     S
C20    C398    1.419   1_554 S
C20    C415    1.391   1_554 S
Cu21   O35     1.955   .     S
Cu21   O39     1.948   .     S
Cu21   Cu22    2.712   .     S
Cu21   O41     1.950   .     S
Cu21   O37     1.954   .     S
Cu21   N34     2.038   .     S
Cu22   O36     1.948   .     S
Cu22   O40     1.955   .     S
Cu22   O42     1.954   .     S
Cu22   O38     1.950   .     S
Cu22   N33     2.038   .     S
H24    C145    1.088   .     S
H25    N121    1.029   1_455 S
H30    C63     1.083   .     S
H32    C275    1.086   1_545 S
N33    H69     1.029   .     S
N33    N78     1.293   .     S
N34    N121    1.293   1_455 S
N34    I131    2.079   1_455 S
I43    N78     2.079   .     S
C45    O79     1.298   .     A
C45    O80     1.293   .     A
C45    C55     1.426   .     S
C46    C47     1.416   .     A
C46    C444    1.420   .     S
C46    C460    1.419   .     S
C47    C51     1.414   .     A
C47    C54     1.420   .     A
C48    C52     1.403   .     A
C48    C49     1.415   .     A
C48    C442    1.420   1_554 S
C49    C60     1.404   .     A
C49    C446    1.395   1_554 S
C50    C51     1.393   .     A
C50    H70     1.084   .     S
C50    C445    1.395   .     S
C51    H75     1.080   .     S
C52    H72     1.081   .     S
C52    C61     1.395   .     A
C53    C61     1.402   .     A
C53    C60     1.397   .     A
C53    H67     1.083   .     S
C54    C56     1.464   .     S
C54    C62     1.400   .     A
C55    C189    1.327   .     S
C55    H208    1.086   .     S
C56    O82     1.302   .     A
C56    O81     1.307   .     A
C57    C58     1.428   .     S
C57    C319    1.327   1_545 S
C57    H332    1.088   1_545 S
C58    O84     1.300   .     A
C58    O83     1.292   .     A
C59    O86     1.308   .     A
C59    O85     1.301   .     A
C59    C61     1.466   .     S
C60    H71     1.084   .     S
C62    H73     1.084   .     S
C62    C63     1.382   .     A
C63    C460    1.391   .     S
C64    I88     2.099   .     S
C64    C442    1.419   1_554 S
C64    C459    1.391   1_554 S
Cu65   O79     1.955   .     S
Cu65   O83     1.948   .     S
Cu65   Cu66    2.712   .     S
Cu65   O85     1.950   .     S
Cu65   O81     1.954   .     S
Cu65   N78     2.038   .     S
Cu66   O80     1.948   .     S
Cu66   O84     1.955   .     S
Cu66   O86     1.954   .     S
Cu66   O82     1.950   .     S
Cu66   N77     2.038   .     S
H68    C189    1.088   .     S
H74    C107    1.083   .     S
H76    C319    1.086   1_545 S
N77    H113    1.029   .     S
N77    N122    1.293   .     S
I87    N122    2.079   .     S
C89    O123    1.298   .     A
C89    O124    1.293   .     A
C89    C99     1.426   .     S
C90    C91     1.416   .     A
C90    C488    1.420   .     S
C90    C504    1.419   .     S
C91    C95     1.414   .     A
C91    C98     1.420   .     A
C92    C96     1.403   .     A
C92    C93     1.415   .     A
C92    C486    1.420   1_554 S
C93    C104    1.404   .     A
C93    C490    1.395   1_554 S
C94    C95     1.393   .     A
C94    H114    1.084   .     S
C94    C489    1.395   .     S
C95    H119    1.080   .     S
C96    H116    1.081   .     S
C96    C105    1.395   .     A
C97    C105    1.402   .     A
C97    C104    1.397   .     A
C97    H111    1.083   .     S
C98    C100    1.464   .     S
C98    C106    1.400   .     A
C99    C233    1.327   .     S
C99    H252    1.086   .     S
C100   O126    1.302   .     A
C100   O125    1.307   .     A
C101   C102    1.428   .     S
C101   C363    1.327   1_545 S
C101   H376    1.088   1_545 S
C102   O128    1.300   .     A
C102   O127    1.292   .     A
C103   O130    1.308   .     A
C103   O129    1.301   .     A
C103   C105    1.466   .     S
C104   H115    1.084   .     S
C106   H117    1.084   .     S
C106   C107    1.382   .     A
C107   C504    1.391   .     S
C108   I132    2.099   .     S
C108   C486    1.419   1_554 S
C108   C503    1.391   1_554 S
Cu109  O123    1.955   .     S
Cu109  O127    1.948   .     S
Cu109  Cu110   2.712   .     S
Cu109  O129    1.950   .     S
Cu109  O125    1.954   .     S
Cu109  N122    2.038   .     S
Cu110  O124    1.948   .     S
Cu110  O128    1.955   .     S
Cu110  O130    1.954   .     S
Cu110  O126    1.950   .     S
Cu110  N121    2.038   .     S
H112   C233    1.088   .     S
H118   C19     1.083   1_655 S
H120   C363    1.086   1_545 S
N121   H25     1.029   1_655 S
N121   N34     1.293   1_655 S
I131   N34     2.079   1_655 S
C133   O167    1.298   .     A
C133   O168    1.293   .     A
C133   C143    1.426   .     S
C134   C135    1.416   .     A
C134   C532    1.420   .     S
C134   C548    1.419   .     S
C135   C139    1.414   .     A
C135   C142    1.420   .     A
C136   C140    1.403   .     A
C136   C137    1.415   .     A
C136   C530    1.420   1_554 S
C137   C148    1.404   .     A
C137   C534    1.395   1_554 S
C138   C139    1.393   .     A
C138   H158    1.084   .     S
C138   C533    1.395   .     S
C139   H163    1.080   .     S
C140   H160    1.081   .     S
C140   C149    1.395   .     A
C141   C149    1.402   .     A
C141   C148    1.397   .     A
C141   H155    1.083   .     S
C142   C144    1.464   .     S
C142   C150    1.400   .     A
C143   C277    1.327   .     S
C143   H296    1.086   .     S
C144   O170    1.302   .     A
C144   O169    1.307   .     A
C145   C146    1.428   .     S
C146   O172    1.300   .     A
C146   O171    1.292   .     A
C147   O174    1.308   .     A
C147   O173    1.301   .     A
C147   C149    1.466   .     S
C148   H159    1.084   .     S
C150   H161    1.084   .     S
C150   C151    1.382   .     A
C151   C548    1.391   .     S
C151   H250    1.083   1_455 S
C152   I176    2.099   .     S
C152   C530    1.419   1_554 S
C152   C547    1.391   1_554 S
Cu153  O167    1.955   .     S
Cu153  O171    1.948   .     S
Cu153  Cu154   2.712   .     S
Cu153  O173    1.950   .     S
Cu153  O169    1.954   .     S
Cu153  N166    2.038   .     S
Cu154  O168    1.948   .     S
Cu154  O172    1.955   .     S
Cu154  O174    1.954   .     S
Cu154  O170    1.950   .     S
Cu154  N165    2.038   .     S
H156   C277    1.088   .     S
H157   N253    1.029   1_455 S
H162   C195    1.083   .     S
N165   H201    1.029   .     S
N165   N210    1.293   .     S
N166   N253    1.293   1_455 S
N166   I263    2.079   1_455 S
I175   N210    2.079   .     S
C177   O211    1.298   .     A
C177   O212    1.293   .     A
C177   C187    1.426   .     S
C178   C179    1.416   .     A
C178   C576    1.420   .     S
C178   C592    1.419   .     S
C179   C183    1.414   .     A
C179   C186    1.420   .     A
C180   C184    1.403   .     A
C180   C181    1.415   .     A
C180   C574    1.420   1_554 S
C181   C192    1.404   .     A
C181   C578    1.395   1_554 S
C182   C183    1.393   .     A
C182   H202    1.084   .     S
C182   C577    1.395   .     S
C183   H207    1.080   .     S
C184   H204    1.081   .     S
C184   C193    1.395   .     A
C185   C193    1.402   .     A
C185   C192    1.397   .     A
C185   H199    1.083   .     S
C186   C188    1.464   .     S
C186   C194    1.400   .     A
C187   C321    1.327   .     S
C187   H340    1.086   .     S
C188   O214    1.302   .     A
C188   O213    1.307   .     A
C189   C190    1.428   .     S
C190   O216    1.300   .     A
C190   O215    1.292   .     A
C191   O218    1.308   .     A
C191   O217    1.301   .     A
C191   C193    1.466   .     S
C192   H203    1.084   .     S
C194   H205    1.084   .     S
C194   C195    1.382   .     A
C195   C592    1.391   .     S
C196   I220    2.099   .     S
C196   C574    1.419   1_554 S
C196   C591    1.391   1_554 S
Cu197  O211    1.955   .     S
Cu197  O215    1.948   .     S
Cu197  Cu198   2.712   .     S
Cu197  O217    1.950   .     S
Cu197  O213    1.954   .     S
Cu197  N210    2.038   .     S
Cu198  O212    1.948   .     S
Cu198  O216    1.955   .     S
Cu198  O218    1.954   .     S
Cu198  O214    1.950   .     S
Cu198  N209    2.038   .     S
H200   C321    1.088   .     S
H206   C239    1.083   .     S
N209   H245    1.029   .     S
N209   N254    1.293   .     S
I219   N254    2.079   .     S
C221   O255    1.298   .     A
C221   O256    1.293   .     A
C221   C231    1.426   .     S
C222   C223    1.416   .     A
C222   C620    1.420   .     S
C222   C636    1.419   .     S
C223   C227    1.414   .     A
C223   C230    1.420   .     A
C224   C228    1.403   .     A
C224   C225    1.415   .     A
C224   C618    1.420   1_554 S
C225   C236    1.404   .     A
C225   C622    1.395   1_554 S
C226   C227    1.393   .     A
C226   H246    1.084   .     S
C226   C621    1.395   .     S
C227   H251    1.080   .     S
C228   H248    1.081   .     S
C228   C237    1.395   .     A
C229   C237    1.402   .     A
C229   C236    1.397   .     A
C229   H243    1.083   .     S
C230   C232    1.464   .     S
C230   C238    1.400   .     A
C231   C365    1.327   .     S
C231   H384    1.086   .     S
C232   O258    1.302   .     A
C232   O257    1.307   .     A
C233   C234    1.428   .     S
C234   O260    1.300   .     A
C234   O259    1.292   .     A
C235   O262    1.308   .     A
C235   O261    1.301   .     A
C235   C237    1.466   .     S
C236   H247    1.084   .     S
C238   H249    1.084   .     S
C238   C239    1.382   .     A
C239   C636    1.391   .     S
C240   I264    2.099   .     S
C240   C618    1.419   1_554 S
C240   C635    1.391   1_554 S
Cu241  O255    1.955   .     S
Cu241  O259    1.948   .     S
Cu241  Cu242   2.712   .     S
Cu241  O261    1.950   .     S
Cu241  O257    1.954   .     S
Cu241  N254    2.038   .     S
Cu242  O256    1.948   .     S
Cu242  O260    1.955   .     S
Cu242  O262    1.954   .     S
Cu242  O258    1.950   .     S
Cu242  N253    2.038   .     S
H244   C365    1.088   .     S
H250   C151    1.083   1_655 S
N253   H157    1.029   1_655 S
N253   N166    1.293   1_655 S
I263   N166    2.079   1_655 S
C265   O299    1.298   .     A
C265   O300    1.293   .     A
C265   C275    1.426   .     S
C266   C267    1.416   .     A
C266   C664    1.420   .     S
C266   C680    1.419   .     S
C267   C271    1.414   .     A
C267   C274    1.420   .     A
C268   C272    1.403   .     A
C268   C269    1.415   .     A
C268   C662    1.420   1_554 S
C269   C280    1.404   .     A
C269   C666    1.395   1_554 S
C270   C271    1.393   .     A
C270   H290    1.084   .     S
C270   C665    1.395   .     S
C271   H295    1.080   .     S
C272   H292    1.081   .     S
C272   C281    1.395   .     A
C273   C281    1.402   .     A
C273   C280    1.397   .     A
C273   H287    1.083   .     S
C274   C276    1.464   .     S
C274   C282    1.400   .     A
C275   C13     1.327   1_565 S
C275   H32     1.086   1_565 S
C276   O302    1.302   .     A
C276   O301    1.307   .     A
C277   C278    1.428   .     S
C278   O304    1.300   .     A
C278   O303    1.292   .     A
C279   O306    1.308   .     A
C279   O305    1.301   .     A
C279   C281    1.466   .     S
C280   H291    1.084   .     S
C282   H293    1.084   .     S
C282   C283    1.382   .     A
C283   C680    1.391   .     S
C283   H382    1.083   1_455 S
C284   I308    2.099   .     S
C284   C662    1.419   1_554 S
C284   C679    1.391   1_554 S
Cu285  O299    1.955   .     S
Cu285  O303    1.948   .     S
Cu285  Cu286   2.712   .     S
Cu285  O305    1.950   .     S
Cu285  O301    1.954   .     S
Cu285  N298    2.038   .     S
Cu286  O300    1.948   .     S
Cu286  O304    1.955   .     S
Cu286  O306    1.954   .     S
Cu286  O302    1.950   .     S
Cu286  N297    2.038   .     S
H288   C13     1.088   1_565 S
H289   N385    1.029   1_455 S
H294   C327    1.083   .     S
N297   H333    1.029   .     S
N297   N342    1.293   .     S
N298   N385    1.293   1_455 S
N298   I395    2.079   1_455 S
I307   N342    2.079   .     S
C309   O343    1.298   .     A
C309   O344    1.293   .     A
C309   C319    1.426   .     S
C310   C311    1.416   .     A
C310   C708    1.420   .     S
C310   C724    1.419   .     S
C311   C315    1.414   .     A
C311   C318    1.420   .     A
C312   C316    1.403   .     A
C312   C313    1.415   .     A
C312   C706    1.420   1_554 S
C313   C324    1.404   .     A
C313   C710    1.395   1_554 S
C314   C315    1.393   .     A
C314   H334    1.084   .     S
C314   C709    1.395   .     S
C315   H339    1.080   .     S
C316   H336    1.081   .     S
C316   C325    1.395   .     A
C317   C325    1.402   .     A
C317   C324    1.397   .     A
C317   H331    1.083   .     S
C318   C320    1.464   .     S
C318   C326    1.400   .     A
C319   C57     1.327   1_565 S
C319   H76     1.086   1_565 S
C320   O346    1.302   .     A
C320   O345    1.307   .     A
C321   C322    1.428   .     S
C322   O348    1.300   .     A
C322   O347    1.292   .     A
C323   O350    1.308   .     A
C323   O349    1.301   .     A
C323   C325    1.466   .     S
C324   H335    1.084   .     S
C326   H337    1.084   .     S
C326   C327    1.382   .     A
C327   C724    1.391   .     S
C328   I352    2.099   .     S
C328   C706    1.419   1_554 S
C328   C723    1.391   1_554 S
Cu329  O343    1.955   .     S
Cu329  O347    1.948   .     S
Cu329  Cu330   2.712   .     S
Cu329  O349    1.950   .     S
Cu329  O345    1.954   .     S
Cu329  N342    2.038   .     S
Cu330  O344    1.948   .     S
Cu330  O348    1.955   .     S
Cu330  O350    1.954   .     S
Cu330  O346    1.950   .     S
Cu330  N341    2.038   .     S
H332   C57     1.088   1_565 S
H338   C371    1.083   .     S
N341   H377    1.029   .     S
N341   N386    1.293   .     S
I351   N386    2.079   .     S
C353   O387    1.298   .     A
C353   O388    1.293   .     A
C353   C363    1.426   .     S
C354   C355    1.416   .     A
C354   C752    1.420   .     S
C354   C768    1.419   .     S
C355   C359    1.414   .     A
C355   C362    1.420   .     A
C356   C360    1.403   .     A
C356   C357    1.415   .     A
C356   C750    1.420   1_554 S
C357   C368    1.404   .     A
C357   C754    1.395   1_554 S
C358   C359    1.393   .     A
C358   H378    1.084   .     S
C358   C753    1.395   .     S
C359   H383    1.080   .     S
C360   H380    1.081   .     S
C360   C369    1.395   .     A
C361   C369    1.402   .     A
C361   C368    1.397   .     A
C361   H375    1.083   .     S
C362   C364    1.464   .     S
C362   C370    1.400   .     A
C363   C101    1.327   1_565 S
C363   H120    1.086   1_565 S
C364   O390    1.302   .     A
C364   O389    1.307   .     A
C365   C366    1.428   .     S
C366   O392    1.300   .     A
C366   O391    1.292   .     A
C367   O394    1.308   .     A
C367   O393    1.301   .     A
C367   C369    1.466   .     S
C368   H379    1.084   .     S
C370   H381    1.084   .     S
C370   C371    1.382   .     A
C371   C768    1.391   .     S
C372   I396    2.099   .     S
C372   C750    1.419   1_554 S
C372   C767    1.391   1_554 S
Cu373  O387    1.955   .     S
Cu373  O391    1.948   .     S
Cu373  Cu374   2.712   .     S
Cu373  O393    1.950   .     S
Cu373  O389    1.954   .     S
Cu373  N386    2.038   .     S
Cu374  O388    1.948   .     S
Cu374  O392    1.955   .     S
Cu374  O394    1.954   .     S
Cu374  O390    1.950   .     S
Cu374  N385    2.038   .     S
H376   C101    1.088   1_565 S
H382   C283    1.083   1_655 S
N385   H289    1.029   1_655 S
N385   N298    1.293   1_655 S
I395   N298    2.079   1_655 S
C397   O431    1.298   .     A
C397   O432    1.293   .     A
C397   C407    1.426   .     S
C398   C399    1.416   .     A
C398   C4      1.420   1_556 S
C398   C20     1.419   1_556 S
C399   C403    1.414   .     A
C399   C406    1.420   .     A
C400   C404    1.403   .     A
C400   C401    1.415   .     A
C401   C412    1.404   .     A
C402   C403    1.393   .     A
C402   H422    1.084   .     S
C402   C5      1.395   1_556 S
C403   H427    1.080   .     S
C404   H424    1.081   .     S
C404   C413    1.395   .     A
C405   C413    1.402   .     A
C405   C412    1.397   .     A
C405   H419    1.083   .     S
C406   C408    1.464   .     S
C406   C414    1.400   .     A
C407   C541    1.327   .     S
C407   H560    1.086   .     S
C408   O434    1.302   .     A
C408   O433    1.307   .     A
C409   C410    1.428   .     S
C409   C671    1.327   1_545 S
C409   H684    1.088   1_545 S
C410   O436    1.300   .     A
C410   O435    1.292   .     A
C411   O438    1.308   .     A
C411   O437    1.301   .     A
C411   C413    1.466   .     S
C412   H423    1.084   .     S
C414   H425    1.084   .     S
C414   C415    1.382   .     A
C415   C20     1.391   1_556 S
C415   H514    1.083   1_455 S
C416   I440    2.099   .     S
Cu417  O431    1.955   .     S
Cu417  O435    1.948   .     S
Cu417  Cu418   2.712   .     S
Cu417  O437    1.950   .     S
Cu417  O433    1.954   .     S
Cu417  N430    2.038   .     S
Cu418  O432    1.948   .     S
Cu418  O436    1.955   .     S
Cu418  O438    1.954   .     S
Cu418  O434    1.950   .     S
Cu418  N429    2.038   .     S
H420   C541    1.088   .     S
H421   N517    1.029   1_455 S
H426   C459    1.083   .     S
H428   C671    1.086   1_545 S
N429   H465    1.029   .     S
N429   N474    1.293   .     S
N430   N517    1.293   1_455 S
N430   I527    2.079   1_455 S
I439   N474    2.079   .     S
C441   O475    1.298   .     A
C441   O476    1.293   .     A
C441   C451    1.426   .     S
C442   C443    1.416   .     A
C442   C48     1.420   1_556 S
C442   C64     1.419   1_556 S
C443   C447    1.414   .     A
C443   C450    1.420   .     A
C444   C448    1.403   .     A
C444   C445    1.415   .     A
C445   C456    1.404   .     A
C446   C447    1.393   .     A
C446   H466    1.084   .     S
C446   C49     1.395   1_556 S
C447   H471    1.080   .     S
C448   H468    1.081   .     S
C448   C457    1.395   .     A
C449   C457    1.402   .     A
C449   C456    1.397   .     A
C449   H463    1.083   .     S
C450   C452    1.464   .     S
C450   C458    1.400   .     A
C451   C585    1.327   .     S
C451   H604    1.086   .     S
C452   O478    1.302   .     A
C452   O477    1.307   .     A
C453   C454    1.428   .     S
C453   C715    1.327   1_545 S
C453   H728    1.088   1_545 S
C454   O480    1.300   .     A
C454   O479    1.292   .     A
C455   O482    1.308   .     A
C455   O481    1.301   .     A
C455   C457    1.466   .     S
C456   H467    1.084   .     S
C458   H469    1.084   .     S
C458   C459    1.382   .     A
C459   C64     1.391   1_556 S
C460   I484    2.099   .     S
Cu461  O475    1.955   .     S
Cu461  O479    1.948   .     S
Cu461  Cu462   2.712   .     S
Cu461  O481    1.950   .     S
Cu461  O477    1.954   .     S
Cu461  N474    2.038   .     S
Cu462  O476    1.948   .     S
Cu462  O480    1.955   .     S
Cu462  O482    1.954   .     S
Cu462  O478    1.950   .     S
Cu462  N473    2.038   .     S
H464   C585    1.088   .     S
H470   C503    1.083   .     S
H472   C715    1.086   1_545 S
N473   H509    1.029   .     S
N473   N518    1.293   .     S
I483   N518    2.079   .     S
C485   O519    1.298   .     A
C485   O520    1.293   .     A
C485   C495    1.426   .     S
C486   C487    1.416   .     A
C486   C92     1.420   1_556 S
C486   C108    1.419   1_556 S
C487   C491    1.414   .     A
C487   C494    1.420   .     A
C488   C492    1.403   .     A
C488   C489    1.415   .     A
C489   C500    1.404   .     A
C490   C491    1.393   .     A
C490   H510    1.084   .     S
C490   C93     1.395   1_556 S
C491   H515    1.080   .     S
C492   H512    1.081   .     S
C492   C501    1.395   .     A
C493   C501    1.402   .     A
C493   C500    1.397   .     A
C493   H507    1.083   .     S
C494   C496    1.464   .     S
C494   C502    1.400   .     A
C495   C629    1.327   .     S
C495   H648    1.086   .     S
C496   O522    1.302   .     A
C496   O521    1.307   .     A
C497   C498    1.428   .     S
C497   C759    1.327   1_545 S
C497   H772    1.088   1_545 S
C498   O524    1.300   .     A
C498   O523    1.292   .     A
C499   O526    1.308   .     A
C499   O525    1.301   .     A
C499   C501    1.466   .     S
C500   H511    1.084   .     S
C502   H513    1.084   .     S
C502   C503    1.382   .     A
C503   C108    1.391   1_556 S
C504   I528    2.099   .     S
Cu505  O519    1.955   .     S
Cu505  O523    1.948   .     S
Cu505  Cu506   2.712   .     S
Cu505  O525    1.950   .     S
Cu505  O521    1.954   .     S
Cu505  N518    2.038   .     S
Cu506  O520    1.948   .     S
Cu506  O524    1.955   .     S
Cu506  O526    1.954   .     S
Cu506  O522    1.950   .     S
Cu506  N517    2.038   .     S
H508   C629    1.088   .     S
H514   C415    1.083   1_655 S
H516   C759    1.086   1_545 S
N517   H421    1.029   1_655 S
N517   N430    1.293   1_655 S
I527   N430    2.079   1_655 S
C529   O563    1.298   .     A
C529   O564    1.293   .     A
C529   C539    1.426   .     S
C530   C531    1.416   .     A
C530   C136    1.420   1_556 S
C530   C152    1.419   1_556 S
C531   C535    1.414   .     A
C531   C538    1.420   .     A
C532   C536    1.403   .     A
C532   C533    1.415   .     A
C533   C544    1.404   .     A
C534   C535    1.393   .     A
C534   H554    1.084   .     S
C534   C137    1.395   1_556 S
C535   H559    1.080   .     S
C536   H556    1.081   .     S
C536   C545    1.395   .     A
C537   C545    1.402   .     A
C537   C544    1.397   .     A
C537   H551    1.083   .     S
C538   C540    1.464   .     S
C538   C546    1.400   .     A
C539   C673    1.327   .     S
C539   H692    1.086   .     S
C540   O566    1.302   .     A
C540   O565    1.307   .     A
C541   C542    1.428   .     S
C542   O568    1.300   .     A
C542   O567    1.292   .     A
C543   O570    1.308   .     A
C543   O569    1.301   .     A
C543   C545    1.466   .     S
C544   H555    1.084   .     S
C546   H557    1.084   .     S
C546   C547    1.382   .     A
C547   C152    1.391   1_556 S
C547   H646    1.083   1_455 S
C548   I572    2.099   .     S
Cu549  O563    1.955   .     S
Cu549  O567    1.948   .     S
Cu549  Cu550   2.712   .     S
Cu549  O569    1.950   .     S
Cu549  O565    1.954   .     S
Cu549  N562    2.038   .     S
Cu550  O564    1.948   .     S
Cu550  O568    1.955   .     S
Cu550  O570    1.954   .     S
Cu550  O566    1.950   .     S
Cu550  N561    2.038   .     S
H552   C673    1.088   .     S
H553   N649    1.029   1_455 S
H558   C591    1.083   .     S
N561   H597    1.029   .     S
N561   N606    1.293   .     S
N562   N649    1.293   1_455 S
N562   I659    2.079   1_455 S
I571   N606    2.079   .     S
C573   O607    1.298   .     A
C573   O608    1.293   .     A
C573   C583    1.426   .     S
C574   C575    1.416   .     A
C574   C180    1.420   1_556 S
C574   C196    1.419   1_556 S
C575   C579    1.414   .     A
C575   C582    1.420   .     A
C576   C580    1.403   .     A
C576   C577    1.415   .     A
C577   C588    1.404   .     A
C578   C579    1.393   .     A
C578   H598    1.084   .     S
C578   C181    1.395   1_556 S
C579   H603    1.080   .     S
C580   H600    1.081   .     S
C580   C589    1.395   .     A
C581   C589    1.402   .     A
C581   C588    1.397   .     A
C581   H595    1.083   .     S
C582   C584    1.464   .     S
C582   C590    1.400   .     A
C583   C717    1.327   .     S
C583   H736    1.086   .     S
C584   O610    1.302   .     A
C584   O609    1.307   .     A
C585   C586    1.428   .     S
C586   O612    1.300   .     A
C586   O611    1.292   .     A
C587   O614    1.308   .     A
C587   O613    1.301   .     A
C587   C589    1.466   .     S
C588   H599    1.084   .     S
C590   H601    1.084   .     S
C590   C591    1.382   .     A
C591   C196    1.391   1_556 S
C592   I616    2.099   .     S
Cu593  O607    1.955   .     S
Cu593  O611    1.948   .     S
Cu593  Cu594   2.712   .     S
Cu593  O613    1.950   .     S
Cu593  O609    1.954   .     S
Cu593  N606    2.038   .     S
Cu594  O608    1.948   .     S
Cu594  O612    1.955   .     S
Cu594  O614    1.954   .     S
Cu594  O610    1.950   .     S
Cu594  N605    2.038   .     S
H596   C717    1.088   .     S
H602   C635    1.083   .     S
N605   H641    1.029   .     S
N605   N650    1.293   .     S
I615   N650    2.079   .     S
C617   O651    1.298   .     A
C617   O652    1.293   .     A
C617   C627    1.426   .     S
C618   C619    1.416   .     A
C618   C224    1.420   1_556 S
C618   C240    1.419   1_556 S
C619   C623    1.414   .     A
C619   C626    1.420   .     A
C620   C624    1.403   .     A
C620   C621    1.415   .     A
C621   C632    1.404   .     A
C622   C623    1.393   .     A
C622   H642    1.084   .     S
C622   C225    1.395   1_556 S
C623   H647    1.080   .     S
C624   H644    1.081   .     S
C624   C633    1.395   .     A
C625   C633    1.402   .     A
C625   C632    1.397   .     A
C625   H639    1.083   .     S
C626   C628    1.464   .     S
C626   C634    1.400   .     A
C627   C761    1.327   .     S
C627   H780    1.086   .     S
C628   O654    1.302   .     A
C628   O653    1.307   .     A
C629   C630    1.428   .     S
C630   O656    1.300   .     A
C630   O655    1.292   .     A
C631   O658    1.308   .     A
C631   O657    1.301   .     A
C631   C633    1.466   .     S
C632   H643    1.084   .     S
C634   H645    1.084   .     S
C634   C635    1.382   .     A
C635   C240    1.391   1_556 S
C636   I660    2.099   .     S
Cu637  O651    1.955   .     S
Cu637  O655    1.948   .     S
Cu637  Cu638   2.712   .     S
Cu637  O657    1.950   .     S
Cu637  O653    1.954   .     S
Cu637  N650    2.038   .     S
Cu638  O652    1.948   .     S
Cu638  O656    1.955   .     S
Cu638  O658    1.954   .     S
Cu638  O654    1.950   .     S
Cu638  N649    2.038   .     S
H640   C761    1.088   .     S
H646   C547    1.083   1_655 S
N649   H553    1.029   1_655 S
N649   N562    1.293   1_655 S
I659   N562    2.079   1_655 S
C661   O695    1.298   .     A
C661   O696    1.293   .     A
C661   C671    1.426   .     S
C662   C663    1.416   .     A
C662   C268    1.420   1_556 S
C662   C284    1.419   1_556 S
C663   C667    1.414   .     A
C663   C670    1.420   .     A
C664   C668    1.403   .     A
C664   C665    1.415   .     A
C665   C676    1.404   .     A
C666   C667    1.393   .     A
C666   H686    1.084   .     S
C666   C269    1.395   1_556 S
C667   H691    1.080   .     S
C668   H688    1.081   .     S
C668   C677    1.395   .     A
C669   C677    1.402   .     A
C669   C676    1.397   .     A
C669   H683    1.083   .     S
C670   C672    1.464   .     S
C670   C678    1.400   .     A
C671   C409    1.327   1_565 S
C671   H428    1.086   1_565 S
C672   O698    1.302   .     A
C672   O697    1.307   .     A
C673   C674    1.428   .     S
C674   O700    1.300   .     A
C674   O699    1.292   .     A
C675   O702    1.308   .     A
C675   O701    1.301   .     A
C675   C677    1.466   .     S
C676   H687    1.084   .     S
C678   H689    1.084   .     S
C678   C679    1.382   .     A
C679   C284    1.391   1_556 S
C679   H778    1.083   1_455 S
C680   I704    2.099   .     S
Cu681  O695    1.955   .     S
Cu681  O699    1.948   .     S
Cu681  Cu682   2.712   .     S
Cu681  O701    1.950   .     S
Cu681  O697    1.954   .     S
Cu681  N694    2.038   .     S
Cu682  O696    1.948   .     S
Cu682  O700    1.955   .     S
Cu682  O702    1.954   .     S
Cu682  O698    1.950   .     S
Cu682  N693    2.038   .     S
H684   C409    1.088   1_565 S
H685   N781    1.029   1_455 S
H690   C723    1.083   .     S
N693   H729    1.029   .     S
N693   N738    1.293   .     S
N694   N781    1.293   1_455 S
N694   I791    2.079   1_455 S
I703   N738    2.079   .     S
C705   O739    1.298   .     A
C705   O740    1.293   .     A
C705   C715    1.426   .     S
C706   C707    1.416   .     A
C706   C312    1.420   1_556 S
C706   C328    1.419   1_556 S
C707   C711    1.414   .     A
C707   C714    1.420   .     A
C708   C712    1.403   .     A
C708   C709    1.415   .     A
C709   C720    1.404   .     A
C710   C711    1.393   .     A
C710   H730    1.084   .     S
C710   C313    1.395   1_556 S
C711   H735    1.080   .     S
C712   H732    1.081   .     S
C712   C721    1.395   .     A
C713   C721    1.402   .     A
C713   C720    1.397   .     A
C713   H727    1.083   .     S
C714   C716    1.464   .     S
C714   C722    1.400   .     A
C715   C453    1.327   1_565 S
C715   H472    1.086   1_565 S
C716   O742    1.302   .     A
C716   O741    1.307   .     A
C717   C718    1.428   .     S
C718   O744    1.300   .     A
C718   O743    1.292   .     A
C719   O746    1.308   .     A
C719   O745    1.301   .     A
C719   C721    1.466   .     S
C720   H731    1.084   .     S
C722   H733    1.084   .     S
C722   C723    1.382   .     A
C723   C328    1.391   1_556 S
C724   I748    2.099   .     S
Cu725  O739    1.955   .     S
Cu725  O743    1.948   .     S
Cu725  Cu726   2.712   .     S
Cu725  O745    1.950   .     S
Cu725  O741    1.954   .     S
Cu725  N738    2.038   .     S
Cu726  O740    1.948   .     S
Cu726  O744    1.955   .     S
Cu726  O746    1.954   .     S
Cu726  O742    1.950   .     S
Cu726  N737    2.038   .     S
H728   C453    1.088   1_565 S
H734   C767    1.083   .     S
N737   H773    1.029   .     S
N737   N782    1.293   .     S
I747   N782    2.079   .     S
C749   O783    1.298   .     A
C749   O784    1.293   .     A
C749   C759    1.426   .     S
C750   C751    1.416   .     A
C750   C356    1.420   1_556 S
C750   C372    1.419   1_556 S
C751   C755    1.414   .     A
C751   C758    1.420   .     A
C752   C756    1.403   .     A
C752   C753    1.415   .     A
C753   C764    1.404   .     A
C754   C755    1.393   .     A
C754   H774    1.084   .     S
C754   C357    1.395   1_556 S
C755   H779    1.080   .     S
C756   H776    1.081   .     S
C756   C765    1.395   .     A
C757   C765    1.402   .     A
C757   C764    1.397   .     A
C757   H771    1.083   .     S
C758   C760    1.464   .     S
C758   C766    1.400   .     A
C759   C497    1.327   1_565 S
C759   H516    1.086   1_565 S
C760   O786    1.302   .     A
C760   O785    1.307   .     A
C761   C762    1.428   .     S
C762   O788    1.300   .     A
C762   O787    1.292   .     A
C763   O790    1.308   .     A
C763   O789    1.301   .     A
C763   C765    1.466   .     S
C764   H775    1.084   .     S
C766   H777    1.084   .     S
C766   C767    1.382   .     A
C767   C372    1.391   1_556 S
C768   I792    2.099   .     S
Cu769  O783    1.955   .     S
Cu769  O787    1.948   .     S
Cu769  Cu770   2.712   .     S
Cu769  O789    1.950   .     S
Cu769  O785    1.954   .     S
Cu769  N782    2.038   .     S
Cu770  O784    1.948   .     S
Cu770  O788    1.955   .     S
Cu770  O790    1.954   .     S
Cu770  O786    1.950   .     S
Cu770  N781    2.038   .     S
H772   C497    1.088   1_565 S
H778   C679    1.083   1_655 S
N781   H685    1.029   1_655 S
N781   N694    1.293   1_655 S
I791   N694    2.079   1_655 S
