data_str_m2_o10_o17_pcu_sym.197
_audit_creation_date              2020-01-03
_audit_creation_method            'Materials Studio'
_symmetry_space_group_name_H-M    'P1'
_symmetry_Int_Tables_number       1
_symmetry_cell_setting            triclinic
loop_
_symmetry_equiv_pos_as_xyz
  x,y,z
_cell_length_a                    29.9280
_cell_length_b                    26.0080
_cell_length_c                    22.5392
_cell_angle_alpha                 103.4724
_cell_angle_beta                  93.6686
_cell_angle_gamma                 92.8511
loop_
_atom_site_label
_atom_site_type_symbol
_atom_site_fract_x
_atom_site_fract_y
_atom_site_fract_z
_atom_site_U_iso_or_equiv
_atom_site_adp_type
_atom_site_occupancy
O1     O     0.25326   0.09538   0.20659   0.00000  Uiso   1.00
O2     O     0.24675   0.23796   0.12674   0.00000  Uiso   1.00
O3     O     0.24480   0.08559   0.10279   0.00000  Uiso   1.00
O4     O     0.25520   0.24774   0.23055   0.00000  Uiso   1.00
C5     C     0.24868   0.06660   0.15098   0.00000  Uiso   1.00
C6     C     0.25132   0.26673   0.18235   0.00000  Uiso   1.00
O7     O     0.18936   0.17155   0.21857   0.00000  Uiso   1.00
O8     O     0.31065   0.16179   0.11476   0.00000  Uiso   1.00
O9     O     0.18090   0.16176   0.11477   0.00000  Uiso   1.00
O10    O     0.31910   0.17157   0.21857   0.00000  Uiso   1.00
C11    C     0.16473   0.16581   0.16755   0.00000  Uiso   1.00
C12    C     0.33527   0.16752   0.16578   0.00000  Uiso   1.00
Cu13   Cu    0.25501   0.17246   0.22813   0.00000  Uiso   1.00
Cu14   Cu    0.24500   0.16087   0.10521   0.00000  Uiso   1.00
C15    C     0.40930   0.21880   0.18008   0.00000  Uiso   1.00
C16    C     0.09070   0.11454   0.15326   0.00000  Uiso   1.00
C17    C     0.38341   0.17004   0.16391   0.00000  Uiso   1.00
C18    C     0.11659   0.16330   0.16942   0.00000  Uiso   1.00
C19    C     0.40294   0.12224   0.14703   0.00000  Uiso   1.00
C20    C     0.09706   0.21109   0.18630   0.00000  Uiso   1.00
C21    C     0.44900   0.12110   0.14607   0.00000  Uiso   1.00
C22    C     0.05100   0.21223   0.18727   0.00000  Uiso   1.00
C23    C     0.47652   0.16823   0.16647   0.00000  Uiso   1.00
C24    C     0.02348   0.16511   0.16687   0.00000  Uiso   1.00
C25    C     0.45707   0.21810   0.18658   0.00000  Uiso   1.00
C26    C     0.04293   0.11523   0.14675   0.00000  Uiso   1.00
C27    C     0.46729   0.07287   0.12377   0.00000  Uiso   1.00
C28    C     0.03272   0.26046   0.20956   0.00000  Uiso   1.00
C29    C     0.01348   0.06920   0.12118   0.00000  Uiso   1.00
C30    C     0.48652   0.26414   0.21215   0.00000  Uiso   1.00
H31    H     0.38178   0.08564   0.13352   0.00000  Uiso   1.00
H32    H     0.11822   0.24770   0.19981   0.00000  Uiso   1.00
H33    H     0.44489   0.03770   0.10623   0.00000  Uiso   1.00
H34    H     0.05511   0.29563   0.22710   0.00000  Uiso   1.00
C35    C     0.24801   0.01043   0.14239   0.00000  Uiso   1.00
C36    C     0.25199   0.32291   0.19095   0.00000  Uiso   1.00
H37    H     0.24423   0.31949   0.09580   0.00000  Uiso   1.00
H38    H     0.25577   0.01384   0.23753   0.00000  Uiso   1.00
N39    N     0.23745   0.15214   0.01284   0.00000  Uiso   1.00
N40    N     0.26256   0.18119   0.32049   0.00000  Uiso   1.00
C41    C     0.38547   0.26937   0.18235   0.00000  Uiso   1.00
H42    H     0.35059   0.26194   0.16126   0.00000  Uiso   1.00
H43    H     0.38318   0.29178   0.23014   0.00000  Uiso   1.00
H44    H     0.40238   0.29346   0.15467   0.00000  Uiso   1.00
C45    C     0.11453   0.06396   0.15099   0.00000  Uiso   1.00
H46    H     0.14941   0.07140   0.17208   0.00000  Uiso   1.00
H47    H     0.09762   0.03987   0.17867   0.00000  Uiso   1.00
H48    H     0.11682   0.04155   0.10320   0.00000  Uiso   1.00
C49    C     0.02816   0.01713   0.08463   0.00000  Uiso   1.00
H50    H     0.49930   0.32460   0.05867   0.00000  Uiso   1.00
H51    H     0.05059   0.02430   0.04968   0.00000  Uiso   1.00
H52    H     0.04391   0.32731   0.11476   0.00000  Uiso   1.00
C53    C     0.47184   0.31620   0.24870   0.00000  Uiso   1.00
H54    H     0.00070   0.00873   0.27466   0.00000  Uiso   1.00
H55    H     0.45609   0.00603   0.21857   0.00000  Uiso   1.00
H56    H     0.44941   0.30904   0.28366   0.00000  Uiso   1.00
N57    N     0.19406   0.14039   0.31949   0.00000  Uiso   1.00
O58    O     0.18032   0.09113   0.29636   0.00000  Uiso   1.00
O59    O     0.16447   0.17563   0.33195   0.00000  Uiso   1.00
N60    N     0.30594   0.19295   0.01385   0.00000  Uiso   1.00
O61    O     0.31966   0.24222   0.03701   0.00000  Uiso   1.00
O62    O     0.33555   0.15774   0.00139   0.00000  Uiso   1.00
O63    O     0.75326   0.09538   0.20659   0.00000  Uiso   1.00
O64    O     0.74675   0.23796   0.12674   0.00000  Uiso   1.00
O65    O     0.74480   0.08559   0.10279   0.00000  Uiso   1.00
O66    O     0.75520   0.24774   0.23055   0.00000  Uiso   1.00
C67    C     0.74868   0.06660   0.15098   0.00000  Uiso   1.00
C68    C     0.75132   0.26673   0.18235   0.00000  Uiso   1.00
O69    O     0.68936   0.17155   0.21857   0.00000  Uiso   1.00
O70    O     0.81065   0.16179   0.11476   0.00000  Uiso   1.00
O71    O     0.68090   0.16176   0.11477   0.00000  Uiso   1.00
O72    O     0.81910   0.17157   0.21857   0.00000  Uiso   1.00
C73    C     0.66473   0.16581   0.16755   0.00000  Uiso   1.00
C74    C     0.83527   0.16752   0.16578   0.00000  Uiso   1.00
Cu75   Cu    0.75501   0.17246   0.22813   0.00000  Uiso   1.00
Cu76   Cu    0.74500   0.16087   0.10521   0.00000  Uiso   1.00
C77    C     0.90930   0.21880   0.18008   0.00000  Uiso   1.00
C78    C     0.59070   0.11454   0.15326   0.00000  Uiso   1.00
C79    C     0.88341   0.17004   0.16391   0.00000  Uiso   1.00
C80    C     0.61659   0.16330   0.16942   0.00000  Uiso   1.00
C81    C     0.90294   0.12224   0.14703   0.00000  Uiso   1.00
C82    C     0.59706   0.21109   0.18630   0.00000  Uiso   1.00
C83    C     0.94900   0.12110   0.14607   0.00000  Uiso   1.00
C84    C     0.55100   0.21223   0.18727   0.00000  Uiso   1.00
C85    C     0.97652   0.16823   0.16647   0.00000  Uiso   1.00
C86    C     0.52348   0.16511   0.16687   0.00000  Uiso   1.00
C87    C     0.95707   0.21810   0.18658   0.00000  Uiso   1.00
C88    C     0.54293   0.11523   0.14675   0.00000  Uiso   1.00
C89    C     0.96729   0.07287   0.12377   0.00000  Uiso   1.00
C90    C     0.53272   0.26046   0.20956   0.00000  Uiso   1.00
C91    C     0.51348   0.06920   0.12118   0.00000  Uiso   1.00
C92    C     0.98652   0.26414   0.21215   0.00000  Uiso   1.00
H93    H     0.88178   0.08564   0.13352   0.00000  Uiso   1.00
H94    H     0.61822   0.24770   0.19981   0.00000  Uiso   1.00
H95    H     0.94489   0.03770   0.10623   0.00000  Uiso   1.00
H96    H     0.55511   0.29563   0.22710   0.00000  Uiso   1.00
C97    C     0.74801   0.01043   0.14239   0.00000  Uiso   1.00
C98    C     0.75199   0.32291   0.19095   0.00000  Uiso   1.00
H99    H     0.74423   0.31949   0.09580   0.00000  Uiso   1.00
H100   H     0.75577   0.01384   0.23753   0.00000  Uiso   1.00
N101   N     0.73745   0.15214   0.01284   0.00000  Uiso   1.00
N102   N     0.76256   0.18119   0.32049   0.00000  Uiso   1.00
C103   C     0.88547   0.26937   0.18235   0.00000  Uiso   1.00
H104   H     0.85059   0.26194   0.16126   0.00000  Uiso   1.00
H105   H     0.88318   0.29178   0.23014   0.00000  Uiso   1.00
H106   H     0.90238   0.29346   0.15467   0.00000  Uiso   1.00
C107   C     0.61453   0.06396   0.15099   0.00000  Uiso   1.00
H108   H     0.64941   0.07140   0.17208   0.00000  Uiso   1.00
H109   H     0.59762   0.03987   0.17867   0.00000  Uiso   1.00
H110   H     0.61682   0.04155   0.10320   0.00000  Uiso   1.00
C111   C     0.52816   0.01713   0.08463   0.00000  Uiso   1.00
H112   H     0.99930   0.32460   0.05867   0.00000  Uiso   1.00
H113   H     0.55059   0.02430   0.04968   0.00000  Uiso   1.00
H114   H     0.54391   0.32731   0.11476   0.00000  Uiso   1.00
C115   C     0.97184   0.31620   0.24870   0.00000  Uiso   1.00
H116   H     0.50070   0.00873   0.27466   0.00000  Uiso   1.00
H117   H     0.95609   0.00603   0.21857   0.00000  Uiso   1.00
H118   H     0.94941   0.30904   0.28366   0.00000  Uiso   1.00
N119   N     0.69406   0.14039   0.31949   0.00000  Uiso   1.00
O120   O     0.68032   0.09113   0.29636   0.00000  Uiso   1.00
O121   O     0.66447   0.17563   0.33195   0.00000  Uiso   1.00
N122   N     0.80594   0.19295   0.01385   0.00000  Uiso   1.00
O123   O     0.81966   0.24222   0.03701   0.00000  Uiso   1.00
O124   O     0.83555   0.15774   0.00139   0.00000  Uiso   1.00
O125   O     0.25326   0.42871   0.20659   0.00000  Uiso   1.00
O126   O     0.24675   0.57129   0.12674   0.00000  Uiso   1.00
O127   O     0.24480   0.41892   0.10279   0.00000  Uiso   1.00
O128   O     0.25520   0.58108   0.23055   0.00000  Uiso   1.00
C129   C     0.24868   0.39994   0.15098   0.00000  Uiso   1.00
C130   C     0.25132   0.60006   0.18235   0.00000  Uiso   1.00
O131   O     0.18936   0.50488   0.21857   0.00000  Uiso   1.00
O132   O     0.31065   0.49512   0.11476   0.00000  Uiso   1.00
O133   O     0.18090   0.49510   0.11477   0.00000  Uiso   1.00
O134   O     0.31910   0.50490   0.21857   0.00000  Uiso   1.00
C135   C     0.16473   0.49914   0.16755   0.00000  Uiso   1.00
C136   C     0.33527   0.50086   0.16578   0.00000  Uiso   1.00
Cu137  Cu    0.25501   0.50579   0.22813   0.00000  Uiso   1.00
Cu138  Cu    0.24500   0.49421   0.10521   0.00000  Uiso   1.00
C139   C     0.40930   0.55213   0.18008   0.00000  Uiso   1.00
C140   C     0.09070   0.44787   0.15326   0.00000  Uiso   1.00
C141   C     0.38341   0.50337   0.16391   0.00000  Uiso   1.00
C142   C     0.11659   0.49663   0.16942   0.00000  Uiso   1.00
C143   C     0.40294   0.45558   0.14703   0.00000  Uiso   1.00
C144   C     0.09706   0.54442   0.18630   0.00000  Uiso   1.00
C145   C     0.44900   0.45443   0.14607   0.00000  Uiso   1.00
C146   C     0.05100   0.54557   0.18727   0.00000  Uiso   1.00
C147   C     0.47652   0.50156   0.16647   0.00000  Uiso   1.00
C148   C     0.02348   0.49844   0.16687   0.00000  Uiso   1.00
C149   C     0.45707   0.55144   0.18658   0.00000  Uiso   1.00
C150   C     0.04293   0.44857   0.14675   0.00000  Uiso   1.00
C151   C     0.46729   0.40621   0.12377   0.00000  Uiso   1.00
C152   C     0.03272   0.59379   0.20956   0.00000  Uiso   1.00
C153   C     0.01348   0.40253   0.12118   0.00000  Uiso   1.00
C154   C     0.48652   0.59747   0.21215   0.00000  Uiso   1.00
H155   H     0.38178   0.41897   0.13352   0.00000  Uiso   1.00
H156   H     0.11822   0.58103   0.19981   0.00000  Uiso   1.00
H157   H     0.44489   0.37104   0.10623   0.00000  Uiso   1.00
H158   H     0.05511   0.62896   0.22710   0.00000  Uiso   1.00
C159   C     0.24801   0.34376   0.14239   0.00000  Uiso   1.00
C160   C     0.25199   0.65624   0.19095   0.00000  Uiso   1.00
H161   H     0.24423   0.65282   0.09580   0.00000  Uiso   1.00
H162   H     0.25577   0.34718   0.23753   0.00000  Uiso   1.00
N163   N     0.23745   0.48547   0.01284   0.00000  Uiso   1.00
N164   N     0.26256   0.51453   0.32049   0.00000  Uiso   1.00
C165   C     0.38547   0.60270   0.18235   0.00000  Uiso   1.00
H166   H     0.35059   0.59527   0.16126   0.00000  Uiso   1.00
H167   H     0.38318   0.62511   0.23014   0.00000  Uiso   1.00
H168   H     0.40238   0.62680   0.15467   0.00000  Uiso   1.00
C169   C     0.11453   0.39730   0.15099   0.00000  Uiso   1.00
H170   H     0.14941   0.40473   0.17208   0.00000  Uiso   1.00
H171   H     0.09762   0.37320   0.17867   0.00000  Uiso   1.00
H172   H     0.11682   0.37489   0.10320   0.00000  Uiso   1.00
C173   C     0.02816   0.35046   0.08463   0.00000  Uiso   1.00
H174   H     0.49930   0.65793   0.05867   0.00000  Uiso   1.00
H175   H     0.05059   0.35763   0.04968   0.00000  Uiso   1.00
H176   H     0.04391   0.66064   0.11476   0.00000  Uiso   1.00
C177   C     0.47184   0.64954   0.24870   0.00000  Uiso   1.00
H178   H     0.00070   0.34207   0.27466   0.00000  Uiso   1.00
H179   H     0.45609   0.33936   0.21857   0.00000  Uiso   1.00
H180   H     0.44941   0.64237   0.28366   0.00000  Uiso   1.00
N181   N     0.19406   0.47373   0.31949   0.00000  Uiso   1.00
O182   O     0.18032   0.42447   0.29636   0.00000  Uiso   1.00
O183   O     0.16447   0.50896   0.33195   0.00000  Uiso   1.00
N184   N     0.30594   0.52629   0.01385   0.00000  Uiso   1.00
O185   O     0.31966   0.57555   0.03701   0.00000  Uiso   1.00
O186   O     0.33555   0.49107   0.00139   0.00000  Uiso   1.00
O187   O     0.75326   0.42871   0.20659   0.00000  Uiso   1.00
O188   O     0.74675   0.57129   0.12674   0.00000  Uiso   1.00
O189   O     0.74480   0.41892   0.10279   0.00000  Uiso   1.00
O190   O     0.75520   0.58108   0.23055   0.00000  Uiso   1.00
C191   C     0.74868   0.39994   0.15098   0.00000  Uiso   1.00
C192   C     0.75132   0.60006   0.18235   0.00000  Uiso   1.00
O193   O     0.68936   0.50488   0.21857   0.00000  Uiso   1.00
O194   O     0.81065   0.49512   0.11476   0.00000  Uiso   1.00
O195   O     0.68090   0.49510   0.11477   0.00000  Uiso   1.00
O196   O     0.81910   0.50490   0.21857   0.00000  Uiso   1.00
C197   C     0.66473   0.49914   0.16755   0.00000  Uiso   1.00
C198   C     0.83527   0.50086   0.16578   0.00000  Uiso   1.00
Cu199  Cu    0.75501   0.50579   0.22813   0.00000  Uiso   1.00
Cu200  Cu    0.74500   0.49421   0.10521   0.00000  Uiso   1.00
C201   C     0.90930   0.55213   0.18008   0.00000  Uiso   1.00
C202   C     0.59070   0.44787   0.15326   0.00000  Uiso   1.00
C203   C     0.88341   0.50337   0.16391   0.00000  Uiso   1.00
C204   C     0.61659   0.49663   0.16942   0.00000  Uiso   1.00
C205   C     0.90294   0.45558   0.14703   0.00000  Uiso   1.00
C206   C     0.59706   0.54442   0.18630   0.00000  Uiso   1.00
C207   C     0.94900   0.45443   0.14607   0.00000  Uiso   1.00
C208   C     0.55100   0.54557   0.18727   0.00000  Uiso   1.00
C209   C     0.97652   0.50156   0.16647   0.00000  Uiso   1.00
C210   C     0.52348   0.49844   0.16687   0.00000  Uiso   1.00
C211   C     0.95707   0.55144   0.18658   0.00000  Uiso   1.00
C212   C     0.54293   0.44857   0.14675   0.00000  Uiso   1.00
C213   C     0.96729   0.40621   0.12377   0.00000  Uiso   1.00
C214   C     0.53272   0.59379   0.20956   0.00000  Uiso   1.00
C215   C     0.51348   0.40253   0.12118   0.00000  Uiso   1.00
C216   C     0.98652   0.59747   0.21215   0.00000  Uiso   1.00
H217   H     0.88178   0.41897   0.13352   0.00000  Uiso   1.00
H218   H     0.61822   0.58103   0.19981   0.00000  Uiso   1.00
H219   H     0.94489   0.37104   0.10623   0.00000  Uiso   1.00
H220   H     0.55511   0.62896   0.22710   0.00000  Uiso   1.00
C221   C     0.74801   0.34376   0.14239   0.00000  Uiso   1.00
C222   C     0.75199   0.65624   0.19095   0.00000  Uiso   1.00
H223   H     0.74423   0.65282   0.09580   0.00000  Uiso   1.00
H224   H     0.75577   0.34718   0.23753   0.00000  Uiso   1.00
N225   N     0.73745   0.48547   0.01284   0.00000  Uiso   1.00
N226   N     0.76256   0.51453   0.32049   0.00000  Uiso   1.00
C227   C     0.88547   0.60270   0.18235   0.00000  Uiso   1.00
H228   H     0.85059   0.59527   0.16126   0.00000  Uiso   1.00
H229   H     0.88318   0.62511   0.23014   0.00000  Uiso   1.00
H230   H     0.90238   0.62680   0.15467   0.00000  Uiso   1.00
C231   C     0.61453   0.39730   0.15099   0.00000  Uiso   1.00
H232   H     0.64941   0.40473   0.17208   0.00000  Uiso   1.00
H233   H     0.59762   0.37320   0.17867   0.00000  Uiso   1.00
H234   H     0.61682   0.37489   0.10320   0.00000  Uiso   1.00
C235   C     0.52816   0.35046   0.08463   0.00000  Uiso   1.00
H236   H     0.99930   0.65793   0.05867   0.00000  Uiso   1.00
H237   H     0.55059   0.35763   0.04968   0.00000  Uiso   1.00
H238   H     0.54391   0.66064   0.11476   0.00000  Uiso   1.00
C239   C     0.97184   0.64954   0.24870   0.00000  Uiso   1.00
H240   H     0.50070   0.34207   0.27466   0.00000  Uiso   1.00
H241   H     0.95609   0.33936   0.21857   0.00000  Uiso   1.00
H242   H     0.94941   0.64237   0.28366   0.00000  Uiso   1.00
N243   N     0.69406   0.47373   0.31949   0.00000  Uiso   1.00
O244   O     0.68032   0.42447   0.29636   0.00000  Uiso   1.00
O245   O     0.66447   0.50896   0.33195   0.00000  Uiso   1.00
N246   N     0.80594   0.52629   0.01385   0.00000  Uiso   1.00
O247   O     0.81966   0.57555   0.03701   0.00000  Uiso   1.00
O248   O     0.83555   0.49107   0.00139   0.00000  Uiso   1.00
O249   O     0.25326   0.76204   0.20659   0.00000  Uiso   1.00
O250   O     0.24675   0.90462   0.12674   0.00000  Uiso   1.00
O251   O     0.24480   0.75226   0.10279   0.00000  Uiso   1.00
O252   O     0.25520   0.91441   0.23055   0.00000  Uiso   1.00
C253   C     0.24868   0.73327   0.15098   0.00000  Uiso   1.00
C254   C     0.25132   0.93340   0.18235   0.00000  Uiso   1.00
O255   O     0.18936   0.83821   0.21857   0.00000  Uiso   1.00
O256   O     0.31065   0.82845   0.11476   0.00000  Uiso   1.00
O257   O     0.18090   0.82843   0.11477   0.00000  Uiso   1.00
O258   O     0.31910   0.83824   0.21857   0.00000  Uiso   1.00
C259   C     0.16473   0.83248   0.16755   0.00000  Uiso   1.00
C260   C     0.33527   0.83419   0.16578   0.00000  Uiso   1.00
Cu261  Cu    0.25501   0.83913   0.22813   0.00000  Uiso   1.00
Cu262  Cu    0.24500   0.82754   0.10521   0.00000  Uiso   1.00
C263   C     0.40930   0.88547   0.18008   0.00000  Uiso   1.00
C264   C     0.09070   0.78120   0.15326   0.00000  Uiso   1.00
C265   C     0.38341   0.83670   0.16391   0.00000  Uiso   1.00
C266   C     0.11659   0.82996   0.16942   0.00000  Uiso   1.00
C267   C     0.40294   0.78891   0.14703   0.00000  Uiso   1.00
C268   C     0.09706   0.87776   0.18630   0.00000  Uiso   1.00
C269   C     0.44900   0.78777   0.14607   0.00000  Uiso   1.00
C270   C     0.05100   0.87890   0.18727   0.00000  Uiso   1.00
C271   C     0.47652   0.83489   0.16647   0.00000  Uiso   1.00
C272   C     0.02348   0.83177   0.16687   0.00000  Uiso   1.00
C273   C     0.45707   0.88477   0.18658   0.00000  Uiso   1.00
C274   C     0.04293   0.78190   0.14675   0.00000  Uiso   1.00
C275   C     0.46729   0.73954   0.12377   0.00000  Uiso   1.00
C276   C     0.03272   0.92713   0.20956   0.00000  Uiso   1.00
C277   C     0.01348   0.73587   0.12118   0.00000  Uiso   1.00
C278   C     0.48652   0.93080   0.21215   0.00000  Uiso   1.00
H279   H     0.38178   0.75230   0.13352   0.00000  Uiso   1.00
H280   H     0.11822   0.91436   0.19981   0.00000  Uiso   1.00
H281   H     0.44489   0.70437   0.10623   0.00000  Uiso   1.00
H282   H     0.05511   0.96230   0.22710   0.00000  Uiso   1.00
C283   C     0.24801   0.67709   0.14239   0.00000  Uiso   1.00
C284   C     0.25199   0.98957   0.19095   0.00000  Uiso   1.00
H285   H     0.24423   0.98616   0.09580   0.00000  Uiso   1.00
H286   H     0.25577   0.68051   0.23753   0.00000  Uiso   1.00
N287   N     0.23745   0.81881   0.01284   0.00000  Uiso   1.00
N288   N     0.26256   0.84786   0.32049   0.00000  Uiso   1.00
C289   C     0.38547   0.93604   0.18235   0.00000  Uiso   1.00
H290   H     0.35059   0.92860   0.16126   0.00000  Uiso   1.00
H291   H     0.38318   0.95845   0.23014   0.00000  Uiso   1.00
H292   H     0.40238   0.96013   0.15467   0.00000  Uiso   1.00
C293   C     0.11453   0.73063   0.15099   0.00000  Uiso   1.00
H294   H     0.14941   0.73806   0.17208   0.00000  Uiso   1.00
H295   H     0.09762   0.70654   0.17867   0.00000  Uiso   1.00
H296   H     0.11682   0.70822   0.10320   0.00000  Uiso   1.00
C297   C     0.02816   0.68380   0.08463   0.00000  Uiso   1.00
H298   H     0.49930   0.99127   0.05867   0.00000  Uiso   1.00
H299   H     0.05059   0.69096   0.04968   0.00000  Uiso   1.00
H300   H     0.04391   0.99397   0.11476   0.00000  Uiso   1.00
C301   C     0.47184   0.98287   0.24870   0.00000  Uiso   1.00
H302   H     0.00070   0.67540   0.27466   0.00000  Uiso   1.00
H303   H     0.45609   0.67269   0.21857   0.00000  Uiso   1.00
H304   H     0.44941   0.97571   0.28366   0.00000  Uiso   1.00
N305   N     0.19406   0.80706   0.31949   0.00000  Uiso   1.00
O306   O     0.18032   0.75780   0.29636   0.00000  Uiso   1.00
O307   O     0.16447   0.84229   0.33195   0.00000  Uiso   1.00
N308   N     0.30594   0.85962   0.01385   0.00000  Uiso   1.00
O309   O     0.31966   0.90889   0.03701   0.00000  Uiso   1.00
O310   O     0.33555   0.82441   0.00139   0.00000  Uiso   1.00
O311   O     0.75326   0.76204   0.20659   0.00000  Uiso   1.00
O312   O     0.74675   0.90462   0.12674   0.00000  Uiso   1.00
O313   O     0.74480   0.75226   0.10279   0.00000  Uiso   1.00
O314   O     0.75520   0.91441   0.23055   0.00000  Uiso   1.00
C315   C     0.74868   0.73327   0.15098   0.00000  Uiso   1.00
C316   C     0.75132   0.93340   0.18235   0.00000  Uiso   1.00
O317   O     0.68936   0.83821   0.21857   0.00000  Uiso   1.00
O318   O     0.81065   0.82845   0.11476   0.00000  Uiso   1.00
O319   O     0.68090   0.82843   0.11477   0.00000  Uiso   1.00
O320   O     0.81910   0.83824   0.21857   0.00000  Uiso   1.00
C321   C     0.66473   0.83248   0.16755   0.00000  Uiso   1.00
C322   C     0.83527   0.83419   0.16578   0.00000  Uiso   1.00
Cu323  Cu    0.75501   0.83913   0.22813   0.00000  Uiso   1.00
Cu324  Cu    0.74500   0.82754   0.10521   0.00000  Uiso   1.00
C325   C     0.90930   0.88547   0.18008   0.00000  Uiso   1.00
C326   C     0.59070   0.78120   0.15326   0.00000  Uiso   1.00
C327   C     0.88341   0.83670   0.16391   0.00000  Uiso   1.00
C328   C     0.61659   0.82996   0.16942   0.00000  Uiso   1.00
C329   C     0.90294   0.78891   0.14703   0.00000  Uiso   1.00
C330   C     0.59706   0.87776   0.18630   0.00000  Uiso   1.00
C331   C     0.94900   0.78777   0.14607   0.00000  Uiso   1.00
C332   C     0.55100   0.87890   0.18727   0.00000  Uiso   1.00
C333   C     0.97652   0.83489   0.16647   0.00000  Uiso   1.00
C334   C     0.52348   0.83177   0.16687   0.00000  Uiso   1.00
C335   C     0.95707   0.88477   0.18658   0.00000  Uiso   1.00
C336   C     0.54293   0.78190   0.14675   0.00000  Uiso   1.00
C337   C     0.96729   0.73954   0.12377   0.00000  Uiso   1.00
C338   C     0.53272   0.92713   0.20956   0.00000  Uiso   1.00
C339   C     0.51348   0.73587   0.12118   0.00000  Uiso   1.00
C340   C     0.98652   0.93080   0.21215   0.00000  Uiso   1.00
H341   H     0.88178   0.75230   0.13352   0.00000  Uiso   1.00
H342   H     0.61822   0.91436   0.19981   0.00000  Uiso   1.00
H343   H     0.94489   0.70437   0.10623   0.00000  Uiso   1.00
H344   H     0.55511   0.96230   0.22710   0.00000  Uiso   1.00
C345   C     0.74801   0.67709   0.14239   0.00000  Uiso   1.00
C346   C     0.75199   0.98957   0.19095   0.00000  Uiso   1.00
H347   H     0.74423   0.98616   0.09580   0.00000  Uiso   1.00
H348   H     0.75577   0.68051   0.23753   0.00000  Uiso   1.00
N349   N     0.73745   0.81881   0.01284   0.00000  Uiso   1.00
N350   N     0.76256   0.84786   0.32049   0.00000  Uiso   1.00
C351   C     0.88547   0.93604   0.18235   0.00000  Uiso   1.00
H352   H     0.85059   0.92860   0.16126   0.00000  Uiso   1.00
H353   H     0.88318   0.95845   0.23014   0.00000  Uiso   1.00
H354   H     0.90238   0.96013   0.15467   0.00000  Uiso   1.00
C355   C     0.61453   0.73063   0.15099   0.00000  Uiso   1.00
H356   H     0.64941   0.73806   0.17208   0.00000  Uiso   1.00
H357   H     0.59762   0.70654   0.17867   0.00000  Uiso   1.00
H358   H     0.61682   0.70822   0.10320   0.00000  Uiso   1.00
C359   C     0.52816   0.68380   0.08463   0.00000  Uiso   1.00
H360   H     0.99930   0.99127   0.05867   0.00000  Uiso   1.00
H361   H     0.55059   0.69096   0.04968   0.00000  Uiso   1.00
H362   H     0.54391   0.99397   0.11476   0.00000  Uiso   1.00
C363   C     0.97184   0.98287   0.24870   0.00000  Uiso   1.00
H364   H     0.50070   0.67540   0.27466   0.00000  Uiso   1.00
H365   H     0.95609   0.67269   0.21857   0.00000  Uiso   1.00
H366   H     0.94941   0.97571   0.28366   0.00000  Uiso   1.00
N367   N     0.69406   0.80706   0.31949   0.00000  Uiso   1.00
O368   O     0.68032   0.75780   0.29636   0.00000  Uiso   1.00
O369   O     0.66447   0.84229   0.33195   0.00000  Uiso   1.00
N370   N     0.80594   0.85962   0.01385   0.00000  Uiso   1.00
O371   O     0.81966   0.90889   0.03701   0.00000  Uiso   1.00
O372   O     0.83555   0.82441   0.00139   0.00000  Uiso   1.00
O373   O     0.25326   0.09538   0.53992   0.00000  Uiso   1.00
O374   O     0.24675   0.23796   0.46008   0.00000  Uiso   1.00
O375   O     0.24480   0.08559   0.43612   0.00000  Uiso   1.00
O376   O     0.25520   0.24774   0.56388   0.00000  Uiso   1.00
C377   C     0.24868   0.06660   0.48432   0.00000  Uiso   1.00
C378   C     0.25132   0.26673   0.51568   0.00000  Uiso   1.00
O379   O     0.18936   0.17155   0.55191   0.00000  Uiso   1.00
O380   O     0.31065   0.16179   0.44809   0.00000  Uiso   1.00
O381   O     0.18090   0.16176   0.44810   0.00000  Uiso   1.00
O382   O     0.31910   0.17157   0.55190   0.00000  Uiso   1.00
C383   C     0.16473   0.16581   0.50089   0.00000  Uiso   1.00
C384   C     0.33527   0.16752   0.49911   0.00000  Uiso   1.00
Cu385  Cu    0.25501   0.17246   0.56146   0.00000  Uiso   1.00
Cu386  Cu    0.24500   0.16087   0.43854   0.00000  Uiso   1.00
C387   C     0.40930   0.21880   0.51341   0.00000  Uiso   1.00
C388   C     0.09070   0.11454   0.48659   0.00000  Uiso   1.00
C389   C     0.38341   0.17004   0.49724   0.00000  Uiso   1.00
C390   C     0.11659   0.16330   0.50276   0.00000  Uiso   1.00
C391   C     0.40294   0.12224   0.48036   0.00000  Uiso   1.00
C392   C     0.09706   0.21109   0.51964   0.00000  Uiso   1.00
C393   C     0.44900   0.12110   0.47940   0.00000  Uiso   1.00
C394   C     0.05100   0.21223   0.52060   0.00000  Uiso   1.00
C395   C     0.47652   0.16823   0.49980   0.00000  Uiso   1.00
C396   C     0.02348   0.16511   0.50020   0.00000  Uiso   1.00
C397   C     0.45707   0.21810   0.51992   0.00000  Uiso   1.00
C398   C     0.04293   0.11523   0.48009   0.00000  Uiso   1.00
C399   C     0.46729   0.07287   0.45710   0.00000  Uiso   1.00
C400   C     0.03272   0.26046   0.54290   0.00000  Uiso   1.00
C401   C     0.01348   0.06920   0.45451   0.00000  Uiso   1.00
C402   C     0.48652   0.26414   0.54549   0.00000  Uiso   1.00
H403   H     0.38178   0.08564   0.46686   0.00000  Uiso   1.00
H404   H     0.11822   0.24770   0.53314   0.00000  Uiso   1.00
H405   H     0.44489   0.03770   0.43957   0.00000  Uiso   1.00
H406   H     0.05511   0.29563   0.56043   0.00000  Uiso   1.00
C407   C     0.24801   0.01043   0.47572   0.00000  Uiso   1.00
C408   C     0.25199   0.32291   0.52428   0.00000  Uiso   1.00
H409   H     0.24423   0.31949   0.42913   0.00000  Uiso   1.00
H410   H     0.25577   0.01384   0.57087   0.00000  Uiso   1.00
N411   N     0.23745   0.15214   0.34617   0.00000  Uiso   1.00
N412   N     0.26256   0.18119   0.65383   0.00000  Uiso   1.00
C413   C     0.38547   0.26937   0.51568   0.00000  Uiso   1.00
H414   H     0.35059   0.26194   0.49460   0.00000  Uiso   1.00
H415   H     0.38318   0.29178   0.56347   0.00000  Uiso   1.00
H416   H     0.40238   0.29346   0.48801   0.00000  Uiso   1.00
C417   C     0.11453   0.06396   0.48432   0.00000  Uiso   1.00
H418   H     0.14941   0.07140   0.50541   0.00000  Uiso   1.00
H419   H     0.09762   0.03987   0.51200   0.00000  Uiso   1.00
H420   H     0.11682   0.04155   0.43654   0.00000  Uiso   1.00
C421   C     0.02816   0.01713   0.41797   0.00000  Uiso   1.00
H422   H     0.49930   0.32460   0.39201   0.00000  Uiso   1.00
H423   H     0.05059   0.02430   0.38301   0.00000  Uiso   1.00
H424   H     0.04391   0.32731   0.44809   0.00000  Uiso   1.00
C425   C     0.47184   0.31620   0.58204   0.00000  Uiso   1.00
H426   H     0.00070   0.00873   0.60799   0.00000  Uiso   1.00
H427   H     0.45609   0.00603   0.55191   0.00000  Uiso   1.00
H428   H     0.44941   0.30904   0.61699   0.00000  Uiso   1.00
N429   N     0.19406   0.14039   0.65282   0.00000  Uiso   1.00
O430   O     0.18032   0.09113   0.62969   0.00000  Uiso   1.00
O431   O     0.16447   0.17563   0.66528   0.00000  Uiso   1.00
N432   N     0.30594   0.19295   0.34719   0.00000  Uiso   1.00
O433   O     0.31966   0.24222   0.37034   0.00000  Uiso   1.00
O434   O     0.33555   0.15774   0.33472   0.00000  Uiso   1.00
O435   O     0.75326   0.09538   0.53992   0.00000  Uiso   1.00
O436   O     0.74675   0.23796   0.46008   0.00000  Uiso   1.00
O437   O     0.74480   0.08559   0.43612   0.00000  Uiso   1.00
O438   O     0.75520   0.24774   0.56388   0.00000  Uiso   1.00
C439   C     0.74868   0.06660   0.48432   0.00000  Uiso   1.00
C440   C     0.75132   0.26673   0.51568   0.00000  Uiso   1.00
O441   O     0.68936   0.17155   0.55191   0.00000  Uiso   1.00
O442   O     0.81065   0.16179   0.44809   0.00000  Uiso   1.00
O443   O     0.68090   0.16176   0.44810   0.00000  Uiso   1.00
O444   O     0.81910   0.17157   0.55190   0.00000  Uiso   1.00
C445   C     0.66473   0.16581   0.50089   0.00000  Uiso   1.00
C446   C     0.83527   0.16752   0.49911   0.00000  Uiso   1.00
Cu447  Cu    0.75501   0.17246   0.56146   0.00000  Uiso   1.00
Cu448  Cu    0.74500   0.16087   0.43854   0.00000  Uiso   1.00
C449   C     0.90930   0.21880   0.51341   0.00000  Uiso   1.00
C450   C     0.59070   0.11454   0.48659   0.00000  Uiso   1.00
C451   C     0.88341   0.17004   0.49724   0.00000  Uiso   1.00
C452   C     0.61659   0.16330   0.50276   0.00000  Uiso   1.00
C453   C     0.90294   0.12224   0.48036   0.00000  Uiso   1.00
C454   C     0.59706   0.21109   0.51964   0.00000  Uiso   1.00
C455   C     0.94900   0.12110   0.47940   0.00000  Uiso   1.00
C456   C     0.55100   0.21223   0.52060   0.00000  Uiso   1.00
C457   C     0.97652   0.16823   0.49980   0.00000  Uiso   1.00
C458   C     0.52348   0.16511   0.50020   0.00000  Uiso   1.00
C459   C     0.95707   0.21810   0.51992   0.00000  Uiso   1.00
C460   C     0.54293   0.11523   0.48009   0.00000  Uiso   1.00
C461   C     0.96729   0.07287   0.45710   0.00000  Uiso   1.00
C462   C     0.53272   0.26046   0.54290   0.00000  Uiso   1.00
C463   C     0.51348   0.06920   0.45451   0.00000  Uiso   1.00
C464   C     0.98652   0.26414   0.54549   0.00000  Uiso   1.00
H465   H     0.88178   0.08564   0.46686   0.00000  Uiso   1.00
H466   H     0.61822   0.24770   0.53314   0.00000  Uiso   1.00
H467   H     0.94489   0.03770   0.43957   0.00000  Uiso   1.00
H468   H     0.55511   0.29563   0.56043   0.00000  Uiso   1.00
C469   C     0.74801   0.01043   0.47572   0.00000  Uiso   1.00
C470   C     0.75199   0.32291   0.52428   0.00000  Uiso   1.00
H471   H     0.74423   0.31949   0.42913   0.00000  Uiso   1.00
H472   H     0.75577   0.01384   0.57087   0.00000  Uiso   1.00
N473   N     0.73745   0.15214   0.34617   0.00000  Uiso   1.00
N474   N     0.76256   0.18119   0.65383   0.00000  Uiso   1.00
C475   C     0.88547   0.26937   0.51568   0.00000  Uiso   1.00
H476   H     0.85059   0.26194   0.49460   0.00000  Uiso   1.00
H477   H     0.88318   0.29178   0.56347   0.00000  Uiso   1.00
H478   H     0.90238   0.29346   0.48801   0.00000  Uiso   1.00
C479   C     0.61453   0.06396   0.48432   0.00000  Uiso   1.00
H480   H     0.64941   0.07140   0.50541   0.00000  Uiso   1.00
H481   H     0.59762   0.03987   0.51200   0.00000  Uiso   1.00
H482   H     0.61682   0.04155   0.43654   0.00000  Uiso   1.00
C483   C     0.52816   0.01713   0.41797   0.00000  Uiso   1.00
H484   H     0.99930   0.32460   0.39201   0.00000  Uiso   1.00
H485   H     0.55059   0.02430   0.38301   0.00000  Uiso   1.00
H486   H     0.54391   0.32731   0.44809   0.00000  Uiso   1.00
C487   C     0.97184   0.31620   0.58204   0.00000  Uiso   1.00
H488   H     0.50070   0.00873   0.60799   0.00000  Uiso   1.00
H489   H     0.95609   0.00603   0.55191   0.00000  Uiso   1.00
H490   H     0.94941   0.30904   0.61699   0.00000  Uiso   1.00
N491   N     0.69406   0.14039   0.65282   0.00000  Uiso   1.00
O492   O     0.68032   0.09113   0.62969   0.00000  Uiso   1.00
O493   O     0.66447   0.17563   0.66528   0.00000  Uiso   1.00
N494   N     0.80594   0.19295   0.34719   0.00000  Uiso   1.00
O495   O     0.81966   0.24222   0.37034   0.00000  Uiso   1.00
O496   O     0.83555   0.15774   0.33472   0.00000  Uiso   1.00
O497   O     0.25326   0.42871   0.53992   0.00000  Uiso   1.00
O498   O     0.24675   0.57129   0.46008   0.00000  Uiso   1.00
O499   O     0.24480   0.41892   0.43612   0.00000  Uiso   1.00
O500   O     0.25520   0.58108   0.56388   0.00000  Uiso   1.00
C501   C     0.24868   0.39994   0.48432   0.00000  Uiso   1.00
C502   C     0.25132   0.60006   0.51568   0.00000  Uiso   1.00
O503   O     0.18936   0.50488   0.55191   0.00000  Uiso   1.00
O504   O     0.31065   0.49512   0.44809   0.00000  Uiso   1.00
O505   O     0.18090   0.49510   0.44810   0.00000  Uiso   1.00
O506   O     0.31910   0.50490   0.55190   0.00000  Uiso   1.00
C507   C     0.16473   0.49914   0.50089   0.00000  Uiso   1.00
C508   C     0.33527   0.50086   0.49911   0.00000  Uiso   1.00
Cu509  Cu    0.25501   0.50579   0.56146   0.00000  Uiso   1.00
Cu510  Cu    0.24500   0.49421   0.43854   0.00000  Uiso   1.00
C511   C     0.40930   0.55213   0.51341   0.00000  Uiso   1.00
C512   C     0.09070   0.44787   0.48659   0.00000  Uiso   1.00
C513   C     0.38341   0.50337   0.49724   0.00000  Uiso   1.00
C514   C     0.11659   0.49663   0.50276   0.00000  Uiso   1.00
C515   C     0.40294   0.45558   0.48036   0.00000  Uiso   1.00
C516   C     0.09706   0.54442   0.51964   0.00000  Uiso   1.00
C517   C     0.44900   0.45443   0.47940   0.00000  Uiso   1.00
C518   C     0.05100   0.54557   0.52060   0.00000  Uiso   1.00
C519   C     0.47652   0.50156   0.49980   0.00000  Uiso   1.00
C520   C     0.02348   0.49844   0.50020   0.00000  Uiso   1.00
C521   C     0.45707   0.55144   0.51992   0.00000  Uiso   1.00
C522   C     0.04293   0.44857   0.48009   0.00000  Uiso   1.00
C523   C     0.46729   0.40621   0.45710   0.00000  Uiso   1.00
C524   C     0.03272   0.59379   0.54290   0.00000  Uiso   1.00
C525   C     0.01348   0.40253   0.45451   0.00000  Uiso   1.00
C526   C     0.48652   0.59747   0.54549   0.00000  Uiso   1.00
H527   H     0.38178   0.41897   0.46686   0.00000  Uiso   1.00
H528   H     0.11822   0.58103   0.53314   0.00000  Uiso   1.00
H529   H     0.44489   0.37104   0.43957   0.00000  Uiso   1.00
H530   H     0.05511   0.62896   0.56043   0.00000  Uiso   1.00
C531   C     0.24801   0.34376   0.47572   0.00000  Uiso   1.00
C532   C     0.25199   0.65624   0.52428   0.00000  Uiso   1.00
H533   H     0.24423   0.65282   0.42913   0.00000  Uiso   1.00
H534   H     0.25577   0.34718   0.57087   0.00000  Uiso   1.00
N535   N     0.23745   0.48547   0.34617   0.00000  Uiso   1.00
N536   N     0.26256   0.51453   0.65383   0.00000  Uiso   1.00
C537   C     0.38547   0.60270   0.51568   0.00000  Uiso   1.00
H538   H     0.35059   0.59527   0.49460   0.00000  Uiso   1.00
H539   H     0.38318   0.62511   0.56347   0.00000  Uiso   1.00
H540   H     0.40238   0.62680   0.48801   0.00000  Uiso   1.00
C541   C     0.11453   0.39730   0.48432   0.00000  Uiso   1.00
H542   H     0.14941   0.40473   0.50541   0.00000  Uiso   1.00
H543   H     0.09762   0.37320   0.51200   0.00000  Uiso   1.00
H544   H     0.11682   0.37489   0.43654   0.00000  Uiso   1.00
C545   C     0.02816   0.35046   0.41797   0.00000  Uiso   1.00
H546   H     0.49930   0.65793   0.39201   0.00000  Uiso   1.00
H547   H     0.05059   0.35763   0.38301   0.00000  Uiso   1.00
H548   H     0.04391   0.66064   0.44809   0.00000  Uiso   1.00
C549   C     0.47184   0.64954   0.58204   0.00000  Uiso   1.00
H550   H     0.00070   0.34207   0.60799   0.00000  Uiso   1.00
H551   H     0.45609   0.33936   0.55191   0.00000  Uiso   1.00
H552   H     0.44941   0.64237   0.61699   0.00000  Uiso   1.00
N553   N     0.19406   0.47373   0.65282   0.00000  Uiso   1.00
O554   O     0.18032   0.42447   0.62969   0.00000  Uiso   1.00
O555   O     0.16447   0.50896   0.66528   0.00000  Uiso   1.00
N556   N     0.30594   0.52629   0.34719   0.00000  Uiso   1.00
O557   O     0.31966   0.57555   0.37034   0.00000  Uiso   1.00
O558   O     0.33555   0.49107   0.33472   0.00000  Uiso   1.00
O559   O     0.75326   0.42871   0.53992   0.00000  Uiso   1.00
O560   O     0.74675   0.57129   0.46008   0.00000  Uiso   1.00
O561   O     0.74480   0.41892   0.43612   0.00000  Uiso   1.00
O562   O     0.75520   0.58108   0.56388   0.00000  Uiso   1.00
C563   C     0.74868   0.39994   0.48432   0.00000  Uiso   1.00
C564   C     0.75132   0.60006   0.51568   0.00000  Uiso   1.00
O565   O     0.68936   0.50488   0.55191   0.00000  Uiso   1.00
O566   O     0.81065   0.49512   0.44809   0.00000  Uiso   1.00
O567   O     0.68090   0.49510   0.44810   0.00000  Uiso   1.00
O568   O     0.81910   0.50490   0.55190   0.00000  Uiso   1.00
C569   C     0.66473   0.49914   0.50089   0.00000  Uiso   1.00
C570   C     0.83527   0.50086   0.49911   0.00000  Uiso   1.00
Cu571  Cu    0.75501   0.50579   0.56146   0.00000  Uiso   1.00
Cu572  Cu    0.74500   0.49421   0.43854   0.00000  Uiso   1.00
C573   C     0.90930   0.55213   0.51341   0.00000  Uiso   1.00
C574   C     0.59070   0.44787   0.48659   0.00000  Uiso   1.00
C575   C     0.88341   0.50337   0.49724   0.00000  Uiso   1.00
C576   C     0.61659   0.49663   0.50276   0.00000  Uiso   1.00
C577   C     0.90294   0.45558   0.48036   0.00000  Uiso   1.00
C578   C     0.59706   0.54442   0.51964   0.00000  Uiso   1.00
C579   C     0.94900   0.45443   0.47940   0.00000  Uiso   1.00
C580   C     0.55100   0.54557   0.52060   0.00000  Uiso   1.00
C581   C     0.97652   0.50156   0.49980   0.00000  Uiso   1.00
C582   C     0.52348   0.49844   0.50020   0.00000  Uiso   1.00
C583   C     0.95707   0.55144   0.51992   0.00000  Uiso   1.00
C584   C     0.54293   0.44857   0.48009   0.00000  Uiso   1.00
C585   C     0.96729   0.40621   0.45710   0.00000  Uiso   1.00
C586   C     0.53272   0.59379   0.54290   0.00000  Uiso   1.00
C587   C     0.51348   0.40253   0.45451   0.00000  Uiso   1.00
C588   C     0.98652   0.59747   0.54549   0.00000  Uiso   1.00
H589   H     0.88178   0.41897   0.46686   0.00000  Uiso   1.00
H590   H     0.61822   0.58103   0.53314   0.00000  Uiso   1.00
H591   H     0.94489   0.37104   0.43957   0.00000  Uiso   1.00
H592   H     0.55511   0.62896   0.56043   0.00000  Uiso   1.00
C593   C     0.74801   0.34376   0.47572   0.00000  Uiso   1.00
C594   C     0.75199   0.65624   0.52428   0.00000  Uiso   1.00
H595   H     0.74423   0.65282   0.42913   0.00000  Uiso   1.00
H596   H     0.75577   0.34718   0.57087   0.00000  Uiso   1.00
N597   N     0.73745   0.48547   0.34617   0.00000  Uiso   1.00
N598   N     0.76256   0.51453   0.65383   0.00000  Uiso   1.00
C599   C     0.88547   0.60270   0.51568   0.00000  Uiso   1.00
H600   H     0.85059   0.59527   0.49460   0.00000  Uiso   1.00
H601   H     0.88318   0.62511   0.56347   0.00000  Uiso   1.00
H602   H     0.90238   0.62680   0.48801   0.00000  Uiso   1.00
C603   C     0.61453   0.39730   0.48432   0.00000  Uiso   1.00
H604   H     0.64941   0.40473   0.50541   0.00000  Uiso   1.00
H605   H     0.59762   0.37320   0.51200   0.00000  Uiso   1.00
H606   H     0.61682   0.37489   0.43654   0.00000  Uiso   1.00
C607   C     0.52816   0.35046   0.41797   0.00000  Uiso   1.00
H608   H     0.99930   0.65793   0.39201   0.00000  Uiso   1.00
H609   H     0.55059   0.35763   0.38301   0.00000  Uiso   1.00
H610   H     0.54391   0.66064   0.44809   0.00000  Uiso   1.00
C611   C     0.97184   0.64954   0.58204   0.00000  Uiso   1.00
H612   H     0.50070   0.34207   0.60799   0.00000  Uiso   1.00
H613   H     0.95609   0.33936   0.55191   0.00000  Uiso   1.00
H614   H     0.94941   0.64237   0.61699   0.00000  Uiso   1.00
N615   N     0.69406   0.47373   0.65282   0.00000  Uiso   1.00
O616   O     0.68032   0.42447   0.62969   0.00000  Uiso   1.00
O617   O     0.66447   0.50896   0.66528   0.00000  Uiso   1.00
N618   N     0.80594   0.52629   0.34719   0.00000  Uiso   1.00
O619   O     0.81966   0.57555   0.37034   0.00000  Uiso   1.00
O620   O     0.83555   0.49107   0.33472   0.00000  Uiso   1.00
O621   O     0.25326   0.76204   0.53992   0.00000  Uiso   1.00
O622   O     0.24675   0.90462   0.46008   0.00000  Uiso   1.00
O623   O     0.24480   0.75226   0.43612   0.00000  Uiso   1.00
O624   O     0.25520   0.91441   0.56388   0.00000  Uiso   1.00
C625   C     0.24868   0.73327   0.48432   0.00000  Uiso   1.00
C626   C     0.25132   0.93340   0.51568   0.00000  Uiso   1.00
O627   O     0.18936   0.83821   0.55191   0.00000  Uiso   1.00
O628   O     0.31065   0.82845   0.44809   0.00000  Uiso   1.00
O629   O     0.18090   0.82843   0.44810   0.00000  Uiso   1.00
O630   O     0.31910   0.83824   0.55190   0.00000  Uiso   1.00
C631   C     0.16473   0.83248   0.50089   0.00000  Uiso   1.00
C632   C     0.33527   0.83419   0.49911   0.00000  Uiso   1.00
Cu633  Cu    0.25501   0.83913   0.56146   0.00000  Uiso   1.00
Cu634  Cu    0.24500   0.82754   0.43854   0.00000  Uiso   1.00
C635   C     0.40930   0.88547   0.51341   0.00000  Uiso   1.00
C636   C     0.09070   0.78120   0.48659   0.00000  Uiso   1.00
C637   C     0.38341   0.83670   0.49724   0.00000  Uiso   1.00
C638   C     0.11659   0.82996   0.50276   0.00000  Uiso   1.00
C639   C     0.40294   0.78891   0.48036   0.00000  Uiso   1.00
C640   C     0.09706   0.87776   0.51964   0.00000  Uiso   1.00
C641   C     0.44900   0.78777   0.47940   0.00000  Uiso   1.00
C642   C     0.05100   0.87890   0.52060   0.00000  Uiso   1.00
C643   C     0.47652   0.83489   0.49980   0.00000  Uiso   1.00
C644   C     0.02348   0.83177   0.50020   0.00000  Uiso   1.00
C645   C     0.45707   0.88477   0.51992   0.00000  Uiso   1.00
C646   C     0.04293   0.78190   0.48009   0.00000  Uiso   1.00
C647   C     0.46729   0.73954   0.45710   0.00000  Uiso   1.00
C648   C     0.03272   0.92713   0.54290   0.00000  Uiso   1.00
C649   C     0.01348   0.73587   0.45451   0.00000  Uiso   1.00
C650   C     0.48652   0.93080   0.54549   0.00000  Uiso   1.00
H651   H     0.38178   0.75230   0.46686   0.00000  Uiso   1.00
H652   H     0.11822   0.91436   0.53314   0.00000  Uiso   1.00
H653   H     0.44489   0.70437   0.43957   0.00000  Uiso   1.00
H654   H     0.05511   0.96230   0.56043   0.00000  Uiso   1.00
C655   C     0.24801   0.67709   0.47572   0.00000  Uiso   1.00
C656   C     0.25199   0.98957   0.52428   0.00000  Uiso   1.00
H657   H     0.24423   0.98616   0.42913   0.00000  Uiso   1.00
H658   H     0.25577   0.68051   0.57087   0.00000  Uiso   1.00
N659   N     0.23745   0.81881   0.34617   0.00000  Uiso   1.00
N660   N     0.26256   0.84786   0.65383   0.00000  Uiso   1.00
C661   C     0.38547   0.93604   0.51568   0.00000  Uiso   1.00
H662   H     0.35059   0.92860   0.49460   0.00000  Uiso   1.00
H663   H     0.38318   0.95845   0.56347   0.00000  Uiso   1.00
H664   H     0.40238   0.96013   0.48801   0.00000  Uiso   1.00
C665   C     0.11453   0.73063   0.48432   0.00000  Uiso   1.00
H666   H     0.14941   0.73806   0.50541   0.00000  Uiso   1.00
H667   H     0.09762   0.70654   0.51200   0.00000  Uiso   1.00
H668   H     0.11682   0.70822   0.43654   0.00000  Uiso   1.00
C669   C     0.02816   0.68380   0.41797   0.00000  Uiso   1.00
H670   H     0.49930   0.99127   0.39201   0.00000  Uiso   1.00
H671   H     0.05059   0.69096   0.38301   0.00000  Uiso   1.00
H672   H     0.04391   0.99397   0.44809   0.00000  Uiso   1.00
C673   C     0.47184   0.98287   0.58204   0.00000  Uiso   1.00
H674   H     0.00070   0.67540   0.60799   0.00000  Uiso   1.00
H675   H     0.45609   0.67269   0.55191   0.00000  Uiso   1.00
H676   H     0.44941   0.97571   0.61699   0.00000  Uiso   1.00
N677   N     0.19406   0.80706   0.65282   0.00000  Uiso   1.00
O678   O     0.18032   0.75780   0.62969   0.00000  Uiso   1.00
O679   O     0.16447   0.84229   0.66528   0.00000  Uiso   1.00
N680   N     0.30594   0.85962   0.34719   0.00000  Uiso   1.00
O681   O     0.31966   0.90889   0.37034   0.00000  Uiso   1.00
O682   O     0.33555   0.82441   0.33472   0.00000  Uiso   1.00
O683   O     0.75326   0.76204   0.53992   0.00000  Uiso   1.00
O684   O     0.74675   0.90462   0.46008   0.00000  Uiso   1.00
O685   O     0.74480   0.75226   0.43612   0.00000  Uiso   1.00
O686   O     0.75520   0.91441   0.56388   0.00000  Uiso   1.00
C687   C     0.74868   0.73327   0.48432   0.00000  Uiso   1.00
C688   C     0.75132   0.93340   0.51568   0.00000  Uiso   1.00
O689   O     0.68936   0.83821   0.55191   0.00000  Uiso   1.00
O690   O     0.81065   0.82845   0.44809   0.00000  Uiso   1.00
O691   O     0.68090   0.82843   0.44810   0.00000  Uiso   1.00
O692   O     0.81910   0.83824   0.55190   0.00000  Uiso   1.00
C693   C     0.66473   0.83248   0.50089   0.00000  Uiso   1.00
C694   C     0.83527   0.83419   0.49911   0.00000  Uiso   1.00
Cu695  Cu    0.75501   0.83913   0.56146   0.00000  Uiso   1.00
Cu696  Cu    0.74500   0.82754   0.43854   0.00000  Uiso   1.00
C697   C     0.90930   0.88547   0.51341   0.00000  Uiso   1.00
C698   C     0.59070   0.78120   0.48659   0.00000  Uiso   1.00
C699   C     0.88341   0.83670   0.49724   0.00000  Uiso   1.00
C700   C     0.61659   0.82996   0.50276   0.00000  Uiso   1.00
C701   C     0.90294   0.78891   0.48036   0.00000  Uiso   1.00
C702   C     0.59706   0.87776   0.51964   0.00000  Uiso   1.00
C703   C     0.94900   0.78777   0.47940   0.00000  Uiso   1.00
C704   C     0.55100   0.87890   0.52060   0.00000  Uiso   1.00
C705   C     0.97652   0.83489   0.49980   0.00000  Uiso   1.00
C706   C     0.52348   0.83177   0.50020   0.00000  Uiso   1.00
C707   C     0.95707   0.88477   0.51992   0.00000  Uiso   1.00
C708   C     0.54293   0.78190   0.48009   0.00000  Uiso   1.00
C709   C     0.96729   0.73954   0.45710   0.00000  Uiso   1.00
C710   C     0.53272   0.92713   0.54290   0.00000  Uiso   1.00
C711   C     0.51348   0.73587   0.45451   0.00000  Uiso   1.00
C712   C     0.98652   0.93080   0.54549   0.00000  Uiso   1.00
H713   H     0.88178   0.75230   0.46686   0.00000  Uiso   1.00
H714   H     0.61822   0.91436   0.53314   0.00000  Uiso   1.00
H715   H     0.94489   0.70437   0.43957   0.00000  Uiso   1.00
H716   H     0.55511   0.96230   0.56043   0.00000  Uiso   1.00
C717   C     0.74801   0.67709   0.47572   0.00000  Uiso   1.00
C718   C     0.75199   0.98957   0.52428   0.00000  Uiso   1.00
H719   H     0.74423   0.98616   0.42913   0.00000  Uiso   1.00
H720   H     0.75577   0.68051   0.57087   0.00000  Uiso   1.00
N721   N     0.73745   0.81881   0.34617   0.00000  Uiso   1.00
N722   N     0.76256   0.84786   0.65383   0.00000  Uiso   1.00
C723   C     0.88547   0.93604   0.51568   0.00000  Uiso   1.00
H724   H     0.85059   0.92860   0.49460   0.00000  Uiso   1.00
H725   H     0.88318   0.95845   0.56347   0.00000  Uiso   1.00
H726   H     0.90238   0.96013   0.48801   0.00000  Uiso   1.00
C727   C     0.61453   0.73063   0.48432   0.00000  Uiso   1.00
H728   H     0.64941   0.73806   0.50541   0.00000  Uiso   1.00
H729   H     0.59762   0.70654   0.51200   0.00000  Uiso   1.00
H730   H     0.61682   0.70822   0.43654   0.00000  Uiso   1.00
C731   C     0.52816   0.68380   0.41797   0.00000  Uiso   1.00
H732   H     0.99930   0.99127   0.39201   0.00000  Uiso   1.00
H733   H     0.55059   0.69096   0.38301   0.00000  Uiso   1.00
H734   H     0.54391   0.99397   0.44809   0.00000  Uiso   1.00
C735   C     0.97184   0.98287   0.58204   0.00000  Uiso   1.00
H736   H     0.50070   0.67540   0.60799   0.00000  Uiso   1.00
H737   H     0.95609   0.67269   0.55191   0.00000  Uiso   1.00
H738   H     0.94941   0.97571   0.61699   0.00000  Uiso   1.00
N739   N     0.69406   0.80706   0.65282   0.00000  Uiso   1.00
O740   O     0.68032   0.75780   0.62969   0.00000  Uiso   1.00
O741   O     0.66447   0.84229   0.66528   0.00000  Uiso   1.00
N742   N     0.80594   0.85962   0.34719   0.00000  Uiso   1.00
O743   O     0.81966   0.90889   0.37034   0.00000  Uiso   1.00
O744   O     0.83555   0.82441   0.33472   0.00000  Uiso   1.00
O745   O     0.25326   0.09538   0.87326   0.00000  Uiso   1.00
O746   O     0.24675   0.23796   0.79341   0.00000  Uiso   1.00
O747   O     0.24480   0.08559   0.76945   0.00000  Uiso   1.00
O748   O     0.25520   0.24774   0.89721   0.00000  Uiso   1.00
C749   C     0.24868   0.06660   0.81765   0.00000  Uiso   1.00
C750   C     0.25132   0.26673   0.84902   0.00000  Uiso   1.00
O751   O     0.18936   0.17155   0.88524   0.00000  Uiso   1.00
O752   O     0.31065   0.16179   0.78143   0.00000  Uiso   1.00
O753   O     0.18090   0.16176   0.78143   0.00000  Uiso   1.00
O754   O     0.31910   0.17157   0.88523   0.00000  Uiso   1.00
C755   C     0.16473   0.16581   0.83422   0.00000  Uiso   1.00
C756   C     0.33527   0.16752   0.83245   0.00000  Uiso   1.00
Cu757  Cu    0.25501   0.17246   0.89479   0.00000  Uiso   1.00
Cu758  Cu    0.24500   0.16087   0.77187   0.00000  Uiso   1.00
C759   C     0.40930   0.21880   0.84674   0.00000  Uiso   1.00
C760   C     0.09070   0.11454   0.81993   0.00000  Uiso   1.00
C761   C     0.38341   0.17004   0.83058   0.00000  Uiso   1.00
C762   C     0.11659   0.16330   0.83609   0.00000  Uiso   1.00
C763   C     0.40294   0.12224   0.81369   0.00000  Uiso   1.00
C764   C     0.09706   0.21109   0.85297   0.00000  Uiso   1.00
C765   C     0.44900   0.12110   0.81273   0.00000  Uiso   1.00
C766   C     0.05100   0.21223   0.85393   0.00000  Uiso   1.00
C767   C     0.47652   0.16823   0.83314   0.00000  Uiso   1.00
C768   C     0.02348   0.16511   0.83353   0.00000  Uiso   1.00
C769   C     0.45707   0.21810   0.85325   0.00000  Uiso   1.00
C770   C     0.04293   0.11523   0.81342   0.00000  Uiso   1.00
C771   C     0.46729   0.07287   0.79044   0.00000  Uiso   1.00
C772   C     0.03272   0.26046   0.87623   0.00000  Uiso   1.00
C773   C     0.01348   0.06920   0.78785   0.00000  Uiso   1.00
C774   C     0.48652   0.26414   0.87882   0.00000  Uiso   1.00
H775   H     0.38178   0.08564   0.80019   0.00000  Uiso   1.00
H776   H     0.11822   0.24770   0.86647   0.00000  Uiso   1.00
H777   H     0.44489   0.03770   0.77290   0.00000  Uiso   1.00
H778   H     0.05511   0.29563   0.89377   0.00000  Uiso   1.00
C779   C     0.24801   0.01043   0.80905   0.00000  Uiso   1.00
C780   C     0.25199   0.32291   0.85761   0.00000  Uiso   1.00
H781   H     0.24423   0.31949   0.76247   0.00000  Uiso   1.00
H782   H     0.25577   0.01384   0.90420   0.00000  Uiso   1.00
N783   N     0.23745   0.15214   0.67951   0.00000  Uiso   1.00
N784   N     0.26256   0.18119   0.98716   0.00000  Uiso   1.00
C785   C     0.38547   0.26937   0.84902   0.00000  Uiso   1.00
H786   H     0.35059   0.26194   0.82793   0.00000  Uiso   1.00
H787   H     0.38318   0.29178   0.89680   0.00000  Uiso   1.00
H788   H     0.40238   0.29346   0.82134   0.00000  Uiso   1.00
C789   C     0.11453   0.06396   0.81766   0.00000  Uiso   1.00
H790   H     0.14941   0.07140   0.83875   0.00000  Uiso   1.00
H791   H     0.09762   0.03987   0.84533   0.00000  Uiso   1.00
H792   H     0.11682   0.04155   0.76987   0.00000  Uiso   1.00
C793   C     0.02816   0.01713   0.75130   0.00000  Uiso   1.00
H794   H     0.49930   0.32460   0.72534   0.00000  Uiso   1.00
H795   H     0.05059   0.02430   0.71634   0.00000  Uiso   1.00
H796   H     0.04391   0.32731   0.78143   0.00000  Uiso   1.00
C797   C     0.47184   0.31620   0.91537   0.00000  Uiso   1.00
H798   H     0.00070   0.00873   0.94133   0.00000  Uiso   1.00
H799   H     0.45609   0.00603   0.88524   0.00000  Uiso   1.00
H800   H     0.44941   0.30904   0.95033   0.00000  Uiso   1.00
N801   N     0.19406   0.14039   0.98616   0.00000  Uiso   1.00
O802   O     0.18032   0.09113   0.96302   0.00000  Uiso   1.00
O803   O     0.16447   0.17563   0.99862   0.00000  Uiso   1.00
N804   N     0.30594   0.19295   0.68052   0.00000  Uiso   1.00
O805   O     0.31966   0.24222   0.70368   0.00000  Uiso   1.00
O806   O     0.33555   0.15774   0.66806   0.00000  Uiso   1.00
O807   O     0.75326   0.09538   0.87326   0.00000  Uiso   1.00
O808   O     0.74675   0.23796   0.79341   0.00000  Uiso   1.00
O809   O     0.74480   0.08559   0.76945   0.00000  Uiso   1.00
O810   O     0.75520   0.24774   0.89721   0.00000  Uiso   1.00
C811   C     0.74868   0.06660   0.81765   0.00000  Uiso   1.00
C812   C     0.75132   0.26673   0.84902   0.00000  Uiso   1.00
O813   O     0.68936   0.17155   0.88524   0.00000  Uiso   1.00
O814   O     0.81065   0.16179   0.78143   0.00000  Uiso   1.00
O815   O     0.68090   0.16176   0.78143   0.00000  Uiso   1.00
O816   O     0.81910   0.17157   0.88523   0.00000  Uiso   1.00
C817   C     0.66473   0.16581   0.83422   0.00000  Uiso   1.00
C818   C     0.83527   0.16752   0.83245   0.00000  Uiso   1.00
Cu819  Cu    0.75501   0.17246   0.89479   0.00000  Uiso   1.00
Cu820  Cu    0.74500   0.16087   0.77187   0.00000  Uiso   1.00
C821   C     0.90930   0.21880   0.84674   0.00000  Uiso   1.00
C822   C     0.59070   0.11454   0.81993   0.00000  Uiso   1.00
C823   C     0.88341   0.17004   0.83058   0.00000  Uiso   1.00
C824   C     0.61659   0.16330   0.83609   0.00000  Uiso   1.00
C825   C     0.90294   0.12224   0.81369   0.00000  Uiso   1.00
C826   C     0.59706   0.21109   0.85297   0.00000  Uiso   1.00
C827   C     0.94900   0.12110   0.81273   0.00000  Uiso   1.00
C828   C     0.55100   0.21223   0.85393   0.00000  Uiso   1.00
C829   C     0.97652   0.16823   0.83314   0.00000  Uiso   1.00
C830   C     0.52348   0.16511   0.83353   0.00000  Uiso   1.00
C831   C     0.95707   0.21810   0.85325   0.00000  Uiso   1.00
C832   C     0.54293   0.11523   0.81342   0.00000  Uiso   1.00
C833   C     0.96729   0.07287   0.79044   0.00000  Uiso   1.00
C834   C     0.53272   0.26046   0.87623   0.00000  Uiso   1.00
C835   C     0.51348   0.06920   0.78785   0.00000  Uiso   1.00
C836   C     0.98652   0.26414   0.87882   0.00000  Uiso   1.00
H837   H     0.88178   0.08564   0.80019   0.00000  Uiso   1.00
H838   H     0.61822   0.24770   0.86647   0.00000  Uiso   1.00
H839   H     0.94489   0.03770   0.77290   0.00000  Uiso   1.00
H840   H     0.55511   0.29563   0.89377   0.00000  Uiso   1.00
C841   C     0.74801   0.01043   0.80905   0.00000  Uiso   1.00
C842   C     0.75199   0.32291   0.85761   0.00000  Uiso   1.00
H843   H     0.74423   0.31949   0.76247   0.00000  Uiso   1.00
H844   H     0.75577   0.01384   0.90420   0.00000  Uiso   1.00
N845   N     0.73745   0.15214   0.67951   0.00000  Uiso   1.00
N846   N     0.76256   0.18119   0.98716   0.00000  Uiso   1.00
C847   C     0.88547   0.26937   0.84902   0.00000  Uiso   1.00
H848   H     0.85059   0.26194   0.82793   0.00000  Uiso   1.00
H849   H     0.88318   0.29178   0.89680   0.00000  Uiso   1.00
H850   H     0.90238   0.29346   0.82134   0.00000  Uiso   1.00
C851   C     0.61453   0.06396   0.81766   0.00000  Uiso   1.00
H852   H     0.64941   0.07140   0.83875   0.00000  Uiso   1.00
H853   H     0.59762   0.03987   0.84533   0.00000  Uiso   1.00
H854   H     0.61682   0.04155   0.76987   0.00000  Uiso   1.00
C855   C     0.52816   0.01713   0.75130   0.00000  Uiso   1.00
H856   H     0.99930   0.32460   0.72534   0.00000  Uiso   1.00
H857   H     0.55059   0.02430   0.71634   0.00000  Uiso   1.00
H858   H     0.54391   0.32731   0.78143   0.00000  Uiso   1.00
C859   C     0.97184   0.31620   0.91537   0.00000  Uiso   1.00
H860   H     0.50070   0.00873   0.94133   0.00000  Uiso   1.00
H861   H     0.95609   0.00603   0.88524   0.00000  Uiso   1.00
H862   H     0.94941   0.30904   0.95033   0.00000  Uiso   1.00
N863   N     0.69406   0.14039   0.98616   0.00000  Uiso   1.00
O864   O     0.68032   0.09113   0.96302   0.00000  Uiso   1.00
O865   O     0.66447   0.17563   0.99862   0.00000  Uiso   1.00
N866   N     0.80594   0.19295   0.68052   0.00000  Uiso   1.00
O867   O     0.81966   0.24222   0.70368   0.00000  Uiso   1.00
O868   O     0.83555   0.15774   0.66806   0.00000  Uiso   1.00
O869   O     0.25326   0.42871   0.87326   0.00000  Uiso   1.00
O870   O     0.24675   0.57129   0.79341   0.00000  Uiso   1.00
O871   O     0.24480   0.41892   0.76945   0.00000  Uiso   1.00
O872   O     0.25520   0.58108   0.89721   0.00000  Uiso   1.00
C873   C     0.24868   0.39994   0.81765   0.00000  Uiso   1.00
C874   C     0.25132   0.60006   0.84902   0.00000  Uiso   1.00
O875   O     0.18936   0.50488   0.88524   0.00000  Uiso   1.00
O876   O     0.31065   0.49512   0.78143   0.00000  Uiso   1.00
O877   O     0.18090   0.49510   0.78143   0.00000  Uiso   1.00
O878   O     0.31910   0.50490   0.88523   0.00000  Uiso   1.00
C879   C     0.16473   0.49914   0.83422   0.00000  Uiso   1.00
C880   C     0.33527   0.50086   0.83245   0.00000  Uiso   1.00
Cu881  Cu    0.25501   0.50579   0.89479   0.00000  Uiso   1.00
Cu882  Cu    0.24500   0.49421   0.77187   0.00000  Uiso   1.00
C883   C     0.40930   0.55213   0.84674   0.00000  Uiso   1.00
C884   C     0.09070   0.44787   0.81993   0.00000  Uiso   1.00
C885   C     0.38341   0.50337   0.83058   0.00000  Uiso   1.00
C886   C     0.11659   0.49663   0.83609   0.00000  Uiso   1.00
C887   C     0.40294   0.45558   0.81369   0.00000  Uiso   1.00
C888   C     0.09706   0.54442   0.85297   0.00000  Uiso   1.00
C889   C     0.44900   0.45443   0.81273   0.00000  Uiso   1.00
C890   C     0.05100   0.54557   0.85393   0.00000  Uiso   1.00
C891   C     0.47652   0.50156   0.83314   0.00000  Uiso   1.00
C892   C     0.02348   0.49844   0.83353   0.00000  Uiso   1.00
C893   C     0.45707   0.55144   0.85325   0.00000  Uiso   1.00
C894   C     0.04293   0.44857   0.81342   0.00000  Uiso   1.00
C895   C     0.46729   0.40621   0.79044   0.00000  Uiso   1.00
C896   C     0.03272   0.59379   0.87623   0.00000  Uiso   1.00
C897   C     0.01348   0.40253   0.78785   0.00000  Uiso   1.00
C898   C     0.48652   0.59747   0.87882   0.00000  Uiso   1.00
H899   H     0.38178   0.41897   0.80019   0.00000  Uiso   1.00
H900   H     0.11822   0.58103   0.86647   0.00000  Uiso   1.00
H901   H     0.44489   0.37104   0.77290   0.00000  Uiso   1.00
H902   H     0.05511   0.62896   0.89377   0.00000  Uiso   1.00
C903   C     0.24801   0.34376   0.80905   0.00000  Uiso   1.00
C904   C     0.25199   0.65624   0.85761   0.00000  Uiso   1.00
H905   H     0.24423   0.65282   0.76247   0.00000  Uiso   1.00
H906   H     0.25577   0.34718   0.90420   0.00000  Uiso   1.00
N907   N     0.23745   0.48547   0.67951   0.00000  Uiso   1.00
N908   N     0.26256   0.51453   0.98716   0.00000  Uiso   1.00
C909   C     0.38547   0.60270   0.84902   0.00000  Uiso   1.00
H910   H     0.35059   0.59527   0.82793   0.00000  Uiso   1.00
H911   H     0.38318   0.62511   0.89680   0.00000  Uiso   1.00
H912   H     0.40238   0.62680   0.82134   0.00000  Uiso   1.00
C913   C     0.11453   0.39730   0.81766   0.00000  Uiso   1.00
H914   H     0.14941   0.40473   0.83875   0.00000  Uiso   1.00
H915   H     0.09762   0.37320   0.84533   0.00000  Uiso   1.00
H916   H     0.11682   0.37489   0.76987   0.00000  Uiso   1.00
C917   C     0.02816   0.35046   0.75130   0.00000  Uiso   1.00
H918   H     0.49930   0.65793   0.72534   0.00000  Uiso   1.00
H919   H     0.05059   0.35763   0.71634   0.00000  Uiso   1.00
H920   H     0.04391   0.66064   0.78143   0.00000  Uiso   1.00
C921   C     0.47184   0.64954   0.91537   0.00000  Uiso   1.00
H922   H     0.00070   0.34207   0.94133   0.00000  Uiso   1.00
H923   H     0.45609   0.33936   0.88524   0.00000  Uiso   1.00
H924   H     0.44941   0.64237   0.95033   0.00000  Uiso   1.00
N925   N     0.19406   0.47373   0.98616   0.00000  Uiso   1.00
O926   O     0.18032   0.42447   0.96302   0.00000  Uiso   1.00
O927   O     0.16447   0.50896   0.99862   0.00000  Uiso   1.00
N928   N     0.30594   0.52629   0.68052   0.00000  Uiso   1.00
O929   O     0.31966   0.57555   0.70368   0.00000  Uiso   1.00
O930   O     0.33555   0.49107   0.66806   0.00000  Uiso   1.00
O931   O     0.75326   0.42871   0.87326   0.00000  Uiso   1.00
O932   O     0.74675   0.57129   0.79341   0.00000  Uiso   1.00
O933   O     0.74480   0.41892   0.76945   0.00000  Uiso   1.00
O934   O     0.75520   0.58108   0.89721   0.00000  Uiso   1.00
C935   C     0.74868   0.39994   0.81765   0.00000  Uiso   1.00
C936   C     0.75132   0.60006   0.84902   0.00000  Uiso   1.00
O937   O     0.68936   0.50488   0.88524   0.00000  Uiso   1.00
O938   O     0.81065   0.49512   0.78143   0.00000  Uiso   1.00
O939   O     0.68090   0.49510   0.78143   0.00000  Uiso   1.00
O940   O     0.81910   0.50490   0.88523   0.00000  Uiso   1.00
C941   C     0.66473   0.49914   0.83422   0.00000  Uiso   1.00
C942   C     0.83527   0.50086   0.83245   0.00000  Uiso   1.00
Cu943  Cu    0.75501   0.50579   0.89479   0.00000  Uiso   1.00
Cu944  Cu    0.74500   0.49421   0.77187   0.00000  Uiso   1.00
C945   C     0.90930   0.55213   0.84674   0.00000  Uiso   1.00
C946   C     0.59070   0.44787   0.81993   0.00000  Uiso   1.00
C947   C     0.88341   0.50337   0.83058   0.00000  Uiso   1.00
C948   C     0.61659   0.49663   0.83609   0.00000  Uiso   1.00
C949   C     0.90294   0.45558   0.81369   0.00000  Uiso   1.00
C950   C     0.59706   0.54442   0.85297   0.00000  Uiso   1.00
C951   C     0.94900   0.45443   0.81273   0.00000  Uiso   1.00
C952   C     0.55100   0.54557   0.85393   0.00000  Uiso   1.00
C953   C     0.97652   0.50156   0.83314   0.00000  Uiso   1.00
C954   C     0.52348   0.49844   0.83353   0.00000  Uiso   1.00
C955   C     0.95707   0.55144   0.85325   0.00000  Uiso   1.00
C956   C     0.54293   0.44857   0.81342   0.00000  Uiso   1.00
C957   C     0.96729   0.40621   0.79044   0.00000  Uiso   1.00
C958   C     0.53272   0.59379   0.87623   0.00000  Uiso   1.00
C959   C     0.51348   0.40253   0.78785   0.00000  Uiso   1.00
C960   C     0.98652   0.59747   0.87882   0.00000  Uiso   1.00
H961   H     0.88178   0.41897   0.80019   0.00000  Uiso   1.00
H962   H     0.61822   0.58103   0.86647   0.00000  Uiso   1.00
H963   H     0.94489   0.37104   0.77290   0.00000  Uiso   1.00
H964   H     0.55511   0.62896   0.89377   0.00000  Uiso   1.00
C965   C     0.74801   0.34376   0.80905   0.00000  Uiso   1.00
C966   C     0.75199   0.65624   0.85761   0.00000  Uiso   1.00
H967   H     0.74423   0.65282   0.76247   0.00000  Uiso   1.00
H968   H     0.75577   0.34718   0.90420   0.00000  Uiso   1.00
N969   N     0.73745   0.48547   0.67951   0.00000  Uiso   1.00
N970   N     0.76256   0.51453   0.98716   0.00000  Uiso   1.00
C971   C     0.88547   0.60270   0.84902   0.00000  Uiso   1.00
H972   H     0.85059   0.59527   0.82793   0.00000  Uiso   1.00
H973   H     0.88318   0.62511   0.89680   0.00000  Uiso   1.00
H974   H     0.90238   0.62680   0.82134   0.00000  Uiso   1.00
C975   C     0.61453   0.39730   0.81766   0.00000  Uiso   1.00
H976   H     0.64941   0.40473   0.83875   0.00000  Uiso   1.00
H977   H     0.59762   0.37320   0.84533   0.00000  Uiso   1.00
H978   H     0.61682   0.37489   0.76987   0.00000  Uiso   1.00
C979   C     0.52816   0.35046   0.75130   0.00000  Uiso   1.00
H980   H     0.99930   0.65793   0.72534   0.00000  Uiso   1.00
H981   H     0.55059   0.35763   0.71634   0.00000  Uiso   1.00
H982   H     0.54391   0.66064   0.78143   0.00000  Uiso   1.00
C983   C     0.97184   0.64954   0.91537   0.00000  Uiso   1.00
H984   H     0.50070   0.34207   0.94133   0.00000  Uiso   1.00
H985   H     0.95609   0.33936   0.88524   0.00000  Uiso   1.00
H986   H     0.94941   0.64237   0.95033   0.00000  Uiso   1.00
N987   N     0.69406   0.47373   0.98616   0.00000  Uiso   1.00
O988   O     0.68032   0.42447   0.96302   0.00000  Uiso   1.00
O989   O     0.66447   0.50896   0.99862   0.00000  Uiso   1.00
N990   N     0.80594   0.52629   0.68052   0.00000  Uiso   1.00
O991   O     0.81966   0.57555   0.70368   0.00000  Uiso   1.00
O992   O     0.83555   0.49107   0.66806   0.00000  Uiso   1.00
O993   O     0.25326   0.76204   0.87326   0.00000  Uiso   1.00
O994   O     0.24675   0.90462   0.79341   0.00000  Uiso   1.00
O995   O     0.24480   0.75226   0.76945   0.00000  Uiso   1.00
O996   O     0.25520   0.91441   0.89721   0.00000  Uiso   1.00
C997   C     0.24868   0.73327   0.81765   0.00000  Uiso   1.00
C998   C     0.25132   0.93340   0.84902   0.00000  Uiso   1.00
O999   O     0.18936   0.83821   0.88524   0.00000  Uiso   1.00
O1000  O     0.31065   0.82845   0.78143   0.00000  Uiso   1.00
O1001  O     0.18090   0.82843   0.78143   0.00000  Uiso   1.00
O1002  O     0.31910   0.83824   0.88523   0.00000  Uiso   1.00
C1003  C     0.16473   0.83248   0.83422   0.00000  Uiso   1.00
C1004  C     0.33527   0.83419   0.83245   0.00000  Uiso   1.00
Cu1005 Cu    0.25501   0.83913   0.89479   0.00000  Uiso   1.00
Cu1006 Cu    0.24500   0.82754   0.77187   0.00000  Uiso   1.00
C1007  C     0.40930   0.88547   0.84674   0.00000  Uiso   1.00
C1008  C     0.09070   0.78120   0.81993   0.00000  Uiso   1.00
C1009  C     0.38341   0.83670   0.83058   0.00000  Uiso   1.00
C1010  C     0.11659   0.82996   0.83609   0.00000  Uiso   1.00
C1011  C     0.40294   0.78891   0.81369   0.00000  Uiso   1.00
C1012  C     0.09706   0.87776   0.85297   0.00000  Uiso   1.00
C1013  C     0.44900   0.78777   0.81273   0.00000  Uiso   1.00
C1014  C     0.05100   0.87890   0.85393   0.00000  Uiso   1.00
C1015  C     0.47652   0.83489   0.83314   0.00000  Uiso   1.00
C1016  C     0.02348   0.83177   0.83353   0.00000  Uiso   1.00
C1017  C     0.45707   0.88477   0.85325   0.00000  Uiso   1.00
C1018  C     0.04293   0.78190   0.81342   0.00000  Uiso   1.00
C1019  C     0.46729   0.73954   0.79044   0.00000  Uiso   1.00
C1020  C     0.03272   0.92713   0.87623   0.00000  Uiso   1.00
C1021  C     0.01348   0.73587   0.78785   0.00000  Uiso   1.00
C1022  C     0.48652   0.93080   0.87882   0.00000  Uiso   1.00
H1023  H     0.38178   0.75230   0.80019   0.00000  Uiso   1.00
H1024  H     0.11822   0.91436   0.86647   0.00000  Uiso   1.00
H1025  H     0.44489   0.70437   0.77290   0.00000  Uiso   1.00
H1026  H     0.05511   0.96230   0.89377   0.00000  Uiso   1.00
C1027  C     0.24801   0.67709   0.80905   0.00000  Uiso   1.00
C1028  C     0.25199   0.98957   0.85761   0.00000  Uiso   1.00
H1029  H     0.24423   0.98616   0.76247   0.00000  Uiso   1.00
H1030  H     0.25577   0.68051   0.90420   0.00000  Uiso   1.00
N1031  N     0.23745   0.81881   0.67951   0.00000  Uiso   1.00
N1032  N     0.26256   0.84786   0.98716   0.00000  Uiso   1.00
C1033  C     0.38547   0.93604   0.84902   0.00000  Uiso   1.00
H1034  H     0.35059   0.92860   0.82793   0.00000  Uiso   1.00
H1035  H     0.38318   0.95845   0.89680   0.00000  Uiso   1.00
H1036  H     0.40238   0.96013   0.82134   0.00000  Uiso   1.00
C1037  C     0.11453   0.73063   0.81766   0.00000  Uiso   1.00
H1038  H     0.14941   0.73806   0.83875   0.00000  Uiso   1.00
H1039  H     0.09762   0.70654   0.84533   0.00000  Uiso   1.00
H1040  H     0.11682   0.70822   0.76987   0.00000  Uiso   1.00
C1041  C     0.02816   0.68380   0.75130   0.00000  Uiso   1.00
H1042  H     0.49930   0.99127   0.72534   0.00000  Uiso   1.00
H1043  H     0.05059   0.69096   0.71634   0.00000  Uiso   1.00
H1044  H     0.04391   0.99397   0.78143   0.00000  Uiso   1.00
C1045  C     0.47184   0.98287   0.91537   0.00000  Uiso   1.00
H1046  H     0.00070   0.67540   0.94133   0.00000  Uiso   1.00
H1047  H     0.45609   0.67269   0.88524   0.00000  Uiso   1.00
H1048  H     0.44941   0.97571   0.95033   0.00000  Uiso   1.00
N1049  N     0.19406   0.80706   0.98616   0.00000  Uiso   1.00
O1050  O     0.18032   0.75780   0.96302   0.00000  Uiso   1.00
O1051  O     0.16447   0.84229   0.99862   0.00000  Uiso   1.00
N1052  N     0.30594   0.85962   0.68052   0.00000  Uiso   1.00
O1053  O     0.31966   0.90889   0.70368   0.00000  Uiso   1.00
O1054  O     0.33555   0.82441   0.66806   0.00000  Uiso   1.00
O1055  O     0.75326   0.76204   0.87326   0.00000  Uiso   1.00
O1056  O     0.74675   0.90462   0.79341   0.00000  Uiso   1.00
O1057  O     0.74480   0.75226   0.76945   0.00000  Uiso   1.00
O1058  O     0.75520   0.91441   0.89721   0.00000  Uiso   1.00
C1059  C     0.74868   0.73327   0.81765   0.00000  Uiso   1.00
C1060  C     0.75132   0.93340   0.84902   0.00000  Uiso   1.00
O1061  O     0.68936   0.83821   0.88524   0.00000  Uiso   1.00
O1062  O     0.81065   0.82845   0.78143   0.00000  Uiso   1.00
O1063  O     0.68090   0.82843   0.78143   0.00000  Uiso   1.00
O1064  O     0.81910   0.83824   0.88523   0.00000  Uiso   1.00
C1065  C     0.66473   0.83248   0.83422   0.00000  Uiso   1.00
C1066  C     0.83527   0.83419   0.83245   0.00000  Uiso   1.00
Cu1067 Cu    0.75501   0.83913   0.89479   0.00000  Uiso   1.00
Cu1068 Cu    0.74500   0.82754   0.77187   0.00000  Uiso   1.00
C1069  C     0.90930   0.88547   0.84674   0.00000  Uiso   1.00
C1070  C     0.59070   0.78120   0.81993   0.00000  Uiso   1.00
C1071  C     0.88341   0.83670   0.83058   0.00000  Uiso   1.00
C1072  C     0.61659   0.82996   0.83609   0.00000  Uiso   1.00
C1073  C     0.90294   0.78891   0.81369   0.00000  Uiso   1.00
C1074  C     0.59706   0.87776   0.85297   0.00000  Uiso   1.00
C1075  C     0.94900   0.78777   0.81273   0.00000  Uiso   1.00
C1076  C     0.55100   0.87890   0.85393   0.00000  Uiso   1.00
C1077  C     0.97652   0.83489   0.83314   0.00000  Uiso   1.00
C1078  C     0.52348   0.83177   0.83353   0.00000  Uiso   1.00
C1079  C     0.95707   0.88477   0.85325   0.00000  Uiso   1.00
C1080  C     0.54293   0.78190   0.81342   0.00000  Uiso   1.00
C1081  C     0.96729   0.73954   0.79044   0.00000  Uiso   1.00
C1082  C     0.53272   0.92713   0.87623   0.00000  Uiso   1.00
C1083  C     0.51348   0.73587   0.78785   0.00000  Uiso   1.00
C1084  C     0.98652   0.93080   0.87882   0.00000  Uiso   1.00
H1085  H     0.88178   0.75230   0.80019   0.00000  Uiso   1.00
H1086  H     0.61822   0.91436   0.86647   0.00000  Uiso   1.00
H1087  H     0.94489   0.70437   0.77290   0.00000  Uiso   1.00
H1088  H     0.55511   0.96230   0.89377   0.00000  Uiso   1.00
C1089  C     0.74801   0.67709   0.80905   0.00000  Uiso   1.00
C1090  C     0.75199   0.98957   0.85761   0.00000  Uiso   1.00
H1091  H     0.74423   0.98616   0.76247   0.00000  Uiso   1.00
H1092  H     0.75577   0.68051   0.90420   0.00000  Uiso   1.00
N1093  N     0.73745   0.81881   0.67951   0.00000  Uiso   1.00
N1094  N     0.76256   0.84786   0.98716   0.00000  Uiso   1.00
C1095  C     0.88547   0.93604   0.84902   0.00000  Uiso   1.00
H1096  H     0.85059   0.92860   0.82793   0.00000  Uiso   1.00
H1097  H     0.88318   0.95845   0.89680   0.00000  Uiso   1.00
H1098  H     0.90238   0.96013   0.82134   0.00000  Uiso   1.00
C1099  C     0.61453   0.73063   0.81766   0.00000  Uiso   1.00
H1100  H     0.64941   0.73806   0.83875   0.00000  Uiso   1.00
H1101  H     0.59762   0.70654   0.84533   0.00000  Uiso   1.00
H1102  H     0.61682   0.70822   0.76987   0.00000  Uiso   1.00
C1103  C     0.52816   0.68380   0.75130   0.00000  Uiso   1.00
H1104  H     0.99930   0.99127   0.72534   0.00000  Uiso   1.00
H1105  H     0.55059   0.69096   0.71634   0.00000  Uiso   1.00
H1106  H     0.54391   0.99397   0.78143   0.00000  Uiso   1.00
C1107  C     0.97184   0.98287   0.91537   0.00000  Uiso   1.00
H1108  H     0.50070   0.67540   0.94133   0.00000  Uiso   1.00
H1109  H     0.95609   0.67269   0.88524   0.00000  Uiso   1.00
H1110  H     0.94941   0.97571   0.95033   0.00000  Uiso   1.00
N1111  N     0.69406   0.80706   0.98616   0.00000  Uiso   1.00
O1112  O     0.68032   0.75780   0.96302   0.00000  Uiso   1.00
O1113  O     0.66447   0.84229   0.99862   0.00000  Uiso   1.00
N1114  N     0.80594   0.85962   0.68052   0.00000  Uiso   1.00
O1115  O     0.81966   0.90889   0.70368   0.00000  Uiso   1.00
O1116  O     0.83555   0.82441   0.66806   0.00000  Uiso   1.00
loop_
_geom_bond_atom_site_label_1
_geom_bond_atom_site_label_2
_geom_bond_distance
_geom_bond_site_symmetry_2
_ccdc_geom_bond_type
O1     C5      1.296   .     A
O1     Cu13    1.947   .     S
O2     C6      1.296   .     A
O2     Cu14    1.947   .     S
O3     Cu14    1.946   .     S
O3     C5      1.295   .     A
O4     C6      1.295   .     A
O4     Cu13    1.946   .     S
C5     C35     1.427   .     S
C6     C36     1.427   .     S
O7     Cu13    1.961   .     S
O7     C11     1.299   .     A
O8     C12     1.299   .     A
O8     Cu14    1.961   .     S
O9     Cu14    1.945   .     S
O9     C11     1.297   .     A
O10    C12     1.297   .     A
O10    Cu13    1.945   .     S
C11    C18     1.443   .     S
C12    C17     1.443   .     S
Cu13   Cu14    2.711   .     S
Cu13   N40     2.037   .     S
Cu14   N39     2.037   .     S
C15    C25     1.429   .     A
C15    C41     1.519   .     S
C15    C17     1.411   .     A
C16    C45     1.519   .     S
C16    C26     1.429   .     A
C16    C18     1.411   .     A
C17    C19     1.383   .     A
C18    C20     1.383   .     A
C19    H31     1.087   .     S
C19    C21     1.382   .     A
C20    C22     1.382   .     A
C20    H32     1.087   .     S
C21    C27     1.391   .     A
C21    C23     1.407   .     A
C22    C28     1.391   .     A
C22    C24     1.407   .     A
C23    C25     1.436   .     A
C23    C86     1.411   .     S
C24    C26     1.436   .     A
C24    C85     1.411   1_455 S
C25    C30     1.432   .     A
C26    C29     1.432   .     A
C27    H33     1.086   .     S
C27    C91     1.395   .     S
C28    H34     1.086   .     S
C28    C92     1.395   1_455 S
C29    C49     1.514   .     S
C29    C89     1.395   1_455 S
C30    C53     1.514   .     S
C30    C90     1.395   .     S
C35    C284    1.331   1_545 S
C35    H285    1.088   1_545 S
C36    C159    1.331   .     S
C36    H162    1.088   .     S
H37    C159    1.088   .     S
H38    C284    1.088   1_545 S
N39    N784    1.294   1_554 S
N39    N801    1.384   1_554 S
N40    N411    1.294   .     S
N40    N432    1.384   .     S
C41    H43     1.107   .     S
C41    H42     1.107   .     S
C41    H44     1.109   .     S
C45    H47     1.109   .     S
C45    H48     1.107   .     S
C45    H46     1.107   .     S
C49    H51     1.109   .     S
C49    H360    1.111   1_445 S
C49    H300    1.106   1_545 S
H50    C235    1.111   .     S
H52    C173    1.106   .     S
C53    H56     1.109   .     S
C53    H240    1.111   .     S
C53    H179    1.106   .     S
H54    C363    1.111   1_445 S
H55    C301    1.106   1_545 S
N57    O58     1.301   .     A
N57    O59     1.302   .     A
N57    N411    1.384   .     S
N60    O62     1.302   .     A
N60    O61     1.301   .     A
N60    N784    1.384   1_554 S
O63    C67     1.296   .     A
O63    Cu75    1.947   .     S
O64    C68     1.296   .     A
O64    Cu76    1.947   .     S
O65    Cu76    1.946   .     S
O65    C67     1.295   .     A
O66    C68     1.295   .     A
O66    Cu75    1.946   .     S
C67    C97     1.427   .     S
C68    C98     1.427   .     S
O69    Cu75    1.961   .     S
O69    C73     1.299   .     A
O70    C74     1.299   .     A
O70    Cu76    1.961   .     S
O71    Cu76    1.945   .     S
O71    C73     1.297   .     A
O72    C74     1.297   .     A
O72    Cu75    1.945   .     S
C73    C80     1.443   .     S
C74    C79     1.443   .     S
Cu75   Cu76    2.711   .     S
Cu75   N102    2.037   .     S
Cu76   N101    2.037   .     S
C77    C87     1.429   .     A
C77    C103    1.519   .     S
C77    C79     1.411   .     A
C78    C107    1.519   .     S
C78    C88     1.429   .     A
C78    C80     1.411   .     A
C79    C81     1.383   .     A
C80    C82     1.383   .     A
C81    H93     1.087   .     S
C81    C83     1.382   .     A
C82    C84     1.382   .     A
C82    H94     1.087   .     S
C83    C89     1.391   .     A
C83    C85     1.407   .     A
C84    C90     1.391   .     A
C84    C86     1.407   .     A
C85    C87     1.436   .     A
C85    C24     1.411   1_655 S
C86    C88     1.436   .     A
C87    C92     1.432   .     A
C88    C91     1.432   .     A
C89    H95     1.086   .     S
C89    C29     1.395   1_655 S
C90    H96     1.086   .     S
C91    C111    1.514   .     S
C92    C115    1.514   .     S
C92    C28     1.395   1_655 S
C97    C346    1.331   1_545 S
C97    H347    1.088   1_545 S
C98    C221    1.331   .     S
C98    H224    1.088   .     S
H99    C221    1.088   .     S
H100   C346    1.088   1_545 S
N101   N846    1.294   1_554 S
N101   N863    1.384   1_554 S
N102   N473    1.294   .     S
N102   N494    1.384   .     S
C103   H105    1.107   .     S
C103   H104    1.107   .     S
C103   H106    1.109   .     S
C107   H109    1.109   .     S
C107   H110    1.107   .     S
C107   H108    1.107   .     S
C111   H113    1.109   .     S
C111   H298    1.111   1_545 S
C111   H362    1.106   1_545 S
H112   C173    1.111   1_655 S
H114   C235    1.106   .     S
C115   H118    1.109   .     S
C115   H178    1.111   1_655 S
C115   H241    1.106   .     S
H116   C301    1.111   1_545 S
H117   C363    1.106   1_545 S
N119   O120    1.301   .     A
N119   O121    1.302   .     A
N119   N473    1.384   .     S
N122   O124    1.302   .     A
N122   O123    1.301   .     A
N122   N846    1.384   1_554 S
O125   C129    1.296   .     A
O125   Cu137   1.947   .     S
O126   C130    1.296   .     A
O126   Cu138   1.947   .     S
O127   Cu138   1.946   .     S
O127   C129    1.295   .     A
O128   C130    1.295   .     A
O128   Cu137   1.946   .     S
C129   C159    1.427   .     S
C130   C160    1.427   .     S
O131   Cu137   1.961   .     S
O131   C135    1.299   .     A
O132   C136    1.299   .     A
O132   Cu138   1.961   .     S
O133   Cu138   1.945   .     S
O133   C135    1.297   .     A
O134   C136    1.297   .     A
O134   Cu137   1.945   .     S
C135   C142    1.443   .     S
C136   C141    1.443   .     S
Cu137  Cu138   2.711   .     S
Cu137  N164    2.037   .     S
Cu138  N163    2.037   .     S
C139   C149    1.429   .     A
C139   C165    1.519   .     S
C139   C141    1.411   .     A
C140   C169    1.519   .     S
C140   C150    1.429   .     A
C140   C142    1.411   .     A
C141   C143    1.383   .     A
C142   C144    1.383   .     A
C143   H155    1.087   .     S
C143   C145    1.382   .     A
C144   C146    1.382   .     A
C144   H156    1.087   .     S
C145   C151    1.391   .     A
C145   C147    1.407   .     A
C146   C152    1.391   .     A
C146   C148    1.407   .     A
C147   C149    1.436   .     A
C147   C210    1.411   .     S
C148   C150    1.436   .     A
C148   C209    1.411   1_455 S
C149   C154    1.432   .     A
C150   C153    1.432   .     A
C151   H157    1.086   .     S
C151   C215    1.395   .     S
C152   H158    1.086   .     S
C152   C216    1.395   1_455 S
C153   C173    1.514   .     S
C153   C213    1.395   1_455 S
C154   C177    1.514   .     S
C154   C214    1.395   .     S
C160   C283    1.331   .     S
C160   H286    1.088   .     S
H161   C283    1.088   .     S
N163   N908    1.294   1_554 S
N163   N925    1.384   1_554 S
N164   N535    1.294   .     S
N164   N556    1.384   .     S
C165   H167    1.107   .     S
C165   H166    1.107   .     S
C165   H168    1.109   .     S
C169   H171    1.109   .     S
C169   H172    1.107   .     S
C169   H170    1.107   .     S
C173   H175    1.109   .     S
C173   H112    1.111   1_455 S
H174   C359    1.111   .     S
H176   C297    1.106   .     S
C177   H180    1.109   .     S
C177   H364    1.111   .     S
C177   H303    1.106   .     S
H178   C115    1.111   1_455 S
N181   O182    1.301   .     A
N181   O183    1.302   .     A
N181   N535    1.384   .     S
N184   O186    1.302   .     A
N184   O185    1.301   .     A
N184   N908    1.384   1_554 S
O187   C191    1.296   .     A
O187   Cu199   1.947   .     S
O188   C192    1.296   .     A
O188   Cu200   1.947   .     S
O189   Cu200   1.946   .     S
O189   C191    1.295   .     A
O190   C192    1.295   .     A
O190   Cu199   1.946   .     S
C191   C221    1.427   .     S
C192   C222    1.427   .     S
O193   Cu199   1.961   .     S
O193   C197    1.299   .     A
O194   C198    1.299   .     A
O194   Cu200   1.961   .     S
O195   Cu200   1.945   .     S
O195   C197    1.297   .     A
O196   C198    1.297   .     A
O196   Cu199   1.945   .     S
C197   C204    1.443   .     S
C198   C203    1.443   .     S
Cu199  Cu200   2.711   .     S
Cu199  N226    2.037   .     S
Cu200  N225    2.037   .     S
C201   C211    1.429   .     A
C201   C227    1.519   .     S
C201   C203    1.411   .     A
C202   C231    1.519   .     S
C202   C212    1.429   .     A
C202   C204    1.411   .     A
C203   C205    1.383   .     A
C204   C206    1.383   .     A
C205   H217    1.087   .     S
C205   C207    1.382   .     A
C206   C208    1.382   .     A
C206   H218    1.087   .     S
C207   C213    1.391   .     A
C207   C209    1.407   .     A
C208   C214    1.391   .     A
C208   C210    1.407   .     A
C209   C211    1.436   .     A
C209   C148    1.411   1_655 S
C210   C212    1.436   .     A
C211   C216    1.432   .     A
C212   C215    1.432   .     A
C213   H219    1.086   .     S
C213   C153    1.395   1_655 S
C214   H220    1.086   .     S
C215   C235    1.514   .     S
C216   C239    1.514   .     S
C216   C152    1.395   1_655 S
C222   C345    1.331   .     S
C222   H348    1.088   .     S
H223   C345    1.088   .     S
N225   N970    1.294   1_554 S
N225   N987    1.384   1_554 S
N226   N597    1.294   .     S
N226   N618    1.384   .     S
C227   H229    1.107   .     S
C227   H228    1.107   .     S
C227   H230    1.109   .     S
C231   H233    1.109   .     S
C231   H234    1.107   .     S
C231   H232    1.107   .     S
C235   H237    1.109   .     S
H236   C297    1.111   1_655 S
H238   C359    1.106   .     S
C239   H242    1.109   .     S
C239   H302    1.111   1_655 S
C239   H365    1.106   .     S
N243   O244    1.301   .     A
N243   O245    1.302   .     A
N243   N597    1.384   .     S
N246   O248    1.302   .     A
N246   O247    1.301   .     A
N246   N970    1.384   1_554 S
O249   C253    1.296   .     A
O249   Cu261   1.947   .     S
O250   C254    1.296   .     A
O250   Cu262   1.947   .     S
O251   Cu262   1.946   .     S
O251   C253    1.295   .     A
O252   C254    1.295   .     A
O252   Cu261   1.946   .     S
C253   C283    1.427   .     S
C254   C284    1.427   .     S
O255   Cu261   1.961   .     S
O255   C259    1.299   .     A
O256   C260    1.299   .     A
O256   Cu262   1.961   .     S
O257   Cu262   1.945   .     S
O257   C259    1.297   .     A
O258   C260    1.297   .     A
O258   Cu261   1.945   .     S
C259   C266    1.443   .     S
C260   C265    1.443   .     S
Cu261  Cu262   2.711   .     S
Cu261  N288    2.037   .     S
Cu262  N287    2.037   .     S
C263   C273    1.429   .     A
C263   C289    1.519   .     S
C263   C265    1.411   .     A
C264   C293    1.519   .     S
C264   C274    1.429   .     A
C264   C266    1.411   .     A
C265   C267    1.383   .     A
C266   C268    1.383   .     A
C267   H279    1.087   .     S
C267   C269    1.382   .     A
C268   C270    1.382   .     A
C268   H280    1.087   .     S
C269   C275    1.391   .     A
C269   C271    1.407   .     A
C270   C276    1.391   .     A
C270   C272    1.407   .     A
C271   C273    1.436   .     A
C271   C334    1.411   .     S
C272   C274    1.436   .     A
C272   C333    1.411   1_455 S
C273   C278    1.432   .     A
C274   C277    1.432   .     A
C275   H281    1.086   .     S
C275   C339    1.395   .     S
C276   H282    1.086   .     S
C276   C340    1.395   1_455 S
C277   C297    1.514   .     S
C277   C337    1.395   1_455 S
C278   C301    1.514   .     S
C278   C338    1.395   .     S
C284   C35     1.331   1_565 S
C284   H38     1.088   1_565 S
H285   C35     1.088   1_565 S
N287   N1032   1.294   1_554 S
N287   N1049   1.384   1_554 S
N288   N659    1.294   .     S
N288   N680    1.384   .     S
C289   H291    1.107   .     S
C289   H290    1.107   .     S
C289   H292    1.109   .     S
C293   H295    1.109   .     S
C293   H296    1.107   .     S
C293   H294    1.107   .     S
C297   H299    1.109   .     S
C297   H236    1.111   1_455 S
H298   C111    1.111   1_565 S
H300   C49     1.106   1_565 S
C301   H304    1.109   .     S
C301   H116    1.111   1_565 S
C301   H55     1.106   1_565 S
H302   C239    1.111   1_455 S
N305   O306    1.301   .     A
N305   O307    1.302   .     A
N305   N659    1.384   .     S
N308   O310    1.302   .     A
N308   O309    1.301   .     A
N308   N1032   1.384   1_554 S
O311   C315    1.296   .     A
O311   Cu323   1.947   .     S
O312   C316    1.296   .     A
O312   Cu324   1.947   .     S
O313   Cu324   1.946   .     S
O313   C315    1.295   .     A
O314   C316    1.295   .     A
O314   Cu323   1.946   .     S
C315   C345    1.427   .     S
C316   C346    1.427   .     S
O317   Cu323   1.961   .     S
O317   C321    1.299   .     A
O318   C322    1.299   .     A
O318   Cu324   1.961   .     S
O319   Cu324   1.945   .     S
O319   C321    1.297   .     A
O320   C322    1.297   .     A
O320   Cu323   1.945   .     S
C321   C328    1.443   .     S
C322   C327    1.443   .     S
Cu323  Cu324   2.711   .     S
Cu323  N350    2.037   .     S
Cu324  N349    2.037   .     S
C325   C335    1.429   .     A
C325   C351    1.519   .     S
C325   C327    1.411   .     A
C326   C355    1.519   .     S
C326   C336    1.429   .     A
C326   C328    1.411   .     A
C327   C329    1.383   .     A
C328   C330    1.383   .     A
C329   H341    1.087   .     S
C329   C331    1.382   .     A
C330   C332    1.382   .     A
C330   H342    1.087   .     S
C331   C337    1.391   .     A
C331   C333    1.407   .     A
C332   C338    1.391   .     A
C332   C334    1.407   .     A
C333   C335    1.436   .     A
C333   C272    1.411   1_655 S
C334   C336    1.436   .     A
C335   C340    1.432   .     A
C336   C339    1.432   .     A
C337   H343    1.086   .     S
C337   C277    1.395   1_655 S
C338   H344    1.086   .     S
C339   C359    1.514   .     S
C340   C363    1.514   .     S
C340   C276    1.395   1_655 S
C346   C97     1.331   1_565 S
C346   H100    1.088   1_565 S
H347   C97     1.088   1_565 S
N349   N1094   1.294   1_554 S
N349   N1111   1.384   1_554 S
N350   N721    1.294   .     S
N350   N742    1.384   .     S
C351   H353    1.107   .     S
C351   H352    1.107   .     S
C351   H354    1.109   .     S
C355   H357    1.109   .     S
C355   H358    1.107   .     S
C355   H356    1.107   .     S
C359   H361    1.109   .     S
H360   C49     1.111   1_665 S
H362   C111    1.106   1_565 S
C363   H366    1.109   .     S
C363   H54     1.111   1_665 S
C363   H117    1.106   1_565 S
N367   O368    1.301   .     A
N367   O369    1.302   .     A
N367   N721    1.384   .     S
N370   O372    1.302   .     A
N370   O371    1.301   .     A
N370   N1094   1.384   1_554 S
O373   C377    1.296   .     A
O373   Cu385   1.947   .     S
O374   C378    1.296   .     A
O374   Cu386   1.947   .     S
O375   Cu386   1.946   .     S
O375   C377    1.295   .     A
O376   C378    1.295   .     A
O376   Cu385   1.946   .     S
C377   C407    1.427   .     S
C378   C408    1.427   .     S
O379   Cu385   1.961   .     S
O379   C383    1.299   .     A
O380   C384    1.299   .     A
O380   Cu386   1.961   .     S
O381   Cu386   1.945   .     S
O381   C383    1.297   .     A
O382   C384    1.297   .     A
O382   Cu385   1.945   .     S
C383   C390    1.443   .     S
C384   C389    1.443   .     S
Cu385  Cu386   2.711   .     S
Cu385  N412    2.037   .     S
Cu386  N411    2.037   .     S
C387   C397    1.429   .     A
C387   C413    1.519   .     S
C387   C389    1.411   .     A
C388   C417    1.519   .     S
C388   C398    1.429   .     A
C388   C390    1.411   .     A
C389   C391    1.383   .     A
C390   C392    1.383   .     A
C391   H403    1.087   .     S
C391   C393    1.382   .     A
C392   C394    1.382   .     A
C392   H404    1.087   .     S
C393   C399    1.391   .     A
C393   C395    1.407   .     A
C394   C400    1.391   .     A
C394   C396    1.407   .     A
C395   C397    1.436   .     A
C395   C458    1.411   .     S
C396   C398    1.436   .     A
C396   C457    1.411   1_455 S
C397   C402    1.432   .     A
C398   C401    1.432   .     A
C399   H405    1.086   .     S
C399   C463    1.395   .     S
C400   H406    1.086   .     S
C400   C464    1.395   1_455 S
C401   C421    1.514   .     S
C401   C461    1.395   1_455 S
C402   C425    1.514   .     S
C402   C462    1.395   .     S
C407   C656    1.331   1_545 S
C407   H657    1.088   1_545 S
C408   C531    1.331   .     S
C408   H534    1.088   .     S
H409   C531    1.088   .     S
H410   C656    1.088   1_545 S
N412   N783    1.294   .     S
N412   N804    1.384   .     S
C413   H415    1.107   .     S
C413   H414    1.107   .     S
C413   H416    1.109   .     S
C417   H419    1.109   .     S
C417   H420    1.107   .     S
C417   H418    1.107   .     S
C421   H423    1.109   .     S
C421   H732    1.111   1_445 S
C421   H672    1.106   1_545 S
H422   C607    1.111   .     S
H424   C545    1.106   .     S
C425   H428    1.109   .     S
C425   H612    1.111   .     S
C425   H551    1.106   .     S
H426   C735    1.111   1_445 S
H427   C673    1.106   1_545 S
N429   O430    1.301   .     A
N429   O431    1.302   .     A
N429   N783    1.384   .     S
N432   O434    1.302   .     A
N432   O433    1.301   .     A
O435   C439    1.296   .     A
O435   Cu447   1.947   .     S
O436   C440    1.296   .     A
O436   Cu448   1.947   .     S
O437   Cu448   1.946   .     S
O437   C439    1.295   .     A
O438   C440    1.295   .     A
O438   Cu447   1.946   .     S
C439   C469    1.427   .     S
C440   C470    1.427   .     S
O441   Cu447   1.961   .     S
O441   C445    1.299   .     A
O442   C446    1.299   .     A
O442   Cu448   1.961   .     S
O443   Cu448   1.945   .     S
O443   C445    1.297   .     A
O444   C446    1.297   .     A
O444   Cu447   1.945   .     S
C445   C452    1.443   .     S
C446   C451    1.443   .     S
Cu447  Cu448   2.711   .     S
Cu447  N474    2.037   .     S
Cu448  N473    2.037   .     S
C449   C459    1.429   .     A
C449   C475    1.519   .     S
C449   C451    1.411   .     A
C450   C479    1.519   .     S
C450   C460    1.429   .     A
C450   C452    1.411   .     A
C451   C453    1.383   .     A
C452   C454    1.383   .     A
C453   H465    1.087   .     S
C453   C455    1.382   .     A
C454   C456    1.382   .     A
C454   H466    1.087   .     S
C455   C461    1.391   .     A
C455   C457    1.407   .     A
C456   C462    1.391   .     A
C456   C458    1.407   .     A
C457   C459    1.436   .     A
C457   C396    1.411   1_655 S
C458   C460    1.436   .     A
C459   C464    1.432   .     A
C460   C463    1.432   .     A
C461   H467    1.086   .     S
C461   C401    1.395   1_655 S
C462   H468    1.086   .     S
C463   C483    1.514   .     S
C464   C487    1.514   .     S
C464   C400    1.395   1_655 S
C469   C718    1.331   1_545 S
C469   H719    1.088   1_545 S
C470   C593    1.331   .     S
C470   H596    1.088   .     S
H471   C593    1.088   .     S
H472   C718    1.088   1_545 S
N474   N845    1.294   .     S
N474   N866    1.384   .     S
C475   H477    1.107   .     S
C475   H476    1.107   .     S
C475   H478    1.109   .     S
C479   H481    1.109   .     S
C479   H482    1.107   .     S
C479   H480    1.107   .     S
C483   H485    1.109   .     S
C483   H670    1.111   1_545 S
C483   H734    1.106   1_545 S
H484   C545    1.111   1_655 S
H486   C607    1.106   .     S
C487   H490    1.109   .     S
C487   H550    1.111   1_655 S
C487   H613    1.106   .     S
H488   C673    1.111   1_545 S
H489   C735    1.106   1_545 S
N491   O492    1.301   .     A
N491   O493    1.302   .     A
N491   N845    1.384   .     S
N494   O496    1.302   .     A
N494   O495    1.301   .     A
O497   C501    1.296   .     A
O497   Cu509   1.947   .     S
O498   C502    1.296   .     A
O498   Cu510   1.947   .     S
O499   Cu510   1.946   .     S
O499   C501    1.295   .     A
O500   C502    1.295   .     A
O500   Cu509   1.946   .     S
C501   C531    1.427   .     S
C502   C532    1.427   .     S
O503   Cu509   1.961   .     S
O503   C507    1.299   .     A
O504   C508    1.299   .     A
O504   Cu510   1.961   .     S
O505   Cu510   1.945   .     S
O505   C507    1.297   .     A
O506   C508    1.297   .     A
O506   Cu509   1.945   .     S
C507   C514    1.443   .     S
C508   C513    1.443   .     S
Cu509  Cu510   2.711   .     S
Cu509  N536    2.037   .     S
Cu510  N535    2.037   .     S
C511   C521    1.429   .     A
C511   C537    1.519   .     S
C511   C513    1.411   .     A
C512   C541    1.519   .     S
C512   C522    1.429   .     A
C512   C514    1.411   .     A
C513   C515    1.383   .     A
C514   C516    1.383   .     A
C515   H527    1.087   .     S
C515   C517    1.382   .     A
C516   C518    1.382   .     A
C516   H528    1.087   .     S
C517   C523    1.391   .     A
C517   C519    1.407   .     A
C518   C524    1.391   .     A
C518   C520    1.407   .     A
C519   C521    1.436   .     A
C519   C582    1.411   .     S
C520   C522    1.436   .     A
C520   C581    1.411   1_455 S
C521   C526    1.432   .     A
C522   C525    1.432   .     A
C523   H529    1.086   .     S
C523   C587    1.395   .     S
C524   H530    1.086   .     S
C524   C588    1.395   1_455 S
C525   C545    1.514   .     S
C525   C585    1.395   1_455 S
C526   C549    1.514   .     S
C526   C586    1.395   .     S
C532   C655    1.331   .     S
C532   H658    1.088   .     S
H533   C655    1.088   .     S
N536   N907    1.294   .     S
N536   N928    1.384   .     S
C537   H539    1.107   .     S
C537   H538    1.107   .     S
C537   H540    1.109   .     S
C541   H543    1.109   .     S
C541   H544    1.107   .     S
C541   H542    1.107   .     S
C545   H547    1.109   .     S
C545   H484    1.111   1_455 S
H546   C731    1.111   .     S
H548   C669    1.106   .     S
C549   H552    1.109   .     S
C549   H736    1.111   .     S
C549   H675    1.106   .     S
H550   C487    1.111   1_455 S
N553   O554    1.301   .     A
N553   O555    1.302   .     A
N553   N907    1.384   .     S
N556   O558    1.302   .     A
N556   O557    1.301   .     A
O559   C563    1.296   .     A
O559   Cu571   1.947   .     S
O560   C564    1.296   .     A
O560   Cu572   1.947   .     S
O561   Cu572   1.946   .     S
O561   C563    1.295   .     A
O562   C564    1.295   .     A
O562   Cu571   1.946   .     S
C563   C593    1.427   .     S
C564   C594    1.427   .     S
O565   Cu571   1.961   .     S
O565   C569    1.299   .     A
O566   C570    1.299   .     A
O566   Cu572   1.961   .     S
O567   Cu572   1.945   .     S
O567   C569    1.297   .     A
O568   C570    1.297   .     A
O568   Cu571   1.945   .     S
C569   C576    1.443   .     S
C570   C575    1.443   .     S
Cu571  Cu572   2.711   .     S
Cu571  N598    2.037   .     S
Cu572  N597    2.037   .     S
C573   C583    1.429   .     A
C573   C599    1.519   .     S
C573   C575    1.411   .     A
C574   C603    1.519   .     S
C574   C584    1.429   .     A
C574   C576    1.411   .     A
C575   C577    1.383   .     A
C576   C578    1.383   .     A
C577   H589    1.087   .     S
C577   C579    1.382   .     A
C578   C580    1.382   .     A
C578   H590    1.087   .     S
C579   C585    1.391   .     A
C579   C581    1.407   .     A
C580   C586    1.391   .     A
C580   C582    1.407   .     A
C581   C583    1.436   .     A
C581   C520    1.411   1_655 S
C582   C584    1.436   .     A
C583   C588    1.432   .     A
C584   C587    1.432   .     A
C585   H591    1.086   .     S
C585   C525    1.395   1_655 S
C586   H592    1.086   .     S
C587   C607    1.514   .     S
C588   C611    1.514   .     S
C588   C524    1.395   1_655 S
C594   C717    1.331   .     S
C594   H720    1.088   .     S
H595   C717    1.088   .     S
N598   N969    1.294   .     S
N598   N990    1.384   .     S
C599   H601    1.107   .     S
C599   H600    1.107   .     S
C599   H602    1.109   .     S
C603   H605    1.109   .     S
C603   H606    1.107   .     S
C603   H604    1.107   .     S
C607   H609    1.109   .     S
H608   C669    1.111   1_655 S
H610   C731    1.106   .     S
C611   H614    1.109   .     S
C611   H674    1.111   1_655 S
C611   H737    1.106   .     S
N615   O616    1.301   .     A
N615   O617    1.302   .     A
N615   N969    1.384   .     S
N618   O620    1.302   .     A
N618   O619    1.301   .     A
O621   C625    1.296   .     A
O621   Cu633   1.947   .     S
O622   C626    1.296   .     A
O622   Cu634   1.947   .     S
O623   Cu634   1.946   .     S
O623   C625    1.295   .     A
O624   C626    1.295   .     A
O624   Cu633   1.946   .     S
C625   C655    1.427   .     S
C626   C656    1.427   .     S
O627   Cu633   1.961   .     S
O627   C631    1.299   .     A
O628   C632    1.299   .     A
O628   Cu634   1.961   .     S
O629   Cu634   1.945   .     S
O629   C631    1.297   .     A
O630   C632    1.297   .     A
O630   Cu633   1.945   .     S
C631   C638    1.443   .     S
C632   C637    1.443   .     S
Cu633  Cu634   2.711   .     S
Cu633  N660    2.037   .     S
Cu634  N659    2.037   .     S
C635   C645    1.429   .     A
C635   C661    1.519   .     S
C635   C637    1.411   .     A
C636   C665    1.519   .     S
C636   C646    1.429   .     A
C636   C638    1.411   .     A
C637   C639    1.383   .     A
C638   C640    1.383   .     A
C639   H651    1.087   .     S
C639   C641    1.382   .     A
C640   C642    1.382   .     A
C640   H652    1.087   .     S
C641   C647    1.391   .     A
C641   C643    1.407   .     A
C642   C648    1.391   .     A
C642   C644    1.407   .     A
C643   C645    1.436   .     A
C643   C706    1.411   .     S
C644   C646    1.436   .     A
C644   C705    1.411   1_455 S
C645   C650    1.432   .     A
C646   C649    1.432   .     A
C647   H653    1.086   .     S
C647   C711    1.395   .     S
C648   H654    1.086   .     S
C648   C712    1.395   1_455 S
C649   C669    1.514   .     S
C649   C709    1.395   1_455 S
C650   C673    1.514   .     S
C650   C710    1.395   .     S
C656   C407    1.331   1_565 S
C656   H410    1.088   1_565 S
H657   C407    1.088   1_565 S
N660   N1031   1.294   .     S
N660   N1052   1.384   .     S
C661   H663    1.107   .     S
C661   H662    1.107   .     S
C661   H664    1.109   .     S
C665   H667    1.109   .     S
C665   H668    1.107   .     S
C665   H666    1.107   .     S
C669   H671    1.109   .     S
C669   H608    1.111   1_455 S
H670   C483    1.111   1_565 S
H672   C421    1.106   1_565 S
C673   H676    1.109   .     S
C673   H488    1.111   1_565 S
C673   H427    1.106   1_565 S
H674   C611    1.111   1_455 S
N677   O678    1.301   .     A
N677   O679    1.302   .     A
N677   N1031   1.384   .     S
N680   O682    1.302   .     A
N680   O681    1.301   .     A
O683   C687    1.296   .     A
O683   Cu695   1.947   .     S
O684   C688    1.296   .     A
O684   Cu696   1.947   .     S
O685   Cu696   1.946   .     S
O685   C687    1.295   .     A
O686   C688    1.295   .     A
O686   Cu695   1.946   .     S
C687   C717    1.427   .     S
C688   C718    1.427   .     S
O689   Cu695   1.961   .     S
O689   C693    1.299   .     A
O690   C694    1.299   .     A
O690   Cu696   1.961   .     S
O691   Cu696   1.945   .     S
O691   C693    1.297   .     A
O692   C694    1.297   .     A
O692   Cu695   1.945   .     S
C693   C700    1.443   .     S
C694   C699    1.443   .     S
Cu695  Cu696   2.711   .     S
Cu695  N722    2.037   .     S
Cu696  N721    2.037   .     S
C697   C707    1.429   .     A
C697   C723    1.519   .     S
C697   C699    1.411   .     A
C698   C727    1.519   .     S
C698   C708    1.429   .     A
C698   C700    1.411   .     A
C699   C701    1.383   .     A
C700   C702    1.383   .     A
C701   H713    1.087   .     S
C701   C703    1.382   .     A
C702   C704    1.382   .     A
C702   H714    1.087   .     S
C703   C709    1.391   .     A
C703   C705    1.407   .     A
C704   C710    1.391   .     A
C704   C706    1.407   .     A
C705   C707    1.436   .     A
C705   C644    1.411   1_655 S
C706   C708    1.436   .     A
C707   C712    1.432   .     A
C708   C711    1.432   .     A
C709   H715    1.086   .     S
C709   C649    1.395   1_655 S
C710   H716    1.086   .     S
C711   C731    1.514   .     S
C712   C735    1.514   .     S
C712   C648    1.395   1_655 S
C718   C469    1.331   1_565 S
C718   H472    1.088   1_565 S
H719   C469    1.088   1_565 S
N722   N1093   1.294   .     S
N722   N1114   1.384   .     S
C723   H725    1.107   .     S
C723   H724    1.107   .     S
C723   H726    1.109   .     S
C727   H729    1.109   .     S
C727   H730    1.107   .     S
C727   H728    1.107   .     S
C731   H733    1.109   .     S
H732   C421    1.111   1_665 S
H734   C483    1.106   1_565 S
C735   H738    1.109   .     S
C735   H426    1.111   1_665 S
C735   H489    1.106   1_565 S
N739   O740    1.301   .     A
N739   O741    1.302   .     A
N739   N1093   1.384   .     S
N742   O744    1.302   .     A
N742   O743    1.301   .     A
O745   C749    1.296   .     A
O745   Cu757   1.947   .     S
O746   C750    1.296   .     A
O746   Cu758   1.947   .     S
O747   Cu758   1.946   .     S
O747   C749    1.295   .     A
O748   C750    1.295   .     A
O748   Cu757   1.946   .     S
C749   C779    1.427   .     S
C750   C780    1.427   .     S
O751   Cu757   1.961   .     S
O751   C755    1.299   .     A
O752   C756    1.299   .     A
O752   Cu758   1.961   .     S
O753   Cu758   1.945   .     S
O753   C755    1.297   .     A
O754   C756    1.297   .     A
O754   Cu757   1.945   .     S
C755   C762    1.443   .     S
C756   C761    1.443   .     S
Cu757  Cu758   2.711   .     S
Cu757  N784    2.037   .     S
Cu758  N783    2.037   .     S
C759   C769    1.429   .     A
C759   C785    1.519   .     S
C759   C761    1.411   .     A
C760   C789    1.519   .     S
C760   C770    1.429   .     A
C760   C762    1.411   .     A
C761   C763    1.383   .     A
C762   C764    1.383   .     A
C763   H775    1.087   .     S
C763   C765    1.382   .     A
C764   C766    1.382   .     A
C764   H776    1.087   .     S
C765   C771    1.391   .     A
C765   C767    1.407   .     A
C766   C772    1.391   .     A
C766   C768    1.407   .     A
C767   C769    1.436   .     A
C767   C830    1.411   .     S
C768   C770    1.436   .     A
C768   C829    1.411   1_455 S
C769   C774    1.432   .     A
C770   C773    1.432   .     A
C771   H777    1.086   .     S
C771   C835    1.395   .     S
C772   H778    1.086   .     S
C772   C836    1.395   1_455 S
C773   C793    1.514   .     S
C773   C833    1.395   1_455 S
C774   C797    1.514   .     S
C774   C834    1.395   .     S
C779   C1028   1.331   1_545 S
C779   H1029   1.088   1_545 S
C780   C903    1.331   .     S
C780   H906    1.088   .     S
H781   C903    1.088   .     S
H782   C1028   1.088   1_545 S
N784   N39     1.294   1_556 S
N784   N60     1.384   1_556 S
C785   H787    1.107   .     S
C785   H786    1.107   .     S
C785   H788    1.109   .     S
C789   H791    1.109   .     S
C789   H792    1.107   .     S
C789   H790    1.107   .     S
C793   H795    1.109   .     S
C793   H1104   1.111   1_445 S
C793   H1044   1.106   1_545 S
H794   C979    1.111   .     S
H796   C917    1.106   .     S
C797   H800    1.109   .     S
C797   H984    1.111   .     S
C797   H923    1.106   .     S
H798   C1107   1.111   1_445 S
H799   C1045   1.106   1_545 S
N801   O802    1.301   .     A
N801   O803    1.302   .     A
N801   N39     1.384   1_556 S
N804   O806    1.302   .     A
N804   O805    1.301   .     A
O807   C811    1.296   .     A
O807   Cu819   1.947   .     S
O808   C812    1.296   .     A
O808   Cu820   1.947   .     S
O809   Cu820   1.946   .     S
O809   C811    1.295   .     A
O810   C812    1.295   .     A
O810   Cu819   1.946   .     S
C811   C841    1.427   .     S
C812   C842    1.427   .     S
O813   Cu819   1.961   .     S
O813   C817    1.299   .     A
O814   C818    1.299   .     A
O814   Cu820   1.961   .     S
O815   Cu820   1.945   .     S
O815   C817    1.297   .     A
O816   C818    1.297   .     A
O816   Cu819   1.945   .     S
C817   C824    1.443   .     S
C818   C823    1.443   .     S
Cu819  Cu820   2.711   .     S
Cu819  N846    2.037   .     S
Cu820  N845    2.037   .     S
C821   C831    1.429   .     A
C821   C847    1.519   .     S
C821   C823    1.411   .     A
C822   C851    1.519   .     S
C822   C832    1.429   .     A
C822   C824    1.411   .     A
C823   C825    1.383   .     A
C824   C826    1.383   .     A
C825   H837    1.087   .     S
C825   C827    1.382   .     A
C826   C828    1.382   .     A
C826   H838    1.087   .     S
C827   C833    1.391   .     A
C827   C829    1.407   .     A
C828   C834    1.391   .     A
C828   C830    1.407   .     A
C829   C831    1.436   .     A
C829   C768    1.411   1_655 S
C830   C832    1.436   .     A
C831   C836    1.432   .     A
C832   C835    1.432   .     A
C833   H839    1.086   .     S
C833   C773    1.395   1_655 S
C834   H840    1.086   .     S
C835   C855    1.514   .     S
C836   C859    1.514   .     S
C836   C772    1.395   1_655 S
C841   C1090   1.331   1_545 S
C841   H1091   1.088   1_545 S
C842   C965    1.331   .     S
C842   H968    1.088   .     S
H843   C965    1.088   .     S
H844   C1090   1.088   1_545 S
N846   N101    1.294   1_556 S
N846   N122    1.384   1_556 S
C847   H849    1.107   .     S
C847   H848    1.107   .     S
C847   H850    1.109   .     S
C851   H853    1.109   .     S
C851   H854    1.107   .     S
C851   H852    1.107   .     S
C855   H857    1.109   .     S
C855   H1042   1.111   1_545 S
C855   H1106   1.106   1_545 S
H856   C917    1.111   1_655 S
H858   C979    1.106   .     S
C859   H862    1.109   .     S
C859   H922    1.111   1_655 S
C859   H985    1.106   .     S
H860   C1045   1.111   1_545 S
H861   C1107   1.106   1_545 S
N863   O864    1.301   .     A
N863   O865    1.302   .     A
N863   N101    1.384   1_556 S
N866   O868    1.302   .     A
N866   O867    1.301   .     A
O869   C873    1.296   .     A
O869   Cu881   1.947   .     S
O870   C874    1.296   .     A
O870   Cu882   1.947   .     S
O871   Cu882   1.946   .     S
O871   C873    1.295   .     A
O872   C874    1.295   .     A
O872   Cu881   1.946   .     S
C873   C903    1.427   .     S
C874   C904    1.427   .     S
O875   Cu881   1.961   .     S
O875   C879    1.299   .     A
O876   C880    1.299   .     A
O876   Cu882   1.961   .     S
O877   Cu882   1.945   .     S
O877   C879    1.297   .     A
O878   C880    1.297   .     A
O878   Cu881   1.945   .     S
C879   C886    1.443   .     S
C880   C885    1.443   .     S
Cu881  Cu882   2.711   .     S
Cu881  N908    2.037   .     S
Cu882  N907    2.037   .     S
C883   C893    1.429   .     A
C883   C909    1.519   .     S
C883   C885    1.411   .     A
C884   C913    1.519   .     S
C884   C894    1.429   .     A
C884   C886    1.411   .     A
C885   C887    1.383   .     A
C886   C888    1.383   .     A
C887   H899    1.087   .     S
C887   C889    1.382   .     A
C888   C890    1.382   .     A
C888   H900    1.087   .     S
C889   C895    1.391   .     A
C889   C891    1.407   .     A
C890   C896    1.391   .     A
C890   C892    1.407   .     A
C891   C893    1.436   .     A
C891   C954    1.411   .     S
C892   C894    1.436   .     A
C892   C953    1.411   1_455 S
C893   C898    1.432   .     A
C894   C897    1.432   .     A
C895   H901    1.086   .     S
C895   C959    1.395   .     S
C896   H902    1.086   .     S
C896   C960    1.395   1_455 S
C897   C917    1.514   .     S
C897   C957    1.395   1_455 S
C898   C921    1.514   .     S
C898   C958    1.395   .     S
C904   C1027   1.331   .     S
C904   H1030   1.088   .     S
H905   C1027   1.088   .     S
N908   N163    1.294   1_556 S
N908   N184    1.384   1_556 S
C909   H911    1.107   .     S
C909   H910    1.107   .     S
C909   H912    1.109   .     S
C913   H915    1.109   .     S
C913   H916    1.107   .     S
C913   H914    1.107   .     S
C917   H919    1.109   .     S
C917   H856    1.111   1_455 S
H918   C1103   1.111   .     S
H920   C1041   1.106   .     S
C921   H924    1.109   .     S
C921   H1108   1.111   .     S
C921   H1047   1.106   .     S
H922   C859    1.111   1_455 S
N925   O926    1.301   .     A
N925   O927    1.302   .     A
N925   N163    1.384   1_556 S
N928   O930    1.302   .     A
N928   O929    1.301   .     A
O931   C935    1.296   .     A
O931   Cu943   1.947   .     S
O932   C936    1.296   .     A
O932   Cu944   1.947   .     S
O933   Cu944   1.946   .     S
O933   C935    1.295   .     A
O934   C936    1.295   .     A
O934   Cu943   1.946   .     S
C935   C965    1.427   .     S
C936   C966    1.427   .     S
O937   Cu943   1.961   .     S
O937   C941    1.299   .     A
O938   C942    1.299   .     A
O938   Cu944   1.961   .     S
O939   Cu944   1.945   .     S
O939   C941    1.297   .     A
O940   C942    1.297   .     A
O940   Cu943   1.945   .     S
C941   C948    1.443   .     S
C942   C947    1.443   .     S
Cu943  Cu944   2.711   .     S
Cu943  N970    2.037   .     S
Cu944  N969    2.037   .     S
C945   C955    1.429   .     A
C945   C971    1.519   .     S
C945   C947    1.411   .     A
C946   C975    1.519   .     S
C946   C956    1.429   .     A
C946   C948    1.411   .     A
C947   C949    1.383   .     A
C948   C950    1.383   .     A
C949   H961    1.087   .     S
C949   C951    1.382   .     A
C950   C952    1.382   .     A
C950   H962    1.087   .     S
C951   C957    1.391   .     A
C951   C953    1.407   .     A
C952   C958    1.391   .     A
C952   C954    1.407   .     A
C953   C955    1.436   .     A
C953   C892    1.411   1_655 S
C954   C956    1.436   .     A
C955   C960    1.432   .     A
C956   C959    1.432   .     A
C957   H963    1.086   .     S
C957   C897    1.395   1_655 S
C958   H964    1.086   .     S
C959   C979    1.514   .     S
C960   C983    1.514   .     S
C960   C896    1.395   1_655 S
C966   C1089   1.331   .     S
C966   H1092   1.088   .     S
H967   C1089   1.088   .     S
N970   N225    1.294   1_556 S
N970   N246    1.384   1_556 S
C971   H973    1.107   .     S
C971   H972    1.107   .     S
C971   H974    1.109   .     S
C975   H977    1.109   .     S
C975   H978    1.107   .     S
C975   H976    1.107   .     S
C979   H981    1.109   .     S
H980   C1041   1.111   1_655 S
H982   C1103   1.106   .     S
C983   H986    1.109   .     S
C983   H1046   1.111   1_655 S
C983   H1109   1.106   .     S
N987   O988    1.301   .     A
N987   O989    1.302   .     A
N987   N225    1.384   1_556 S
N990   O992    1.302   .     A
N990   O991    1.301   .     A
O993   C997    1.296   .     A
O993   Cu1005  1.947   .     S
O994   C998    1.296   .     A
O994   Cu1006  1.947   .     S
O995   Cu1006  1.946   .     S
O995   C997    1.295   .     A
O996   C998    1.295   .     A
O996   Cu1005  1.946   .     S
C997   C1027   1.427   .     S
C998   C1028   1.427   .     S
O999   Cu1005  1.961   .     S
O999   C1003   1.299   .     A
O1000  C1004   1.299   .     A
O1000  Cu1006  1.961   .     S
O1001  Cu1006  1.945   .     S
O1001  C1003   1.297   .     A
O1002  C1004   1.297   .     A
O1002  Cu1005  1.945   .     S
C1003  C1010   1.443   .     S
C1004  C1009   1.443   .     S
Cu1005 Cu1006  2.711   .     S
Cu1005 N1032   2.037   .     S
Cu1006 N1031   2.037   .     S
C1007  C1017   1.429   .     A
C1007  C1033   1.519   .     S
C1007  C1009   1.411   .     A
C1008  C1037   1.519   .     S
C1008  C1018   1.429   .     A
C1008  C1010   1.411   .     A
C1009  C1011   1.383   .     A
C1010  C1012   1.383   .     A
C1011  H1023   1.087   .     S
C1011  C1013   1.382   .     A
C1012  C1014   1.382   .     A
C1012  H1024   1.087   .     S
C1013  C1019   1.391   .     A
C1013  C1015   1.407   .     A
C1014  C1020   1.391   .     A
C1014  C1016   1.407   .     A
C1015  C1017   1.436   .     A
C1015  C1078   1.411   .     S
C1016  C1018   1.436   .     A
C1016  C1077   1.411   1_455 S
C1017  C1022   1.432   .     A
C1018  C1021   1.432   .     A
C1019  H1025   1.086   .     S
C1019  C1083   1.395   .     S
C1020  H1026   1.086   .     S
C1020  C1084   1.395   1_455 S
C1021  C1041   1.514   .     S
C1021  C1081   1.395   1_455 S
C1022  C1045   1.514   .     S
C1022  C1082   1.395   .     S
C1028  C779    1.331   1_565 S
C1028  H782    1.088   1_565 S
H1029  C779    1.088   1_565 S
N1032  N287    1.294   1_556 S
N1032  N308    1.384   1_556 S
C1033  H1035   1.107   .     S
C1033  H1034   1.107   .     S
C1033  H1036   1.109   .     S
C1037  H1039   1.109   .     S
C1037  H1040   1.107   .     S
C1037  H1038   1.107   .     S
C1041  H1043   1.109   .     S
C1041  H980    1.111   1_455 S
H1042  C855    1.111   1_565 S
H1044  C793    1.106   1_565 S
C1045  H1048   1.109   .     S
C1045  H860    1.111   1_565 S
C1045  H799    1.106   1_565 S
H1046  C983    1.111   1_455 S
N1049  O1050   1.301   .     A
N1049  O1051   1.302   .     A
N1049  N287    1.384   1_556 S
N1052  O1054   1.302   .     A
N1052  O1053   1.301   .     A
O1055  C1059   1.296   .     A
O1055  Cu1067  1.947   .     S
O1056  C1060   1.296   .     A
O1056  Cu1068  1.947   .     S
O1057  Cu1068  1.946   .     S
O1057  C1059   1.295   .     A
O1058  C1060   1.295   .     A
O1058  Cu1067  1.946   .     S
C1059  C1089   1.427   .     S
C1060  C1090   1.427   .     S
O1061  Cu1067  1.961   .     S
O1061  C1065   1.299   .     A
O1062  C1066   1.299   .     A
O1062  Cu1068  1.961   .     S
O1063  Cu1068  1.945   .     S
O1063  C1065   1.297   .     A
O1064  C1066   1.297   .     A
O1064  Cu1067  1.945   .     S
C1065  C1072   1.443   .     S
C1066  C1071   1.443   .     S
Cu1067 Cu1068  2.711   .     S
Cu1067 N1094   2.037   .     S
Cu1068 N1093   2.037   .     S
C1069  C1079   1.429   .     A
C1069  C1095   1.519   .     S
C1069  C1071   1.411   .     A
C1070  C1099   1.519   .     S
C1070  C1080   1.429   .     A
C1070  C1072   1.411   .     A
C1071  C1073   1.383   .     A
C1072  C1074   1.383   .     A
C1073  H1085   1.087   .     S
C1073  C1075   1.382   .     A
C1074  C1076   1.382   .     A
C1074  H1086   1.087   .     S
C1075  C1081   1.391   .     A
C1075  C1077   1.407   .     A
C1076  C1082   1.391   .     A
C1076  C1078   1.407   .     A
C1077  C1079   1.436   .     A
C1077  C1016   1.411   1_655 S
C1078  C1080   1.436   .     A
C1079  C1084   1.432   .     A
C1080  C1083   1.432   .     A
C1081  H1087   1.086   .     S
C1081  C1021   1.395   1_655 S
C1082  H1088   1.086   .     S
C1083  C1103   1.514   .     S
C1084  C1107   1.514   .     S
C1084  C1020   1.395   1_655 S
C1090  C841    1.331   1_565 S
C1090  H844    1.088   1_565 S
H1091  C841    1.088   1_565 S
N1094  N349    1.294   1_556 S
N1094  N370    1.384   1_556 S
C1095  H1097   1.107   .     S
C1095  H1096   1.107   .     S
C1095  H1098   1.109   .     S
C1099  H1101   1.109   .     S
C1099  H1102   1.107   .     S
C1099  H1100   1.107   .     S
C1103  H1105   1.109   .     S
H1104  C793    1.111   1_665 S
H1106  C855    1.106   1_565 S
C1107  H1110   1.109   .     S
C1107  H798    1.111   1_665 S
C1107  H861    1.106   1_565 S
N1111  O1112   1.301   .     A
N1111  O1113   1.302   .     A
N1111  N349    1.384   1_556 S
N1114  O1116   1.302   .     A
N1114  O1115   1.301   .     A
