data_str_m1_o10_o18_pcu_sym.126
_audit_creation_date              2020-01-03
_audit_creation_method            'Materials Studio'
_symmetry_space_group_name_H-M    'P1'
_symmetry_Int_Tables_number       1
_symmetry_cell_setting            triclinic
loop_
_symmetry_equiv_pos_as_xyz
  x,y,z
_cell_length_a                    32.4665
_cell_length_b                    32.6444
_cell_length_c                    35.4481
_cell_angle_alpha                 98.4547
_cell_angle_beta                  73.0711
_cell_angle_gamma                 98.4776
loop_
_atom_site_label
_atom_site_type_symbol
_atom_site_fract_x
_atom_site_fract_y
_atom_site_fract_z
_atom_site_U_iso_or_equiv
_atom_site_adp_type
_atom_site_occupancy
C1     C     0.05242   0.15984   0.25889   0.00000  Uiso   1.00
C2     C     0.17933   0.11204   0.46188   0.00000  Uiso   1.00
C3     C     0.20428   0.09607   0.48115   0.00000  Uiso   1.00
C4     C     0.28107   0.17354   0.24121   0.00000  Uiso   1.00
C5     C     0.20183   0.10966   0.02102   0.00000  Uiso   1.00
C6     C     0.17057   0.13683   0.04289   0.00000  Uiso   1.00
C7     C     0.22922   0.09582   0.03985   0.00000  Uiso   1.00
C8     C     0.22567   0.10860   0.07982   0.00000  Uiso   1.00
C9     C     0.16974   0.15119   0.08256   0.00000  Uiso   1.00
C10    C     0.32706   0.17615   0.23765   0.00000  Uiso   1.00
C11    C     0.00704   0.15751   0.26234   0.00000  Uiso   1.00
C12    C     0.09487   0.21281   0.42224   0.00000  Uiso   1.00
C13    C     0.17932   0.32212   0.23802   0.00000  Uiso   1.00
C14    C     0.14984   0.01236   0.26328   0.00000  Uiso   1.00
C15    C     0.15581   0.05631   0.25897   0.00000  Uiso   1.00
C16    C     0.17659   0.27770   0.24141   0.00000  Uiso   1.00
C17    C     0.18800   0.14531   0.14388   0.00000  Uiso   1.00
C18    C     0.14508   0.18761   0.35656   0.00000  Uiso   1.00
C19    C     0.13121   0.19222   0.40061   0.00000  Uiso   1.00
C20    C     0.19588   0.13610   0.10111   0.00000  Uiso   1.00
C21    C     0.08234   0.21603   0.46387   0.00000  Uiso   1.00
C22    C     0.00836   0.18135   0.04352   0.00000  Uiso   1.00
C23    C     0.15299   0.17351   0.42123   0.00000  Uiso   1.00
C24    C     0.30282   0.20597   0.06048   0.00000  Uiso   1.00
C25    C     0.20512   0.33297   0.17281   0.00000  Uiso   1.00
C26    C     0.23962   0.02497   0.14361   0.00000  Uiso   1.00
C27    C     0.08076   0.01871   0.30709   0.00000  Uiso   1.00
C28    C     0.04340   0.32742   0.33439   0.00000  Uiso   1.00
C29    C     0.07287   0.28293   0.48941   0.00000  Uiso   1.00
C30    C     0.03986   0.31217   0.01330   0.00000  Uiso   1.00
C31    C     0.03473   0.20678   0.40067   0.00000  Uiso   1.00
C32    C     0.01079   0.22749   0.37897   0.00000  Uiso   1.00
C33    C     0.06598   0.12248   0.08972   0.00000  Uiso   1.00
C34    C     0.13481   0.16847   0.46192   0.00000  Uiso   1.00
C35    C     0.03400   0.12104   0.13066   0.00000  Uiso   1.00
C36    C     0.14231   0.06495   0.42633   0.00000  Uiso   1.00
C37    C     0.14306   0.04407   0.38491   0.00000  Uiso   1.00
C38    C     0.09961   0.19112   0.48380   0.00000  Uiso   1.00
C39    C     0.15286   0.14400   0.48193   0.00000  Uiso   1.00
C40    C     0.14248   0.15014   0.02389   0.00000  Uiso   1.00
C41    C     0.10357   0.16790   0.04492   0.00000  Uiso   1.00
C42    C     0.08237   0.18814   0.02496   0.00000  Uiso   1.00
F43    F     0.25917   0.06960   0.01996   0.00000  Uiso   1.00
F44    F     0.23070   0.06696   0.46043   0.00000  Uiso   1.00
F45    F     0.19380   0.16398   0.40222   0.00000  Uiso   1.00
H46    H     0.01684   0.19323   0.21485   0.00000  Uiso   1.00
H47    H     0.17300   0.00930   0.17459   0.00000  Uiso   1.00
H48    H     0.20578   0.29943   0.16116   0.00000  Uiso   1.00
H49    H     0.27209   0.01556   0.14038   0.00000  Uiso   1.00
H50    H     0.23295   0.01958   0.11417   0.00000  Uiso   1.00
H51    H     0.23949   0.05868   0.15442   0.00000  Uiso   1.00
H52    H     0.06954   0.02498   0.28185   0.00000  Uiso   1.00
H53    H     0.08930   0.04860   0.32411   0.00000  Uiso   1.00
H54    H     0.05346   0.31983   0.35970   0.00000  Uiso   1.00
H55    H     0.01551   0.01275   0.34608   0.00000  Uiso   1.00
H56    H     0.03315   0.29805   0.31772   0.00000  Uiso   1.00
H57    H     0.31795   0.14039   0.28544   0.00000  Uiso   1.00
H58    H     0.08884   0.29484   0.46015   0.00000  Uiso   1.00
H59    H     0.09758   0.28349   0.00576   0.00000  Uiso   1.00
H60    H     0.02442   0.30210   0.04328   0.00000  Uiso   1.00
H61    H     0.05619   0.01103   0.01650   0.00000  Uiso   1.00
H62    H     0.01451   0.31210   0.49794   0.00000  Uiso   1.00
H63    H     0.01278   0.20193   0.43071   0.00000  Uiso   1.00
H64    H     0.04236   0.17592   0.38381   0.00000  Uiso   1.00
H65    H     0.03178   0.23272   0.34882   0.00000  Uiso   1.00
H66    H     0.31428   0.20719   0.37626   0.00000  Uiso   1.00
H67    H     0.00164   0.25788   0.39564   0.00000  Uiso   1.00
H68    H     0.14936   0.17453   0.09965   0.00000  Uiso   1.00
H69    H     0.09174   0.10262   0.08762   0.00000  Uiso   1.00
H70    H     0.04849   0.10888   0.06719   0.00000  Uiso   1.00
H71    H     0.00761   0.14048   0.13372   0.00000  Uiso   1.00
H72    H     0.01962   0.08844   0.13494   0.00000  Uiso   1.00
H73    H     0.05083   0.13299   0.15390   0.00000  Uiso   1.00
H74    H     0.11217   0.08060   0.43843   0.00000  Uiso   1.00
H75    H     0.14172   0.04035   0.44527   0.00000  Uiso   1.00
H76    H     0.11410   0.02093   0.38637   0.00000  Uiso   1.00
H77    H     0.14294   0.06779   0.36547   0.00000  Uiso   1.00
H78    H     0.17259   0.02780   0.37204   0.00000  Uiso   1.00
H79    H     0.24601   0.09689   0.09424   0.00000  Uiso   1.00
H80    H     0.00319   0.15429   0.06064   0.00000  Uiso   1.00
H81    H     0.00966   0.16970   0.01205   0.00000  Uiso   1.00
H82    H     0.30732   0.23394   0.04469   0.00000  Uiso   1.00
H83    H     0.27305   0.18639   0.05668   0.00000  Uiso   1.00
H84    H     0.29882   0.21589   0.09257   0.00000  Uiso   1.00
O85    O     0.16667   0.16667   0.25000   0.00000  Uiso   1.00
O86    O     0.15693   0.12393   0.16625   0.00000  Uiso   1.00
O87    O     0.12687   0.20646   0.33749   0.00000  Uiso   1.00
O88    O     0.21088   0.17493   0.15877   0.00000  Uiso   1.00
O89    O     0.17198   0.16135   0.33749   0.00000  Uiso   1.00
O90    O     0.04625   0.20739   0.04702   0.00000  Uiso   1.00
O91    O     0.21401   0.00700   0.21007   0.00000  Uiso   1.00
O92    O     0.11652   0.32850   0.29359   0.00000  Uiso   1.00
O93    O     0.05159   0.24233   0.48457   0.00000  Uiso   1.00
O94    O     0.07307   0.23253   0.40317   0.00000  Uiso   1.00
O95    O     0.08384   0.16425   0.08478   0.00000  Uiso   1.00
O96    O     0.17849   0.08101   0.27820   0.00000  Uiso   1.00
O97    O     0.17951   0.09404   0.42400   0.00000  Uiso   1.00
O98    O     0.14581   0.26136   0.26767   0.00000  Uiso   1.00
O99    O     0.07452   0.13251   0.23607   0.00000  Uiso   1.00
O100   O     0.26785   0.19179   0.21805   0.00000  Uiso   1.00
O101   O     0.06990   0.18960   0.27820   0.00000  Uiso   1.00
O102   O     0.25440   0.15277   0.26767   0.00000  Uiso   1.00
O103   O     0.13800   0.06903   0.23607   0.00000  Uiso   1.00
O104   O     0.20437   0.25527   0.21805   0.00000  Uiso   1.00
Zn105  Zn    0.19244   0.14090   0.28277   0.00000  Uiso   1.00
Zn106  Zn    0.13459   0.12378   0.22257   0.00000  Uiso   1.00
Zn107  Zn    0.21166   0.19664   0.21188   0.00000  Uiso   1.00
Zn108  Zn    0.12798   0.20535   0.28277   0.00000  Uiso   1.00
C109   C     0.38575   0.15984   0.25889   0.00000  Uiso   1.00
C110   C     0.51266   0.11204   0.46188   0.00000  Uiso   1.00
C111   C     0.53762   0.09607   0.48115   0.00000  Uiso   1.00
C112   C     0.61440   0.17354   0.24121   0.00000  Uiso   1.00
C113   C     0.53516   0.10966   0.02102   0.00000  Uiso   1.00
C114   C     0.50390   0.13683   0.04289   0.00000  Uiso   1.00
C115   C     0.56255   0.09582   0.03985   0.00000  Uiso   1.00
C116   C     0.55900   0.10860   0.07982   0.00000  Uiso   1.00
C117   C     0.50307   0.15119   0.08256   0.00000  Uiso   1.00
C118   C     0.66039   0.17615   0.23765   0.00000  Uiso   1.00
C119   C     0.34037   0.15751   0.26234   0.00000  Uiso   1.00
C120   C     0.42820   0.21281   0.42224   0.00000  Uiso   1.00
C121   C     0.51266   0.32212   0.23802   0.00000  Uiso   1.00
C122   C     0.48318   0.01236   0.26328   0.00000  Uiso   1.00
C123   C     0.48914   0.05631   0.25897   0.00000  Uiso   1.00
C124   C     0.50992   0.27770   0.24141   0.00000  Uiso   1.00
C125   C     0.52134   0.14531   0.14388   0.00000  Uiso   1.00
C126   C     0.47842   0.18761   0.35656   0.00000  Uiso   1.00
C127   C     0.46454   0.19222   0.40061   0.00000  Uiso   1.00
C128   C     0.52921   0.13610   0.10111   0.00000  Uiso   1.00
C129   C     0.41568   0.21603   0.46387   0.00000  Uiso   1.00
C130   C     0.34169   0.18135   0.04352   0.00000  Uiso   1.00
C131   C     0.48632   0.17351   0.42123   0.00000  Uiso   1.00
C132   C     0.63616   0.20597   0.06048   0.00000  Uiso   1.00
C133   C     0.53845   0.33297   0.17281   0.00000  Uiso   1.00
C134   C     0.57296   0.02497   0.14361   0.00000  Uiso   1.00
C135   C     0.41409   0.01871   0.30709   0.00000  Uiso   1.00
C136   C     0.37673   0.32742   0.33439   0.00000  Uiso   1.00
C137   C     0.40621   0.28293   0.48941   0.00000  Uiso   1.00
C138   C     0.37319   0.31217   0.01330   0.00000  Uiso   1.00
C139   C     0.36807   0.20678   0.40067   0.00000  Uiso   1.00
C140   C     0.34412   0.22749   0.37897   0.00000  Uiso   1.00
C141   C     0.39932   0.12248   0.08972   0.00000  Uiso   1.00
C142   C     0.46815   0.16847   0.46192   0.00000  Uiso   1.00
C143   C     0.36733   0.12104   0.13066   0.00000  Uiso   1.00
C144   C     0.47564   0.06495   0.42633   0.00000  Uiso   1.00
C145   C     0.47640   0.04407   0.38491   0.00000  Uiso   1.00
C146   C     0.43294   0.19112   0.48380   0.00000  Uiso   1.00
C147   C     0.48619   0.14400   0.48193   0.00000  Uiso   1.00
C148   C     0.47582   0.15014   0.02389   0.00000  Uiso   1.00
C149   C     0.43691   0.16790   0.04492   0.00000  Uiso   1.00
C150   C     0.41570   0.18814   0.02496   0.00000  Uiso   1.00
F151   F     0.59250   0.06960   0.01996   0.00000  Uiso   1.00
F152   F     0.56403   0.06696   0.46043   0.00000  Uiso   1.00
F153   F     0.52713   0.16398   0.40222   0.00000  Uiso   1.00
H154   H     0.35017   0.19323   0.21485   0.00000  Uiso   1.00
H155   H     0.50634   0.00930   0.17459   0.00000  Uiso   1.00
H156   H     0.53911   0.29943   0.16116   0.00000  Uiso   1.00
H157   H     0.60543   0.01556   0.14038   0.00000  Uiso   1.00
H158   H     0.56629   0.01958   0.11417   0.00000  Uiso   1.00
H159   H     0.57282   0.05868   0.15442   0.00000  Uiso   1.00
H160   H     0.40287   0.02498   0.28185   0.00000  Uiso   1.00
H161   H     0.42263   0.04860   0.32411   0.00000  Uiso   1.00
H162   H     0.38679   0.31983   0.35970   0.00000  Uiso   1.00
H163   H     0.34884   0.01275   0.34608   0.00000  Uiso   1.00
H164   H     0.36649   0.29805   0.31772   0.00000  Uiso   1.00
H165   H     0.65128   0.14039   0.28544   0.00000  Uiso   1.00
H166   H     0.42217   0.29484   0.46015   0.00000  Uiso   1.00
H167   H     0.43092   0.28349   0.00576   0.00000  Uiso   1.00
H168   H     0.35775   0.30210   0.04328   0.00000  Uiso   1.00
H169   H     0.38953   0.01103   0.01650   0.00000  Uiso   1.00
H170   H     0.34784   0.31210   0.49794   0.00000  Uiso   1.00
H171   H     0.34611   0.20193   0.43071   0.00000  Uiso   1.00
H172   H     0.37570   0.17592   0.38381   0.00000  Uiso   1.00
H173   H     0.36512   0.23272   0.34882   0.00000  Uiso   1.00
H174   H     0.64761   0.20719   0.37626   0.00000  Uiso   1.00
H175   H     0.33498   0.25788   0.39564   0.00000  Uiso   1.00
H176   H     0.48269   0.17453   0.09965   0.00000  Uiso   1.00
H177   H     0.42507   0.10262   0.08762   0.00000  Uiso   1.00
H178   H     0.38182   0.10888   0.06719   0.00000  Uiso   1.00
H179   H     0.34094   0.14048   0.13372   0.00000  Uiso   1.00
H180   H     0.35295   0.08844   0.13494   0.00000  Uiso   1.00
H181   H     0.38417   0.13299   0.15390   0.00000  Uiso   1.00
H182   H     0.44550   0.08060   0.43843   0.00000  Uiso   1.00
H183   H     0.47505   0.04035   0.44527   0.00000  Uiso   1.00
H184   H     0.44743   0.02093   0.38637   0.00000  Uiso   1.00
H185   H     0.47628   0.06779   0.36547   0.00000  Uiso   1.00
H186   H     0.50593   0.02780   0.37204   0.00000  Uiso   1.00
H187   H     0.57935   0.09689   0.09424   0.00000  Uiso   1.00
H188   H     0.33653   0.15429   0.06064   0.00000  Uiso   1.00
H189   H     0.34299   0.16970   0.01205   0.00000  Uiso   1.00
H190   H     0.64066   0.23394   0.04469   0.00000  Uiso   1.00
H191   H     0.60639   0.18639   0.05668   0.00000  Uiso   1.00
H192   H     0.63215   0.21589   0.09257   0.00000  Uiso   1.00
O193   O     0.50000   0.16667   0.25000   0.00000  Uiso   1.00
O194   O     0.49027   0.12393   0.16625   0.00000  Uiso   1.00
O195   O     0.46020   0.20646   0.33749   0.00000  Uiso   1.00
O196   O     0.54421   0.17493   0.15877   0.00000  Uiso   1.00
O197   O     0.50532   0.16135   0.33749   0.00000  Uiso   1.00
O198   O     0.37958   0.20739   0.04702   0.00000  Uiso   1.00
O199   O     0.54734   0.00700   0.21007   0.00000  Uiso   1.00
O200   O     0.44985   0.32850   0.29359   0.00000  Uiso   1.00
O201   O     0.38492   0.24233   0.48457   0.00000  Uiso   1.00
O202   O     0.40640   0.23253   0.40317   0.00000  Uiso   1.00
O203   O     0.41718   0.16425   0.08478   0.00000  Uiso   1.00
O204   O     0.51182   0.08101   0.27820   0.00000  Uiso   1.00
O205   O     0.51284   0.09404   0.42400   0.00000  Uiso   1.00
O206   O     0.47914   0.26136   0.26767   0.00000  Uiso   1.00
O207   O     0.40785   0.13251   0.23607   0.00000  Uiso   1.00
O208   O     0.60119   0.19179   0.21805   0.00000  Uiso   1.00
O209   O     0.40323   0.18960   0.27820   0.00000  Uiso   1.00
O210   O     0.58773   0.15277   0.26767   0.00000  Uiso   1.00
O211   O     0.47133   0.06903   0.23607   0.00000  Uiso   1.00
O212   O     0.53771   0.25527   0.21805   0.00000  Uiso   1.00
Zn213  Zn    0.52577   0.14090   0.28277   0.00000  Uiso   1.00
Zn214  Zn    0.46792   0.12378   0.22257   0.00000  Uiso   1.00
Zn215  Zn    0.54500   0.19664   0.21188   0.00000  Uiso   1.00
Zn216  Zn    0.46131   0.20535   0.28277   0.00000  Uiso   1.00
C217   C     0.71908   0.15984   0.25889   0.00000  Uiso   1.00
C218   C     0.84600   0.11204   0.46188   0.00000  Uiso   1.00
C219   C     0.87095   0.09607   0.48115   0.00000  Uiso   1.00
C220   C     0.94773   0.17354   0.24121   0.00000  Uiso   1.00
C221   C     0.86850   0.10966   0.02102   0.00000  Uiso   1.00
C222   C     0.83723   0.13683   0.04289   0.00000  Uiso   1.00
C223   C     0.89589   0.09582   0.03985   0.00000  Uiso   1.00
C224   C     0.89233   0.10860   0.07982   0.00000  Uiso   1.00
C225   C     0.83641   0.15119   0.08256   0.00000  Uiso   1.00
C226   C     0.99372   0.17615   0.23765   0.00000  Uiso   1.00
C227   C     0.67370   0.15751   0.26234   0.00000  Uiso   1.00
C228   C     0.76154   0.21281   0.42224   0.00000  Uiso   1.00
C229   C     0.84599   0.32212   0.23802   0.00000  Uiso   1.00
C230   C     0.81651   0.01236   0.26328   0.00000  Uiso   1.00
C231   C     0.82248   0.05631   0.25897   0.00000  Uiso   1.00
C232   C     0.84325   0.27770   0.24141   0.00000  Uiso   1.00
C233   C     0.85467   0.14531   0.14388   0.00000  Uiso   1.00
C234   C     0.81175   0.18761   0.35656   0.00000  Uiso   1.00
C235   C     0.79788   0.19222   0.40061   0.00000  Uiso   1.00
C236   C     0.86255   0.13610   0.10111   0.00000  Uiso   1.00
C237   C     0.74901   0.21603   0.46387   0.00000  Uiso   1.00
C238   C     0.67503   0.18135   0.04352   0.00000  Uiso   1.00
C239   C     0.81965   0.17351   0.42123   0.00000  Uiso   1.00
C240   C     0.96949   0.20597   0.06048   0.00000  Uiso   1.00
C241   C     0.87178   0.33297   0.17281   0.00000  Uiso   1.00
C242   C     0.90629   0.02497   0.14361   0.00000  Uiso   1.00
C243   C     0.74743   0.01871   0.30709   0.00000  Uiso   1.00
C244   C     0.71007   0.32742   0.33439   0.00000  Uiso   1.00
C245   C     0.73954   0.28293   0.48941   0.00000  Uiso   1.00
C246   C     0.70653   0.31217   0.01330   0.00000  Uiso   1.00
C247   C     0.70140   0.20678   0.40067   0.00000  Uiso   1.00
C248   C     0.67745   0.22749   0.37897   0.00000  Uiso   1.00
C249   C     0.73265   0.12248   0.08972   0.00000  Uiso   1.00
C250   C     0.80148   0.16847   0.46192   0.00000  Uiso   1.00
C251   C     0.70066   0.12104   0.13066   0.00000  Uiso   1.00
C252   C     0.80898   0.06495   0.42633   0.00000  Uiso   1.00
C253   C     0.80973   0.04407   0.38491   0.00000  Uiso   1.00
C254   C     0.76627   0.19112   0.48380   0.00000  Uiso   1.00
C255   C     0.81952   0.14400   0.48193   0.00000  Uiso   1.00
C256   C     0.80915   0.15014   0.02389   0.00000  Uiso   1.00
C257   C     0.77024   0.16790   0.04492   0.00000  Uiso   1.00
C258   C     0.74904   0.18814   0.02496   0.00000  Uiso   1.00
F259   F     0.92584   0.06960   0.01996   0.00000  Uiso   1.00
F260   F     0.89736   0.06696   0.46043   0.00000  Uiso   1.00
F261   F     0.86046   0.16398   0.40222   0.00000  Uiso   1.00
H262   H     0.68350   0.19323   0.21485   0.00000  Uiso   1.00
H263   H     0.83967   0.00930   0.17459   0.00000  Uiso   1.00
H264   H     0.87245   0.29943   0.16116   0.00000  Uiso   1.00
H265   H     0.93876   0.01556   0.14038   0.00000  Uiso   1.00
H266   H     0.89962   0.01958   0.11417   0.00000  Uiso   1.00
H267   H     0.90616   0.05868   0.15442   0.00000  Uiso   1.00
H268   H     0.73620   0.02498   0.28185   0.00000  Uiso   1.00
H269   H     0.75597   0.04860   0.32411   0.00000  Uiso   1.00
H270   H     0.72012   0.31983   0.35970   0.00000  Uiso   1.00
H271   H     0.68217   0.01275   0.34608   0.00000  Uiso   1.00
H272   H     0.69982   0.29805   0.31772   0.00000  Uiso   1.00
H273   H     0.98462   0.14039   0.28544   0.00000  Uiso   1.00
H274   H     0.75551   0.29484   0.46015   0.00000  Uiso   1.00
H275   H     0.76425   0.28349   0.00576   0.00000  Uiso   1.00
H276   H     0.69108   0.30210   0.04328   0.00000  Uiso   1.00
H277   H     0.72286   0.01103   0.01650   0.00000  Uiso   1.00
H278   H     0.68118   0.31210   0.49794   0.00000  Uiso   1.00
H279   H     0.67945   0.20193   0.43071   0.00000  Uiso   1.00
H280   H     0.70903   0.17592   0.38381   0.00000  Uiso   1.00
H281   H     0.69845   0.23272   0.34882   0.00000  Uiso   1.00
H282   H     0.98094   0.20719   0.37626   0.00000  Uiso   1.00
H283   H     0.66831   0.25788   0.39564   0.00000  Uiso   1.00
H284   H     0.81602   0.17453   0.09965   0.00000  Uiso   1.00
H285   H     0.75840   0.10262   0.08762   0.00000  Uiso   1.00
H286   H     0.71516   0.10888   0.06719   0.00000  Uiso   1.00
H287   H     0.67427   0.14048   0.13372   0.00000  Uiso   1.00
H288   H     0.68629   0.08844   0.13494   0.00000  Uiso   1.00
H289   H     0.71750   0.13299   0.15390   0.00000  Uiso   1.00
H290   H     0.77883   0.08060   0.43843   0.00000  Uiso   1.00
H291   H     0.80839   0.04035   0.44527   0.00000  Uiso   1.00
H292   H     0.78076   0.02093   0.38637   0.00000  Uiso   1.00
H293   H     0.80961   0.06779   0.36547   0.00000  Uiso   1.00
H294   H     0.83926   0.02780   0.37204   0.00000  Uiso   1.00
H295   H     0.91268   0.09689   0.09424   0.00000  Uiso   1.00
H296   H     0.66986   0.15429   0.06064   0.00000  Uiso   1.00
H297   H     0.67633   0.16970   0.01205   0.00000  Uiso   1.00
H298   H     0.97399   0.23394   0.04469   0.00000  Uiso   1.00
H299   H     0.93972   0.18639   0.05668   0.00000  Uiso   1.00
H300   H     0.96548   0.21589   0.09257   0.00000  Uiso   1.00
O301   O     0.83333   0.16667   0.25000   0.00000  Uiso   1.00
O302   O     0.82360   0.12393   0.16625   0.00000  Uiso   1.00
O303   O     0.79354   0.20646   0.33749   0.00000  Uiso   1.00
O304   O     0.87755   0.17493   0.15877   0.00000  Uiso   1.00
O305   O     0.83865   0.16135   0.33749   0.00000  Uiso   1.00
O306   O     0.71292   0.20739   0.04702   0.00000  Uiso   1.00
O307   O     0.88067   0.00700   0.21007   0.00000  Uiso   1.00
O308   O     0.78319   0.32850   0.29359   0.00000  Uiso   1.00
O309   O     0.71826   0.24233   0.48457   0.00000  Uiso   1.00
O310   O     0.73973   0.23253   0.40317   0.00000  Uiso   1.00
O311   O     0.75051   0.16425   0.08478   0.00000  Uiso   1.00
O312   O     0.84515   0.08101   0.27820   0.00000  Uiso   1.00
O313   O     0.84617   0.09404   0.42400   0.00000  Uiso   1.00
O314   O     0.81247   0.26136   0.26767   0.00000  Uiso   1.00
O315   O     0.74119   0.13251   0.23607   0.00000  Uiso   1.00
O316   O     0.93452   0.19179   0.21805   0.00000  Uiso   1.00
O317   O     0.73656   0.18960   0.27820   0.00000  Uiso   1.00
O318   O     0.92106   0.15277   0.26767   0.00000  Uiso   1.00
O319   O     0.80467   0.06903   0.23607   0.00000  Uiso   1.00
O320   O     0.87104   0.25527   0.21805   0.00000  Uiso   1.00
Zn321  Zn    0.85910   0.14090   0.28277   0.00000  Uiso   1.00
Zn322  Zn    0.80125   0.12378   0.22257   0.00000  Uiso   1.00
Zn323  Zn    0.87833   0.19664   0.21188   0.00000  Uiso   1.00
Zn324  Zn    0.79465   0.20535   0.28277   0.00000  Uiso   1.00
C325   C     0.05242   0.49317   0.25889   0.00000  Uiso   1.00
C326   C     0.17933   0.44537   0.46188   0.00000  Uiso   1.00
C327   C     0.20428   0.42940   0.48115   0.00000  Uiso   1.00
C328   C     0.28107   0.50687   0.24121   0.00000  Uiso   1.00
C329   C     0.20183   0.44299   0.02102   0.00000  Uiso   1.00
C330   C     0.17057   0.47016   0.04289   0.00000  Uiso   1.00
C331   C     0.22922   0.42915   0.03985   0.00000  Uiso   1.00
C332   C     0.22567   0.44193   0.07982   0.00000  Uiso   1.00
C333   C     0.16974   0.48453   0.08256   0.00000  Uiso   1.00
C334   C     0.32706   0.50948   0.23765   0.00000  Uiso   1.00
C335   C     0.00704   0.49084   0.26234   0.00000  Uiso   1.00
C336   C     0.09487   0.54614   0.42224   0.00000  Uiso   1.00
C337   C     0.17932   0.65546   0.23802   0.00000  Uiso   1.00
C338   C     0.14984   0.34569   0.26328   0.00000  Uiso   1.00
C339   C     0.15581   0.38965   0.25897   0.00000  Uiso   1.00
C340   C     0.17659   0.61103   0.24141   0.00000  Uiso   1.00
C341   C     0.18800   0.47864   0.14388   0.00000  Uiso   1.00
C342   C     0.14508   0.52095   0.35656   0.00000  Uiso   1.00
C343   C     0.13121   0.52555   0.40061   0.00000  Uiso   1.00
C344   C     0.19588   0.46943   0.10111   0.00000  Uiso   1.00
C345   C     0.08234   0.54936   0.46387   0.00000  Uiso   1.00
C346   C     0.00836   0.51468   0.04352   0.00000  Uiso   1.00
C347   C     0.15299   0.50685   0.42123   0.00000  Uiso   1.00
C348   C     0.30282   0.53930   0.06048   0.00000  Uiso   1.00
C349   C     0.20512   0.66630   0.17281   0.00000  Uiso   1.00
C350   C     0.23962   0.35830   0.14361   0.00000  Uiso   1.00
C351   C     0.08076   0.35204   0.30709   0.00000  Uiso   1.00
C352   C     0.04340   0.66076   0.33439   0.00000  Uiso   1.00
C353   C     0.07287   0.61626   0.48941   0.00000  Uiso   1.00
C354   C     0.03986   0.64551   0.01330   0.00000  Uiso   1.00
C355   C     0.03473   0.54011   0.40067   0.00000  Uiso   1.00
C356   C     0.01079   0.56083   0.37897   0.00000  Uiso   1.00
C357   C     0.06598   0.45581   0.08972   0.00000  Uiso   1.00
C358   C     0.13481   0.50180   0.46192   0.00000  Uiso   1.00
C359   C     0.03400   0.45438   0.13066   0.00000  Uiso   1.00
C360   C     0.14231   0.39828   0.42633   0.00000  Uiso   1.00
C361   C     0.14306   0.37740   0.38491   0.00000  Uiso   1.00
C362   C     0.09961   0.52446   0.48380   0.00000  Uiso   1.00
C363   C     0.15286   0.47733   0.48193   0.00000  Uiso   1.00
C364   C     0.14248   0.48347   0.02389   0.00000  Uiso   1.00
C365   C     0.10357   0.50123   0.04492   0.00000  Uiso   1.00
C366   C     0.08237   0.52147   0.02496   0.00000  Uiso   1.00
F367   F     0.25917   0.40293   0.01996   0.00000  Uiso   1.00
F368   F     0.23070   0.40029   0.46043   0.00000  Uiso   1.00
F369   F     0.19380   0.49731   0.40222   0.00000  Uiso   1.00
H370   H     0.01684   0.52656   0.21485   0.00000  Uiso   1.00
H371   H     0.17300   0.34264   0.17459   0.00000  Uiso   1.00
H372   H     0.20578   0.63277   0.16116   0.00000  Uiso   1.00
H373   H     0.27209   0.34889   0.14038   0.00000  Uiso   1.00
H374   H     0.23295   0.35291   0.11417   0.00000  Uiso   1.00
H375   H     0.23949   0.39201   0.15442   0.00000  Uiso   1.00
H376   H     0.06954   0.35832   0.28185   0.00000  Uiso   1.00
H377   H     0.08930   0.38194   0.32411   0.00000  Uiso   1.00
H378   H     0.05346   0.65316   0.35970   0.00000  Uiso   1.00
H379   H     0.01551   0.34609   0.34608   0.00000  Uiso   1.00
H380   H     0.03315   0.63138   0.31772   0.00000  Uiso   1.00
H381   H     0.31795   0.47373   0.28544   0.00000  Uiso   1.00
H382   H     0.08884   0.62817   0.46015   0.00000  Uiso   1.00
H383   H     0.09758   0.61682   0.00576   0.00000  Uiso   1.00
H384   H     0.02442   0.63543   0.04328   0.00000  Uiso   1.00
H385   H     0.05619   0.34437   0.01650   0.00000  Uiso   1.00
H386   H     0.01451   0.64543   0.49794   0.00000  Uiso   1.00
H387   H     0.01278   0.53526   0.43071   0.00000  Uiso   1.00
H388   H     0.04236   0.50926   0.38381   0.00000  Uiso   1.00
H389   H     0.03178   0.56605   0.34882   0.00000  Uiso   1.00
H390   H     0.31428   0.54052   0.37626   0.00000  Uiso   1.00
H391   H     0.00164   0.59121   0.39564   0.00000  Uiso   1.00
H392   H     0.14936   0.50786   0.09965   0.00000  Uiso   1.00
H393   H     0.09174   0.43595   0.08762   0.00000  Uiso   1.00
H394   H     0.04849   0.44222   0.06719   0.00000  Uiso   1.00
H395   H     0.00761   0.47381   0.13372   0.00000  Uiso   1.00
H396   H     0.01962   0.42177   0.13494   0.00000  Uiso   1.00
H397   H     0.05083   0.46632   0.15390   0.00000  Uiso   1.00
H398   H     0.11217   0.41393   0.43843   0.00000  Uiso   1.00
H399   H     0.14172   0.37368   0.44527   0.00000  Uiso   1.00
H400   H     0.11410   0.35426   0.38637   0.00000  Uiso   1.00
H401   H     0.14294   0.40112   0.36547   0.00000  Uiso   1.00
H402   H     0.17259   0.36113   0.37204   0.00000  Uiso   1.00
H403   H     0.24601   0.43022   0.09424   0.00000  Uiso   1.00
H404   H     0.00319   0.48762   0.06064   0.00000  Uiso   1.00
H405   H     0.00966   0.50304   0.01205   0.00000  Uiso   1.00
H406   H     0.30732   0.56727   0.04469   0.00000  Uiso   1.00
H407   H     0.27305   0.51973   0.05668   0.00000  Uiso   1.00
H408   H     0.29882   0.54922   0.09257   0.00000  Uiso   1.00
O409   O     0.16667   0.50000   0.25000   0.00000  Uiso   1.00
O410   O     0.15693   0.45726   0.16625   0.00000  Uiso   1.00
O411   O     0.12687   0.53979   0.33749   0.00000  Uiso   1.00
O412   O     0.21088   0.50826   0.15877   0.00000  Uiso   1.00
O413   O     0.17198   0.49468   0.33749   0.00000  Uiso   1.00
O414   O     0.04625   0.54072   0.04702   0.00000  Uiso   1.00
O415   O     0.21401   0.34034   0.21007   0.00000  Uiso   1.00
O416   O     0.11652   0.66184   0.29359   0.00000  Uiso   1.00
O417   O     0.05159   0.57566   0.48457   0.00000  Uiso   1.00
O418   O     0.07307   0.56587   0.40317   0.00000  Uiso   1.00
O419   O     0.08384   0.49759   0.08478   0.00000  Uiso   1.00
O420   O     0.17849   0.41434   0.27820   0.00000  Uiso   1.00
O421   O     0.17951   0.42737   0.42400   0.00000  Uiso   1.00
O422   O     0.14581   0.59469   0.26767   0.00000  Uiso   1.00
O423   O     0.07452   0.46584   0.23607   0.00000  Uiso   1.00
O424   O     0.26785   0.52512   0.21805   0.00000  Uiso   1.00
O425   O     0.06990   0.52293   0.27820   0.00000  Uiso   1.00
O426   O     0.25440   0.48610   0.26767   0.00000  Uiso   1.00
O427   O     0.13800   0.40236   0.23607   0.00000  Uiso   1.00
O428   O     0.20437   0.58860   0.21805   0.00000  Uiso   1.00
Zn429  Zn    0.19244   0.47423   0.28277   0.00000  Uiso   1.00
Zn430  Zn    0.13459   0.45711   0.22257   0.00000  Uiso   1.00
Zn431  Zn    0.21166   0.52997   0.21188   0.00000  Uiso   1.00
Zn432  Zn    0.12798   0.53868   0.28277   0.00000  Uiso   1.00
C433   C     0.38575   0.49317   0.25889   0.00000  Uiso   1.00
C434   C     0.51266   0.44537   0.46188   0.00000  Uiso   1.00
C435   C     0.53762   0.42940   0.48115   0.00000  Uiso   1.00
C436   C     0.61440   0.50687   0.24121   0.00000  Uiso   1.00
C437   C     0.53516   0.44299   0.02102   0.00000  Uiso   1.00
C438   C     0.50390   0.47016   0.04289   0.00000  Uiso   1.00
C439   C     0.56255   0.42915   0.03985   0.00000  Uiso   1.00
C440   C     0.55900   0.44193   0.07982   0.00000  Uiso   1.00
C441   C     0.50307   0.48453   0.08256   0.00000  Uiso   1.00
C442   C     0.66039   0.50948   0.23765   0.00000  Uiso   1.00
C443   C     0.34037   0.49084   0.26234   0.00000  Uiso   1.00
C444   C     0.42820   0.54614   0.42224   0.00000  Uiso   1.00
C445   C     0.51266   0.65546   0.23802   0.00000  Uiso   1.00
C446   C     0.48318   0.34569   0.26328   0.00000  Uiso   1.00
C447   C     0.48914   0.38965   0.25897   0.00000  Uiso   1.00
C448   C     0.50992   0.61103   0.24141   0.00000  Uiso   1.00
C449   C     0.52134   0.47864   0.14388   0.00000  Uiso   1.00
C450   C     0.47842   0.52095   0.35656   0.00000  Uiso   1.00
C451   C     0.46454   0.52555   0.40061   0.00000  Uiso   1.00
C452   C     0.52921   0.46943   0.10111   0.00000  Uiso   1.00
C453   C     0.41568   0.54936   0.46387   0.00000  Uiso   1.00
C454   C     0.34169   0.51468   0.04352   0.00000  Uiso   1.00
C455   C     0.48632   0.50685   0.42123   0.00000  Uiso   1.00
C456   C     0.63616   0.53930   0.06048   0.00000  Uiso   1.00
C457   C     0.53845   0.66630   0.17281   0.00000  Uiso   1.00
C458   C     0.57296   0.35830   0.14361   0.00000  Uiso   1.00
C459   C     0.41409   0.35204   0.30709   0.00000  Uiso   1.00
C460   C     0.37673   0.66076   0.33439   0.00000  Uiso   1.00
C461   C     0.40621   0.61626   0.48941   0.00000  Uiso   1.00
C462   C     0.37319   0.64551   0.01330   0.00000  Uiso   1.00
C463   C     0.36807   0.54011   0.40067   0.00000  Uiso   1.00
C464   C     0.34412   0.56083   0.37897   0.00000  Uiso   1.00
C465   C     0.39932   0.45581   0.08972   0.00000  Uiso   1.00
C466   C     0.46815   0.50180   0.46192   0.00000  Uiso   1.00
C467   C     0.36733   0.45438   0.13066   0.00000  Uiso   1.00
C468   C     0.47564   0.39828   0.42633   0.00000  Uiso   1.00
C469   C     0.47640   0.37740   0.38491   0.00000  Uiso   1.00
C470   C     0.43294   0.52446   0.48380   0.00000  Uiso   1.00
C471   C     0.48619   0.47733   0.48193   0.00000  Uiso   1.00
C472   C     0.47582   0.48347   0.02389   0.00000  Uiso   1.00
C473   C     0.43691   0.50123   0.04492   0.00000  Uiso   1.00
C474   C     0.41570   0.52147   0.02496   0.00000  Uiso   1.00
F475   F     0.59250   0.40293   0.01996   0.00000  Uiso   1.00
F476   F     0.56403   0.40029   0.46043   0.00000  Uiso   1.00
F477   F     0.52713   0.49731   0.40222   0.00000  Uiso   1.00
H478   H     0.35017   0.52656   0.21485   0.00000  Uiso   1.00
H479   H     0.50634   0.34264   0.17459   0.00000  Uiso   1.00
H480   H     0.53911   0.63277   0.16116   0.00000  Uiso   1.00
H481   H     0.60543   0.34889   0.14038   0.00000  Uiso   1.00
H482   H     0.56629   0.35291   0.11417   0.00000  Uiso   1.00
H483   H     0.57282   0.39201   0.15442   0.00000  Uiso   1.00
H484   H     0.40287   0.35832   0.28185   0.00000  Uiso   1.00
H485   H     0.42263   0.38194   0.32411   0.00000  Uiso   1.00
H486   H     0.38679   0.65316   0.35970   0.00000  Uiso   1.00
H487   H     0.34884   0.34609   0.34608   0.00000  Uiso   1.00
H488   H     0.36649   0.63138   0.31772   0.00000  Uiso   1.00
H489   H     0.65128   0.47373   0.28544   0.00000  Uiso   1.00
H490   H     0.42217   0.62817   0.46015   0.00000  Uiso   1.00
H491   H     0.43092   0.61682   0.00576   0.00000  Uiso   1.00
H492   H     0.35775   0.63543   0.04328   0.00000  Uiso   1.00
H493   H     0.38953   0.34437   0.01650   0.00000  Uiso   1.00
H494   H     0.34784   0.64543   0.49794   0.00000  Uiso   1.00
H495   H     0.34611   0.53526   0.43071   0.00000  Uiso   1.00
H496   H     0.37570   0.50926   0.38381   0.00000  Uiso   1.00
H497   H     0.36512   0.56605   0.34882   0.00000  Uiso   1.00
H498   H     0.64761   0.54052   0.37626   0.00000  Uiso   1.00
H499   H     0.33498   0.59121   0.39564   0.00000  Uiso   1.00
H500   H     0.48269   0.50786   0.09965   0.00000  Uiso   1.00
H501   H     0.42507   0.43595   0.08762   0.00000  Uiso   1.00
H502   H     0.38182   0.44222   0.06719   0.00000  Uiso   1.00
H503   H     0.34094   0.47381   0.13372   0.00000  Uiso   1.00
H504   H     0.35295   0.42177   0.13494   0.00000  Uiso   1.00
H505   H     0.38417   0.46632   0.15390   0.00000  Uiso   1.00
H506   H     0.44550   0.41393   0.43843   0.00000  Uiso   1.00
H507   H     0.47505   0.37368   0.44527   0.00000  Uiso   1.00
H508   H     0.44743   0.35426   0.38637   0.00000  Uiso   1.00
H509   H     0.47628   0.40112   0.36547   0.00000  Uiso   1.00
H510   H     0.50593   0.36113   0.37204   0.00000  Uiso   1.00
H511   H     0.57935   0.43022   0.09424   0.00000  Uiso   1.00
H512   H     0.33653   0.48762   0.06064   0.00000  Uiso   1.00
H513   H     0.34299   0.50304   0.01205   0.00000  Uiso   1.00
H514   H     0.64066   0.56727   0.04469   0.00000  Uiso   1.00
H515   H     0.60639   0.51973   0.05668   0.00000  Uiso   1.00
H516   H     0.63215   0.54922   0.09257   0.00000  Uiso   1.00
O517   O     0.50000   0.50000   0.25000   0.00000  Uiso   1.00
O518   O     0.49027   0.45726   0.16625   0.00000  Uiso   1.00
O519   O     0.46020   0.53979   0.33749   0.00000  Uiso   1.00
O520   O     0.54421   0.50826   0.15877   0.00000  Uiso   1.00
O521   O     0.50532   0.49468   0.33749   0.00000  Uiso   1.00
O522   O     0.37958   0.54072   0.04702   0.00000  Uiso   1.00
O523   O     0.54734   0.34034   0.21007   0.00000  Uiso   1.00
O524   O     0.44985   0.66184   0.29359   0.00000  Uiso   1.00
O525   O     0.38492   0.57566   0.48457   0.00000  Uiso   1.00
O526   O     0.40640   0.56587   0.40317   0.00000  Uiso   1.00
O527   O     0.41718   0.49759   0.08478   0.00000  Uiso   1.00
O528   O     0.51182   0.41434   0.27820   0.00000  Uiso   1.00
O529   O     0.51284   0.42737   0.42400   0.00000  Uiso   1.00
O530   O     0.47914   0.59469   0.26767   0.00000  Uiso   1.00
O531   O     0.40785   0.46584   0.23607   0.00000  Uiso   1.00
O532   O     0.60119   0.52512   0.21805   0.00000  Uiso   1.00
O533   O     0.40323   0.52293   0.27820   0.00000  Uiso   1.00
O534   O     0.58773   0.48610   0.26767   0.00000  Uiso   1.00
O535   O     0.47133   0.40236   0.23607   0.00000  Uiso   1.00
O536   O     0.53771   0.58860   0.21805   0.00000  Uiso   1.00
Zn537  Zn    0.52577   0.47423   0.28277   0.00000  Uiso   1.00
Zn538  Zn    0.46792   0.45711   0.22257   0.00000  Uiso   1.00
Zn539  Zn    0.54500   0.52997   0.21188   0.00000  Uiso   1.00
Zn540  Zn    0.46131   0.53868   0.28277   0.00000  Uiso   1.00
C541   C     0.71908   0.49317   0.25889   0.00000  Uiso   1.00
C542   C     0.84600   0.44537   0.46188   0.00000  Uiso   1.00
C543   C     0.87095   0.42940   0.48115   0.00000  Uiso   1.00
C544   C     0.94773   0.50687   0.24121   0.00000  Uiso   1.00
C545   C     0.86850   0.44299   0.02102   0.00000  Uiso   1.00
C546   C     0.83723   0.47016   0.04289   0.00000  Uiso   1.00
C547   C     0.89589   0.42915   0.03985   0.00000  Uiso   1.00
C548   C     0.89233   0.44193   0.07982   0.00000  Uiso   1.00
C549   C     0.83641   0.48453   0.08256   0.00000  Uiso   1.00
C550   C     0.99372   0.50948   0.23765   0.00000  Uiso   1.00
C551   C     0.67370   0.49084   0.26234   0.00000  Uiso   1.00
C552   C     0.76154   0.54614   0.42224   0.00000  Uiso   1.00
C553   C     0.84599   0.65546   0.23802   0.00000  Uiso   1.00
C554   C     0.81651   0.34569   0.26328   0.00000  Uiso   1.00
C555   C     0.82248   0.38965   0.25897   0.00000  Uiso   1.00
C556   C     0.84325   0.61103   0.24141   0.00000  Uiso   1.00
C557   C     0.85467   0.47864   0.14388   0.00000  Uiso   1.00
C558   C     0.81175   0.52095   0.35656   0.00000  Uiso   1.00
C559   C     0.79788   0.52555   0.40061   0.00000  Uiso   1.00
C560   C     0.86255   0.46943   0.10111   0.00000  Uiso   1.00
C561   C     0.74901   0.54936   0.46387   0.00000  Uiso   1.00
C562   C     0.67503   0.51468   0.04352   0.00000  Uiso   1.00
C563   C     0.81965   0.50685   0.42123   0.00000  Uiso   1.00
C564   C     0.96949   0.53930   0.06048   0.00000  Uiso   1.00
C565   C     0.87178   0.66630   0.17281   0.00000  Uiso   1.00
C566   C     0.90629   0.35830   0.14361   0.00000  Uiso   1.00
C567   C     0.74743   0.35204   0.30709   0.00000  Uiso   1.00
C568   C     0.71007   0.66076   0.33439   0.00000  Uiso   1.00
C569   C     0.73954   0.61626   0.48941   0.00000  Uiso   1.00
C570   C     0.70653   0.64551   0.01330   0.00000  Uiso   1.00
C571   C     0.70140   0.54011   0.40067   0.00000  Uiso   1.00
C572   C     0.67745   0.56083   0.37897   0.00000  Uiso   1.00
C573   C     0.73265   0.45581   0.08972   0.00000  Uiso   1.00
C574   C     0.80148   0.50180   0.46192   0.00000  Uiso   1.00
C575   C     0.70066   0.45438   0.13066   0.00000  Uiso   1.00
C576   C     0.80898   0.39828   0.42633   0.00000  Uiso   1.00
C577   C     0.80973   0.37740   0.38491   0.00000  Uiso   1.00
C578   C     0.76627   0.52446   0.48380   0.00000  Uiso   1.00
C579   C     0.81952   0.47733   0.48193   0.00000  Uiso   1.00
C580   C     0.80915   0.48347   0.02389   0.00000  Uiso   1.00
C581   C     0.77024   0.50123   0.04492   0.00000  Uiso   1.00
C582   C     0.74904   0.52147   0.02496   0.00000  Uiso   1.00
F583   F     0.92584   0.40293   0.01996   0.00000  Uiso   1.00
F584   F     0.89736   0.40029   0.46043   0.00000  Uiso   1.00
F585   F     0.86046   0.49731   0.40222   0.00000  Uiso   1.00
H586   H     0.68350   0.52656   0.21485   0.00000  Uiso   1.00
H587   H     0.83967   0.34264   0.17459   0.00000  Uiso   1.00
H588   H     0.87245   0.63277   0.16116   0.00000  Uiso   1.00
H589   H     0.93876   0.34889   0.14038   0.00000  Uiso   1.00
H590   H     0.89962   0.35291   0.11417   0.00000  Uiso   1.00
H591   H     0.90616   0.39201   0.15442   0.00000  Uiso   1.00
H592   H     0.73620   0.35832   0.28185   0.00000  Uiso   1.00
H593   H     0.75597   0.38194   0.32411   0.00000  Uiso   1.00
H594   H     0.72012   0.65316   0.35970   0.00000  Uiso   1.00
H595   H     0.68217   0.34609   0.34608   0.00000  Uiso   1.00
H596   H     0.69982   0.63138   0.31772   0.00000  Uiso   1.00
H597   H     0.98462   0.47373   0.28544   0.00000  Uiso   1.00
H598   H     0.75551   0.62817   0.46015   0.00000  Uiso   1.00
H599   H     0.76425   0.61682   0.00576   0.00000  Uiso   1.00
H600   H     0.69108   0.63543   0.04328   0.00000  Uiso   1.00
H601   H     0.72286   0.34437   0.01650   0.00000  Uiso   1.00
H602   H     0.68118   0.64543   0.49794   0.00000  Uiso   1.00
H603   H     0.67945   0.53526   0.43071   0.00000  Uiso   1.00
H604   H     0.70903   0.50926   0.38381   0.00000  Uiso   1.00
H605   H     0.69845   0.56605   0.34882   0.00000  Uiso   1.00
H606   H     0.98094   0.54052   0.37626   0.00000  Uiso   1.00
H607   H     0.66831   0.59121   0.39564   0.00000  Uiso   1.00
H608   H     0.81602   0.50786   0.09965   0.00000  Uiso   1.00
H609   H     0.75840   0.43595   0.08762   0.00000  Uiso   1.00
H610   H     0.71516   0.44222   0.06719   0.00000  Uiso   1.00
H611   H     0.67427   0.47381   0.13372   0.00000  Uiso   1.00
H612   H     0.68629   0.42177   0.13494   0.00000  Uiso   1.00
H613   H     0.71750   0.46632   0.15390   0.00000  Uiso   1.00
H614   H     0.77883   0.41393   0.43843   0.00000  Uiso   1.00
H615   H     0.80839   0.37368   0.44527   0.00000  Uiso   1.00
H616   H     0.78076   0.35426   0.38637   0.00000  Uiso   1.00
H617   H     0.80961   0.40112   0.36547   0.00000  Uiso   1.00
H618   H     0.83926   0.36113   0.37204   0.00000  Uiso   1.00
H619   H     0.91268   0.43022   0.09424   0.00000  Uiso   1.00
H620   H     0.66986   0.48762   0.06064   0.00000  Uiso   1.00
H621   H     0.67633   0.50304   0.01205   0.00000  Uiso   1.00
H622   H     0.97399   0.56727   0.04469   0.00000  Uiso   1.00
H623   H     0.93972   0.51973   0.05668   0.00000  Uiso   1.00
H624   H     0.96548   0.54922   0.09257   0.00000  Uiso   1.00
O625   O     0.83333   0.50000   0.25000   0.00000  Uiso   1.00
O626   O     0.82360   0.45726   0.16625   0.00000  Uiso   1.00
O627   O     0.79354   0.53979   0.33749   0.00000  Uiso   1.00
O628   O     0.87755   0.50826   0.15877   0.00000  Uiso   1.00
O629   O     0.83865   0.49468   0.33749   0.00000  Uiso   1.00
O630   O     0.71292   0.54072   0.04702   0.00000  Uiso   1.00
O631   O     0.88067   0.34034   0.21007   0.00000  Uiso   1.00
O632   O     0.78319   0.66184   0.29359   0.00000  Uiso   1.00
O633   O     0.71826   0.57566   0.48457   0.00000  Uiso   1.00
O634   O     0.73973   0.56587   0.40317   0.00000  Uiso   1.00
O635   O     0.75051   0.49759   0.08478   0.00000  Uiso   1.00
O636   O     0.84515   0.41434   0.27820   0.00000  Uiso   1.00
O637   O     0.84617   0.42737   0.42400   0.00000  Uiso   1.00
O638   O     0.81247   0.59469   0.26767   0.00000  Uiso   1.00
O639   O     0.74119   0.46584   0.23607   0.00000  Uiso   1.00
O640   O     0.93452   0.52512   0.21805   0.00000  Uiso   1.00
O641   O     0.73656   0.52293   0.27820   0.00000  Uiso   1.00
O642   O     0.92106   0.48610   0.26767   0.00000  Uiso   1.00
O643   O     0.80467   0.40236   0.23607   0.00000  Uiso   1.00
O644   O     0.87104   0.58860   0.21805   0.00000  Uiso   1.00
Zn645  Zn    0.85910   0.47423   0.28277   0.00000  Uiso   1.00
Zn646  Zn    0.80125   0.45711   0.22257   0.00000  Uiso   1.00
Zn647  Zn    0.87833   0.52997   0.21188   0.00000  Uiso   1.00
Zn648  Zn    0.79465   0.53868   0.28277   0.00000  Uiso   1.00
C649   C     0.05242   0.82650   0.25889   0.00000  Uiso   1.00
C650   C     0.17933   0.77871   0.46188   0.00000  Uiso   1.00
C651   C     0.20428   0.76274   0.48115   0.00000  Uiso   1.00
C652   C     0.28107   0.84020   0.24121   0.00000  Uiso   1.00
C653   C     0.20183   0.77633   0.02102   0.00000  Uiso   1.00
C654   C     0.17057   0.80349   0.04289   0.00000  Uiso   1.00
C655   C     0.22922   0.76248   0.03985   0.00000  Uiso   1.00
C656   C     0.22567   0.77527   0.07982   0.00000  Uiso   1.00
C657   C     0.16974   0.81786   0.08256   0.00000  Uiso   1.00
C658   C     0.32706   0.84281   0.23765   0.00000  Uiso   1.00
C659   C     0.00704   0.82418   0.26234   0.00000  Uiso   1.00
C660   C     0.09487   0.87948   0.42224   0.00000  Uiso   1.00
C661   C     0.17932   0.98879   0.23802   0.00000  Uiso   1.00
C662   C     0.14984   0.67902   0.26328   0.00000  Uiso   1.00
C663   C     0.15581   0.72298   0.25897   0.00000  Uiso   1.00
C664   C     0.17659   0.94436   0.24141   0.00000  Uiso   1.00
C665   C     0.18800   0.81197   0.14388   0.00000  Uiso   1.00
C666   C     0.14508   0.85428   0.35656   0.00000  Uiso   1.00
C667   C     0.13121   0.85888   0.40061   0.00000  Uiso   1.00
C668   C     0.19588   0.80276   0.10111   0.00000  Uiso   1.00
C669   C     0.08234   0.88269   0.46387   0.00000  Uiso   1.00
C670   C     0.00836   0.84802   0.04352   0.00000  Uiso   1.00
C671   C     0.15299   0.84018   0.42123   0.00000  Uiso   1.00
C672   C     0.30282   0.87264   0.06048   0.00000  Uiso   1.00
C673   C     0.20512   0.99963   0.17281   0.00000  Uiso   1.00
C674   C     0.23962   0.69164   0.14361   0.00000  Uiso   1.00
C675   C     0.08076   0.68538   0.30709   0.00000  Uiso   1.00
C676   C     0.04340   0.99409   0.33439   0.00000  Uiso   1.00
C677   C     0.07287   0.94959   0.48941   0.00000  Uiso   1.00
C678   C     0.03986   0.97884   0.01330   0.00000  Uiso   1.00
C679   C     0.03473   0.87344   0.40067   0.00000  Uiso   1.00
C680   C     0.01079   0.89416   0.37897   0.00000  Uiso   1.00
C681   C     0.06598   0.78914   0.08972   0.00000  Uiso   1.00
C682   C     0.13481   0.83513   0.46192   0.00000  Uiso   1.00
C683   C     0.03400   0.78771   0.13066   0.00000  Uiso   1.00
C684   C     0.14231   0.73162   0.42633   0.00000  Uiso   1.00
C685   C     0.14306   0.71073   0.38491   0.00000  Uiso   1.00
C686   C     0.09961   0.85779   0.48380   0.00000  Uiso   1.00
C687   C     0.15286   0.81067   0.48193   0.00000  Uiso   1.00
C688   C     0.14248   0.81680   0.02389   0.00000  Uiso   1.00
C689   C     0.10357   0.83457   0.04492   0.00000  Uiso   1.00
C690   C     0.08237   0.85480   0.02496   0.00000  Uiso   1.00
F691   F     0.25917   0.73627   0.01996   0.00000  Uiso   1.00
F692   F     0.23070   0.73362   0.46043   0.00000  Uiso   1.00
F693   F     0.19380   0.83065   0.40222   0.00000  Uiso   1.00
H694   H     0.01684   0.85989   0.21485   0.00000  Uiso   1.00
H695   H     0.17300   0.67597   0.17459   0.00000  Uiso   1.00
H696   H     0.20578   0.96610   0.16116   0.00000  Uiso   1.00
H697   H     0.27209   0.68222   0.14038   0.00000  Uiso   1.00
H698   H     0.23295   0.68625   0.11417   0.00000  Uiso   1.00
H699   H     0.23949   0.72535   0.15442   0.00000  Uiso   1.00
H700   H     0.06954   0.69165   0.28185   0.00000  Uiso   1.00
H701   H     0.08930   0.71527   0.32411   0.00000  Uiso   1.00
H702   H     0.05346   0.98649   0.35970   0.00000  Uiso   1.00
H703   H     0.01551   0.67942   0.34608   0.00000  Uiso   1.00
H704   H     0.03315   0.96471   0.31772   0.00000  Uiso   1.00
H705   H     0.31795   0.80706   0.28544   0.00000  Uiso   1.00
H706   H     0.08884   0.96150   0.46015   0.00000  Uiso   1.00
H707   H     0.09758   0.95015   0.00576   0.00000  Uiso   1.00
H708   H     0.02442   0.96876   0.04328   0.00000  Uiso   1.00
H709   H     0.05619   0.67770   0.01650   0.00000  Uiso   1.00
H710   H     0.01451   0.97876   0.49794   0.00000  Uiso   1.00
H711   H     0.01278   0.86860   0.43071   0.00000  Uiso   1.00
H712   H     0.04236   0.84259   0.38381   0.00000  Uiso   1.00
H713   H     0.03178   0.89939   0.34882   0.00000  Uiso   1.00
H714   H     0.31428   0.87385   0.37626   0.00000  Uiso   1.00
H715   H     0.00164   0.92454   0.39564   0.00000  Uiso   1.00
H716   H     0.14936   0.84119   0.09965   0.00000  Uiso   1.00
H717   H     0.09174   0.76929   0.08762   0.00000  Uiso   1.00
H718   H     0.04849   0.77555   0.06719   0.00000  Uiso   1.00
H719   H     0.00761   0.80714   0.13372   0.00000  Uiso   1.00
H720   H     0.01962   0.75511   0.13494   0.00000  Uiso   1.00
H721   H     0.05083   0.79965   0.15390   0.00000  Uiso   1.00
H722   H     0.11217   0.74726   0.43843   0.00000  Uiso   1.00
H723   H     0.14172   0.70701   0.44527   0.00000  Uiso   1.00
H724   H     0.11410   0.68759   0.38637   0.00000  Uiso   1.00
H725   H     0.14294   0.73446   0.36547   0.00000  Uiso   1.00
H726   H     0.17259   0.69446   0.37204   0.00000  Uiso   1.00
H727   H     0.24601   0.76356   0.09424   0.00000  Uiso   1.00
H728   H     0.00319   0.82096   0.06064   0.00000  Uiso   1.00
H729   H     0.00966   0.83637   0.01205   0.00000  Uiso   1.00
H730   H     0.30732   0.90061   0.04469   0.00000  Uiso   1.00
H731   H     0.27305   0.85306   0.05668   0.00000  Uiso   1.00
H732   H     0.29882   0.88255   0.09257   0.00000  Uiso   1.00
O733   O     0.16667   0.83333   0.25000   0.00000  Uiso   1.00
O734   O     0.15693   0.79060   0.16625   0.00000  Uiso   1.00
O735   O     0.12687   0.87313   0.33749   0.00000  Uiso   1.00
O736   O     0.21088   0.84159   0.15877   0.00000  Uiso   1.00
O737   O     0.17198   0.82802   0.33749   0.00000  Uiso   1.00
O738   O     0.04625   0.87405   0.04702   0.00000  Uiso   1.00
O739   O     0.21401   0.67367   0.21007   0.00000  Uiso   1.00
O740   O     0.11652   0.99517   0.29359   0.00000  Uiso   1.00
O741   O     0.05159   0.90899   0.48457   0.00000  Uiso   1.00
O742   O     0.07307   0.89920   0.40317   0.00000  Uiso   1.00
O743   O     0.08384   0.83092   0.08478   0.00000  Uiso   1.00
O744   O     0.17849   0.74768   0.27820   0.00000  Uiso   1.00
O745   O     0.17951   0.76070   0.42400   0.00000  Uiso   1.00
O746   O     0.14581   0.92803   0.26767   0.00000  Uiso   1.00
O747   O     0.07452   0.79917   0.23607   0.00000  Uiso   1.00
O748   O     0.26785   0.85845   0.21805   0.00000  Uiso   1.00
O749   O     0.06990   0.85627   0.27820   0.00000  Uiso   1.00
O750   O     0.25440   0.81944   0.26767   0.00000  Uiso   1.00
O751   O     0.13800   0.73570   0.23607   0.00000  Uiso   1.00
O752   O     0.20437   0.92193   0.21805   0.00000  Uiso   1.00
Zn753  Zn    0.19244   0.80756   0.28277   0.00000  Uiso   1.00
Zn754  Zn    0.13459   0.79044   0.22257   0.00000  Uiso   1.00
Zn755  Zn    0.21166   0.86331   0.21188   0.00000  Uiso   1.00
Zn756  Zn    0.12798   0.87202   0.28277   0.00000  Uiso   1.00
C757   C     0.38575   0.82650   0.25889   0.00000  Uiso   1.00
C758   C     0.51266   0.77871   0.46188   0.00000  Uiso   1.00
C759   C     0.53762   0.76274   0.48115   0.00000  Uiso   1.00
C760   C     0.61440   0.84020   0.24121   0.00000  Uiso   1.00
C761   C     0.53516   0.77633   0.02102   0.00000  Uiso   1.00
C762   C     0.50390   0.80349   0.04289   0.00000  Uiso   1.00
C763   C     0.56255   0.76248   0.03985   0.00000  Uiso   1.00
C764   C     0.55900   0.77527   0.07982   0.00000  Uiso   1.00
C765   C     0.50307   0.81786   0.08256   0.00000  Uiso   1.00
C766   C     0.66039   0.84281   0.23765   0.00000  Uiso   1.00
C767   C     0.34037   0.82418   0.26234   0.00000  Uiso   1.00
C768   C     0.42820   0.87948   0.42224   0.00000  Uiso   1.00
C769   C     0.51266   0.98879   0.23802   0.00000  Uiso   1.00
C770   C     0.48318   0.67902   0.26328   0.00000  Uiso   1.00
C771   C     0.48914   0.72298   0.25897   0.00000  Uiso   1.00
C772   C     0.50992   0.94436   0.24141   0.00000  Uiso   1.00
C773   C     0.52134   0.81197   0.14388   0.00000  Uiso   1.00
C774   C     0.47842   0.85428   0.35656   0.00000  Uiso   1.00
C775   C     0.46454   0.85888   0.40061   0.00000  Uiso   1.00
C776   C     0.52921   0.80276   0.10111   0.00000  Uiso   1.00
C777   C     0.41568   0.88269   0.46387   0.00000  Uiso   1.00
C778   C     0.34169   0.84802   0.04352   0.00000  Uiso   1.00
C779   C     0.48632   0.84018   0.42123   0.00000  Uiso   1.00
C780   C     0.63616   0.87264   0.06048   0.00000  Uiso   1.00
C781   C     0.53845   0.99963   0.17281   0.00000  Uiso   1.00
C782   C     0.57296   0.69164   0.14361   0.00000  Uiso   1.00
C783   C     0.41409   0.68538   0.30709   0.00000  Uiso   1.00
C784   C     0.37673   0.99409   0.33439   0.00000  Uiso   1.00
C785   C     0.40621   0.94959   0.48941   0.00000  Uiso   1.00
C786   C     0.37319   0.97884   0.01330   0.00000  Uiso   1.00
C787   C     0.36807   0.87344   0.40067   0.00000  Uiso   1.00
C788   C     0.34412   0.89416   0.37897   0.00000  Uiso   1.00
C789   C     0.39932   0.78914   0.08972   0.00000  Uiso   1.00
C790   C     0.46815   0.83513   0.46192   0.00000  Uiso   1.00
C791   C     0.36733   0.78771   0.13066   0.00000  Uiso   1.00
C792   C     0.47564   0.73162   0.42633   0.00000  Uiso   1.00
C793   C     0.47640   0.71073   0.38491   0.00000  Uiso   1.00
C794   C     0.43294   0.85779   0.48380   0.00000  Uiso   1.00
C795   C     0.48619   0.81067   0.48193   0.00000  Uiso   1.00
C796   C     0.47582   0.81680   0.02389   0.00000  Uiso   1.00
C797   C     0.43691   0.83457   0.04492   0.00000  Uiso   1.00
C798   C     0.41570   0.85480   0.02496   0.00000  Uiso   1.00
F799   F     0.59250   0.73627   0.01996   0.00000  Uiso   1.00
F800   F     0.56403   0.73362   0.46043   0.00000  Uiso   1.00
F801   F     0.52713   0.83065   0.40222   0.00000  Uiso   1.00
H802   H     0.35017   0.85989   0.21485   0.00000  Uiso   1.00
H803   H     0.50634   0.67597   0.17459   0.00000  Uiso   1.00
H804   H     0.53911   0.96610   0.16116   0.00000  Uiso   1.00
H805   H     0.60543   0.68222   0.14038   0.00000  Uiso   1.00
H806   H     0.56629   0.68625   0.11417   0.00000  Uiso   1.00
H807   H     0.57282   0.72535   0.15442   0.00000  Uiso   1.00
H808   H     0.40287   0.69165   0.28185   0.00000  Uiso   1.00
H809   H     0.42263   0.71527   0.32411   0.00000  Uiso   1.00
H810   H     0.38679   0.98649   0.35970   0.00000  Uiso   1.00
H811   H     0.34884   0.67942   0.34608   0.00000  Uiso   1.00
H812   H     0.36649   0.96471   0.31772   0.00000  Uiso   1.00
H813   H     0.65128   0.80706   0.28544   0.00000  Uiso   1.00
H814   H     0.42217   0.96150   0.46015   0.00000  Uiso   1.00
H815   H     0.43092   0.95015   0.00576   0.00000  Uiso   1.00
H816   H     0.35775   0.96876   0.04328   0.00000  Uiso   1.00
H817   H     0.38953   0.67770   0.01650   0.00000  Uiso   1.00
H818   H     0.34784   0.97876   0.49794   0.00000  Uiso   1.00
H819   H     0.34611   0.86860   0.43071   0.00000  Uiso   1.00
H820   H     0.37570   0.84259   0.38381   0.00000  Uiso   1.00
H821   H     0.36512   0.89939   0.34882   0.00000  Uiso   1.00
H822   H     0.64761   0.87385   0.37626   0.00000  Uiso   1.00
H823   H     0.33498   0.92454   0.39564   0.00000  Uiso   1.00
H824   H     0.48269   0.84119   0.09965   0.00000  Uiso   1.00
H825   H     0.42507   0.76929   0.08762   0.00000  Uiso   1.00
H826   H     0.38182   0.77555   0.06719   0.00000  Uiso   1.00
H827   H     0.34094   0.80714   0.13372   0.00000  Uiso   1.00
H828   H     0.35295   0.75511   0.13494   0.00000  Uiso   1.00
H829   H     0.38417   0.79965   0.15390   0.00000  Uiso   1.00
H830   H     0.44550   0.74726   0.43843   0.00000  Uiso   1.00
H831   H     0.47505   0.70701   0.44527   0.00000  Uiso   1.00
H832   H     0.44743   0.68759   0.38637   0.00000  Uiso   1.00
H833   H     0.47628   0.73446   0.36547   0.00000  Uiso   1.00
H834   H     0.50593   0.69446   0.37204   0.00000  Uiso   1.00
H835   H     0.57935   0.76356   0.09424   0.00000  Uiso   1.00
H836   H     0.33653   0.82096   0.06064   0.00000  Uiso   1.00
H837   H     0.34299   0.83637   0.01205   0.00000  Uiso   1.00
H838   H     0.64066   0.90061   0.04469   0.00000  Uiso   1.00
H839   H     0.60639   0.85306   0.05668   0.00000  Uiso   1.00
H840   H     0.63215   0.88255   0.09257   0.00000  Uiso   1.00
O841   O     0.50000   0.83333   0.25000   0.00000  Uiso   1.00
O842   O     0.49027   0.79060   0.16625   0.00000  Uiso   1.00
O843   O     0.46020   0.87313   0.33749   0.00000  Uiso   1.00
O844   O     0.54421   0.84159   0.15877   0.00000  Uiso   1.00
O845   O     0.50532   0.82802   0.33749   0.00000  Uiso   1.00
O846   O     0.37958   0.87405   0.04702   0.00000  Uiso   1.00
O847   O     0.54734   0.67367   0.21007   0.00000  Uiso   1.00
O848   O     0.44985   0.99517   0.29359   0.00000  Uiso   1.00
O849   O     0.38492   0.90899   0.48457   0.00000  Uiso   1.00
O850   O     0.40640   0.89920   0.40317   0.00000  Uiso   1.00
O851   O     0.41718   0.83092   0.08478   0.00000  Uiso   1.00
O852   O     0.51182   0.74768   0.27820   0.00000  Uiso   1.00
O853   O     0.51284   0.76070   0.42400   0.00000  Uiso   1.00
O854   O     0.47914   0.92803   0.26767   0.00000  Uiso   1.00
O855   O     0.40785   0.79917   0.23607   0.00000  Uiso   1.00
O856   O     0.60119   0.85845   0.21805   0.00000  Uiso   1.00
O857   O     0.40323   0.85627   0.27820   0.00000  Uiso   1.00
O858   O     0.58773   0.81944   0.26767   0.00000  Uiso   1.00
O859   O     0.47133   0.73570   0.23607   0.00000  Uiso   1.00
O860   O     0.53771   0.92193   0.21805   0.00000  Uiso   1.00
Zn861  Zn    0.52577   0.80756   0.28277   0.00000  Uiso   1.00
Zn862  Zn    0.46792   0.79044   0.22257   0.00000  Uiso   1.00
Zn863  Zn    0.54500   0.86331   0.21188   0.00000  Uiso   1.00
Zn864  Zn    0.46131   0.87202   0.28277   0.00000  Uiso   1.00
C865   C     0.71908   0.82650   0.25889   0.00000  Uiso   1.00
C866   C     0.84600   0.77871   0.46188   0.00000  Uiso   1.00
C867   C     0.87095   0.76274   0.48115   0.00000  Uiso   1.00
C868   C     0.94773   0.84020   0.24121   0.00000  Uiso   1.00
C869   C     0.86850   0.77633   0.02102   0.00000  Uiso   1.00
C870   C     0.83723   0.80349   0.04289   0.00000  Uiso   1.00
C871   C     0.89589   0.76248   0.03985   0.00000  Uiso   1.00
C872   C     0.89233   0.77527   0.07982   0.00000  Uiso   1.00
C873   C     0.83641   0.81786   0.08256   0.00000  Uiso   1.00
C874   C     0.99372   0.84281   0.23765   0.00000  Uiso   1.00
C875   C     0.67370   0.82418   0.26234   0.00000  Uiso   1.00
C876   C     0.76154   0.87948   0.42224   0.00000  Uiso   1.00
C877   C     0.84599   0.98879   0.23802   0.00000  Uiso   1.00
C878   C     0.81651   0.67902   0.26328   0.00000  Uiso   1.00
C879   C     0.82248   0.72298   0.25897   0.00000  Uiso   1.00
C880   C     0.84325   0.94436   0.24141   0.00000  Uiso   1.00
C881   C     0.85467   0.81197   0.14388   0.00000  Uiso   1.00
C882   C     0.81175   0.85428   0.35656   0.00000  Uiso   1.00
C883   C     0.79788   0.85888   0.40061   0.00000  Uiso   1.00
C884   C     0.86255   0.80276   0.10111   0.00000  Uiso   1.00
C885   C     0.74901   0.88269   0.46387   0.00000  Uiso   1.00
C886   C     0.67503   0.84802   0.04352   0.00000  Uiso   1.00
C887   C     0.81965   0.84018   0.42123   0.00000  Uiso   1.00
C888   C     0.96949   0.87264   0.06048   0.00000  Uiso   1.00
C889   C     0.87178   0.99963   0.17281   0.00000  Uiso   1.00
C890   C     0.90629   0.69164   0.14361   0.00000  Uiso   1.00
C891   C     0.74743   0.68538   0.30709   0.00000  Uiso   1.00
C892   C     0.71007   0.99409   0.33439   0.00000  Uiso   1.00
C893   C     0.73954   0.94959   0.48941   0.00000  Uiso   1.00
C894   C     0.70653   0.97884   0.01330   0.00000  Uiso   1.00
C895   C     0.70140   0.87344   0.40067   0.00000  Uiso   1.00
C896   C     0.67745   0.89416   0.37897   0.00000  Uiso   1.00
C897   C     0.73265   0.78914   0.08972   0.00000  Uiso   1.00
C898   C     0.80148   0.83513   0.46192   0.00000  Uiso   1.00
C899   C     0.70066   0.78771   0.13066   0.00000  Uiso   1.00
C900   C     0.80898   0.73162   0.42633   0.00000  Uiso   1.00
C901   C     0.80973   0.71073   0.38491   0.00000  Uiso   1.00
C902   C     0.76627   0.85779   0.48380   0.00000  Uiso   1.00
C903   C     0.81952   0.81067   0.48193   0.00000  Uiso   1.00
C904   C     0.80915   0.81680   0.02389   0.00000  Uiso   1.00
C905   C     0.77024   0.83457   0.04492   0.00000  Uiso   1.00
C906   C     0.74904   0.85480   0.02496   0.00000  Uiso   1.00
F907   F     0.92584   0.73627   0.01996   0.00000  Uiso   1.00
F908   F     0.89736   0.73362   0.46043   0.00000  Uiso   1.00
F909   F     0.86046   0.83065   0.40222   0.00000  Uiso   1.00
H910   H     0.68350   0.85989   0.21485   0.00000  Uiso   1.00
H911   H     0.83967   0.67597   0.17459   0.00000  Uiso   1.00
H912   H     0.87245   0.96610   0.16116   0.00000  Uiso   1.00
H913   H     0.93876   0.68222   0.14038   0.00000  Uiso   1.00
H914   H     0.89962   0.68625   0.11417   0.00000  Uiso   1.00
H915   H     0.90616   0.72535   0.15442   0.00000  Uiso   1.00
H916   H     0.73620   0.69165   0.28185   0.00000  Uiso   1.00
H917   H     0.75597   0.71527   0.32411   0.00000  Uiso   1.00
H918   H     0.72012   0.98649   0.35970   0.00000  Uiso   1.00
H919   H     0.68217   0.67942   0.34608   0.00000  Uiso   1.00
H920   H     0.69982   0.96471   0.31772   0.00000  Uiso   1.00
H921   H     0.98462   0.80706   0.28544   0.00000  Uiso   1.00
H922   H     0.75551   0.96150   0.46015   0.00000  Uiso   1.00
H923   H     0.76425   0.95015   0.00576   0.00000  Uiso   1.00
H924   H     0.69108   0.96876   0.04328   0.00000  Uiso   1.00
H925   H     0.72286   0.67770   0.01650   0.00000  Uiso   1.00
H926   H     0.68118   0.97876   0.49794   0.00000  Uiso   1.00
H927   H     0.67945   0.86860   0.43071   0.00000  Uiso   1.00
H928   H     0.70903   0.84259   0.38381   0.00000  Uiso   1.00
H929   H     0.69845   0.89939   0.34882   0.00000  Uiso   1.00
H930   H     0.98094   0.87385   0.37626   0.00000  Uiso   1.00
H931   H     0.66831   0.92454   0.39564   0.00000  Uiso   1.00
H932   H     0.81602   0.84119   0.09965   0.00000  Uiso   1.00
H933   H     0.75840   0.76929   0.08762   0.00000  Uiso   1.00
H934   H     0.71516   0.77555   0.06719   0.00000  Uiso   1.00
H935   H     0.67427   0.80714   0.13372   0.00000  Uiso   1.00
H936   H     0.68629   0.75511   0.13494   0.00000  Uiso   1.00
H937   H     0.71750   0.79965   0.15390   0.00000  Uiso   1.00
H938   H     0.77883   0.74726   0.43843   0.00000  Uiso   1.00
H939   H     0.80839   0.70701   0.44527   0.00000  Uiso   1.00
H940   H     0.78076   0.68759   0.38637   0.00000  Uiso   1.00
H941   H     0.80961   0.73446   0.36547   0.00000  Uiso   1.00
H942   H     0.83926   0.69446   0.37204   0.00000  Uiso   1.00
H943   H     0.91268   0.76356   0.09424   0.00000  Uiso   1.00
H944   H     0.66986   0.82096   0.06064   0.00000  Uiso   1.00
H945   H     0.67633   0.83637   0.01205   0.00000  Uiso   1.00
H946   H     0.97399   0.90061   0.04469   0.00000  Uiso   1.00
H947   H     0.93972   0.85306   0.05668   0.00000  Uiso   1.00
H948   H     0.96548   0.88255   0.09257   0.00000  Uiso   1.00
O949   O     0.83333   0.83333   0.25000   0.00000  Uiso   1.00
O950   O     0.82360   0.79060   0.16625   0.00000  Uiso   1.00
O951   O     0.79354   0.87313   0.33749   0.00000  Uiso   1.00
O952   O     0.87755   0.84159   0.15877   0.00000  Uiso   1.00
O953   O     0.83865   0.82802   0.33749   0.00000  Uiso   1.00
O954   O     0.71292   0.87405   0.04702   0.00000  Uiso   1.00
O955   O     0.88067   0.67367   0.21007   0.00000  Uiso   1.00
O956   O     0.78319   0.99517   0.29359   0.00000  Uiso   1.00
O957   O     0.71826   0.90899   0.48457   0.00000  Uiso   1.00
O958   O     0.73973   0.89920   0.40317   0.00000  Uiso   1.00
O959   O     0.75051   0.83092   0.08478   0.00000  Uiso   1.00
O960   O     0.84515   0.74768   0.27820   0.00000  Uiso   1.00
O961   O     0.84617   0.76070   0.42400   0.00000  Uiso   1.00
O962   O     0.81247   0.92803   0.26767   0.00000  Uiso   1.00
O963   O     0.74119   0.79917   0.23607   0.00000  Uiso   1.00
O964   O     0.93452   0.85845   0.21805   0.00000  Uiso   1.00
O965   O     0.73656   0.85627   0.27820   0.00000  Uiso   1.00
O966   O     0.92106   0.81944   0.26767   0.00000  Uiso   1.00
O967   O     0.80467   0.73570   0.23607   0.00000  Uiso   1.00
O968   O     0.87104   0.92193   0.21805   0.00000  Uiso   1.00
Zn969  Zn    0.85910   0.80756   0.28277   0.00000  Uiso   1.00
Zn970  Zn    0.80125   0.79044   0.22257   0.00000  Uiso   1.00
Zn971  Zn    0.87833   0.86331   0.21188   0.00000  Uiso   1.00
Zn972  Zn    0.79465   0.87202   0.28277   0.00000  Uiso   1.00
C973   C     0.05242   0.15984   0.75889   0.00000  Uiso   1.00
C974   C     0.17933   0.11204   0.96188   0.00000  Uiso   1.00
C975   C     0.20428   0.09607   0.98115   0.00000  Uiso   1.00
C976   C     0.28107   0.17354   0.74121   0.00000  Uiso   1.00
C977   C     0.20183   0.10966   0.52102   0.00000  Uiso   1.00
C978   C     0.17057   0.13683   0.54289   0.00000  Uiso   1.00
C979   C     0.22922   0.09582   0.53985   0.00000  Uiso   1.00
C980   C     0.22567   0.10860   0.57982   0.00000  Uiso   1.00
C981   C     0.16974   0.15119   0.58256   0.00000  Uiso   1.00
C982   C     0.32706   0.17615   0.73765   0.00000  Uiso   1.00
C983   C     0.00704   0.15751   0.76234   0.00000  Uiso   1.00
C984   C     0.09487   0.21281   0.92224   0.00000  Uiso   1.00
C985   C     0.17932   0.32212   0.73802   0.00000  Uiso   1.00
C986   C     0.14984   0.01236   0.76328   0.00000  Uiso   1.00
C987   C     0.15581   0.05631   0.75897   0.00000  Uiso   1.00
C988   C     0.17659   0.27770   0.74141   0.00000  Uiso   1.00
C989   C     0.18800   0.14531   0.64388   0.00000  Uiso   1.00
C990   C     0.14508   0.18761   0.85656   0.00000  Uiso   1.00
C991   C     0.13121   0.19222   0.90061   0.00000  Uiso   1.00
C992   C     0.19588   0.13610   0.60111   0.00000  Uiso   1.00
C993   C     0.08234   0.21603   0.96387   0.00000  Uiso   1.00
C994   C     0.00836   0.18135   0.54352   0.00000  Uiso   1.00
C995   C     0.15299   0.17351   0.92123   0.00000  Uiso   1.00
C996   C     0.30282   0.20597   0.56048   0.00000  Uiso   1.00
C997   C     0.20512   0.33297   0.67281   0.00000  Uiso   1.00
C998   C     0.23962   0.02497   0.64361   0.00000  Uiso   1.00
C999   C     0.08076   0.01871   0.80709   0.00000  Uiso   1.00
C1000  C     0.04340   0.32742   0.83439   0.00000  Uiso   1.00
C1001  C     0.07287   0.28293   0.98941   0.00000  Uiso   1.00
C1002  C     0.03986   0.31217   0.51330   0.00000  Uiso   1.00
C1003  C     0.03473   0.20678   0.90067   0.00000  Uiso   1.00
C1004  C     0.01079   0.22749   0.87897   0.00000  Uiso   1.00
C1005  C     0.06598   0.12248   0.58972   0.00000  Uiso   1.00
C1006  C     0.13481   0.16847   0.96192   0.00000  Uiso   1.00
C1007  C     0.03400   0.12104   0.63066   0.00000  Uiso   1.00
C1008  C     0.14231   0.06495   0.92633   0.00000  Uiso   1.00
C1009  C     0.14306   0.04407   0.88491   0.00000  Uiso   1.00
C1010  C     0.09961   0.19112   0.98380   0.00000  Uiso   1.00
C1011  C     0.15286   0.14400   0.98193   0.00000  Uiso   1.00
C1012  C     0.14248   0.15014   0.52389   0.00000  Uiso   1.00
C1013  C     0.10357   0.16790   0.54492   0.00000  Uiso   1.00
C1014  C     0.08237   0.18814   0.52496   0.00000  Uiso   1.00
F1015  F     0.25917   0.06960   0.51996   0.00000  Uiso   1.00
F1016  F     0.23070   0.06696   0.96043   0.00000  Uiso   1.00
F1017  F     0.19380   0.16398   0.90222   0.00000  Uiso   1.00
H1018  H     0.01684   0.19323   0.71485   0.00000  Uiso   1.00
H1019  H     0.17300   0.00930   0.67459   0.00000  Uiso   1.00
H1020  H     0.20578   0.29943   0.66116   0.00000  Uiso   1.00
H1021  H     0.27209   0.01556   0.64038   0.00000  Uiso   1.00
H1022  H     0.23295   0.01958   0.61417   0.00000  Uiso   1.00
H1023  H     0.23949   0.05868   0.65442   0.00000  Uiso   1.00
H1024  H     0.06954   0.02498   0.78185   0.00000  Uiso   1.00
H1025  H     0.08930   0.04860   0.82411   0.00000  Uiso   1.00
H1026  H     0.05346   0.31983   0.85970   0.00000  Uiso   1.00
H1027  H     0.01551   0.01275   0.84608   0.00000  Uiso   1.00
H1028  H     0.03315   0.29805   0.81772   0.00000  Uiso   1.00
H1029  H     0.31795   0.14039   0.78544   0.00000  Uiso   1.00
H1030  H     0.08884   0.29484   0.96015   0.00000  Uiso   1.00
H1031  H     0.09758   0.28349   0.50576   0.00000  Uiso   1.00
H1032  H     0.02442   0.30210   0.54328   0.00000  Uiso   1.00
H1033  H     0.05619   0.01103   0.51650   0.00000  Uiso   1.00
H1034  H     0.01451   0.31210   0.99794   0.00000  Uiso   1.00
H1035  H     0.01278   0.20193   0.93071   0.00000  Uiso   1.00
H1036  H     0.04236   0.17592   0.88381   0.00000  Uiso   1.00
H1037  H     0.03178   0.23272   0.84882   0.00000  Uiso   1.00
H1038  H     0.31428   0.20719   0.87626   0.00000  Uiso   1.00
H1039  H     0.00164   0.25788   0.89564   0.00000  Uiso   1.00
H1040  H     0.14936   0.17453   0.59965   0.00000  Uiso   1.00
H1041  H     0.09174   0.10262   0.58762   0.00000  Uiso   1.00
H1042  H     0.04849   0.10888   0.56719   0.00000  Uiso   1.00
H1043  H     0.00761   0.14048   0.63372   0.00000  Uiso   1.00
H1044  H     0.01962   0.08844   0.63494   0.00000  Uiso   1.00
H1045  H     0.05083   0.13299   0.65390   0.00000  Uiso   1.00
H1046  H     0.11217   0.08060   0.93843   0.00000  Uiso   1.00
H1047  H     0.14172   0.04035   0.94527   0.00000  Uiso   1.00
H1048  H     0.11410   0.02093   0.88637   0.00000  Uiso   1.00
H1049  H     0.14294   0.06779   0.86547   0.00000  Uiso   1.00
H1050  H     0.17259   0.02780   0.87204   0.00000  Uiso   1.00
H1051  H     0.24601   0.09689   0.59424   0.00000  Uiso   1.00
H1052  H     0.00319   0.15429   0.56064   0.00000  Uiso   1.00
H1053  H     0.00966   0.16970   0.51205   0.00000  Uiso   1.00
H1054  H     0.30732   0.23394   0.54469   0.00000  Uiso   1.00
H1055  H     0.27305   0.18639   0.55668   0.00000  Uiso   1.00
H1056  H     0.29882   0.21589   0.59257   0.00000  Uiso   1.00
O1057  O     0.16667   0.16667   0.75000   0.00000  Uiso   1.00
O1058  O     0.15693   0.12393   0.66625   0.00000  Uiso   1.00
O1059  O     0.12687   0.20646   0.83749   0.00000  Uiso   1.00
O1060  O     0.21088   0.17493   0.65877   0.00000  Uiso   1.00
O1061  O     0.17198   0.16135   0.83749   0.00000  Uiso   1.00
O1062  O     0.04625   0.20739   0.54702   0.00000  Uiso   1.00
O1063  O     0.21401   0.00700   0.71007   0.00000  Uiso   1.00
O1064  O     0.11652   0.32850   0.79359   0.00000  Uiso   1.00
O1065  O     0.05159   0.24233   0.98457   0.00000  Uiso   1.00
O1066  O     0.07307   0.23253   0.90317   0.00000  Uiso   1.00
O1067  O     0.08384   0.16425   0.58478   0.00000  Uiso   1.00
O1068  O     0.17849   0.08101   0.77820   0.00000  Uiso   1.00
O1069  O     0.17951   0.09404   0.92400   0.00000  Uiso   1.00
O1070  O     0.14581   0.26136   0.76767   0.00000  Uiso   1.00
O1071  O     0.07452   0.13251   0.73607   0.00000  Uiso   1.00
O1072  O     0.26785   0.19179   0.71805   0.00000  Uiso   1.00
O1073  O     0.06990   0.18960   0.77820   0.00000  Uiso   1.00
O1074  O     0.25440   0.15277   0.76767   0.00000  Uiso   1.00
O1075  O     0.13800   0.06903   0.73607   0.00000  Uiso   1.00
O1076  O     0.20437   0.25527   0.71805   0.00000  Uiso   1.00
Zn1077 Zn    0.19244   0.14090   0.78277   0.00000  Uiso   1.00
Zn1078 Zn    0.13459   0.12378   0.72257   0.00000  Uiso   1.00
Zn1079 Zn    0.21166   0.19664   0.71188   0.00000  Uiso   1.00
Zn1080 Zn    0.12798   0.20535   0.78277   0.00000  Uiso   1.00
C1081  C     0.38575   0.15984   0.75889   0.00000  Uiso   1.00
C1082  C     0.51266   0.11204   0.96188   0.00000  Uiso   1.00
C1083  C     0.53762   0.09607   0.98115   0.00000  Uiso   1.00
C1084  C     0.61440   0.17354   0.74121   0.00000  Uiso   1.00
C1085  C     0.53516   0.10966   0.52102   0.00000  Uiso   1.00
C1086  C     0.50390   0.13683   0.54289   0.00000  Uiso   1.00
C1087  C     0.56255   0.09582   0.53985   0.00000  Uiso   1.00
C1088  C     0.55900   0.10860   0.57982   0.00000  Uiso   1.00
C1089  C     0.50307   0.15119   0.58256   0.00000  Uiso   1.00
C1090  C     0.66039   0.17615   0.73765   0.00000  Uiso   1.00
C1091  C     0.34037   0.15751   0.76234   0.00000  Uiso   1.00
C1092  C     0.42820   0.21281   0.92224   0.00000  Uiso   1.00
C1093  C     0.51266   0.32212   0.73802   0.00000  Uiso   1.00
C1094  C     0.48318   0.01236   0.76328   0.00000  Uiso   1.00
C1095  C     0.48914   0.05631   0.75897   0.00000  Uiso   1.00
C1096  C     0.50992   0.27770   0.74141   0.00000  Uiso   1.00
C1097  C     0.52134   0.14531   0.64388   0.00000  Uiso   1.00
C1098  C     0.47842   0.18761   0.85656   0.00000  Uiso   1.00
C1099  C     0.46454   0.19222   0.90061   0.00000  Uiso   1.00
C1100  C     0.52921   0.13610   0.60111   0.00000  Uiso   1.00
C1101  C     0.41568   0.21603   0.96387   0.00000  Uiso   1.00
C1102  C     0.34169   0.18135   0.54352   0.00000  Uiso   1.00
C1103  C     0.48632   0.17351   0.92123   0.00000  Uiso   1.00
C1104  C     0.63616   0.20597   0.56048   0.00000  Uiso   1.00
C1105  C     0.53845   0.33297   0.67281   0.00000  Uiso   1.00
C1106  C     0.57296   0.02497   0.64361   0.00000  Uiso   1.00
C1107  C     0.41409   0.01871   0.80709   0.00000  Uiso   1.00
C1108  C     0.37673   0.32742   0.83439   0.00000  Uiso   1.00
C1109  C     0.40621   0.28293   0.98941   0.00000  Uiso   1.00
C1110  C     0.37319   0.31217   0.51330   0.00000  Uiso   1.00
C1111  C     0.36807   0.20678   0.90067   0.00000  Uiso   1.00
C1112  C     0.34412   0.22749   0.87897   0.00000  Uiso   1.00
C1113  C     0.39932   0.12248   0.58972   0.00000  Uiso   1.00
C1114  C     0.46815   0.16847   0.96192   0.00000  Uiso   1.00
C1115  C     0.36733   0.12104   0.63066   0.00000  Uiso   1.00
C1116  C     0.47564   0.06495   0.92633   0.00000  Uiso   1.00
C1117  C     0.47640   0.04407   0.88491   0.00000  Uiso   1.00
C1118  C     0.43294   0.19112   0.98380   0.00000  Uiso   1.00
C1119  C     0.48619   0.14400   0.98193   0.00000  Uiso   1.00
C1120  C     0.47582   0.15014   0.52389   0.00000  Uiso   1.00
C1121  C     0.43691   0.16790   0.54492   0.00000  Uiso   1.00
C1122  C     0.41570   0.18814   0.52496   0.00000  Uiso   1.00
F1123  F     0.59250   0.06960   0.51996   0.00000  Uiso   1.00
F1124  F     0.56403   0.06696   0.96043   0.00000  Uiso   1.00
F1125  F     0.52713   0.16398   0.90222   0.00000  Uiso   1.00
H1126  H     0.35017   0.19323   0.71485   0.00000  Uiso   1.00
H1127  H     0.50634   0.00930   0.67459   0.00000  Uiso   1.00
H1128  H     0.53911   0.29943   0.66116   0.00000  Uiso   1.00
H1129  H     0.60543   0.01556   0.64038   0.00000  Uiso   1.00
H1130  H     0.56629   0.01958   0.61417   0.00000  Uiso   1.00
H1131  H     0.57282   0.05868   0.65442   0.00000  Uiso   1.00
H1132  H     0.40287   0.02498   0.78185   0.00000  Uiso   1.00
H1133  H     0.42263   0.04860   0.82411   0.00000  Uiso   1.00
H1134  H     0.38679   0.31983   0.85970   0.00000  Uiso   1.00
H1135  H     0.34884   0.01275   0.84608   0.00000  Uiso   1.00
H1136  H     0.36649   0.29805   0.81772   0.00000  Uiso   1.00
H1137  H     0.65128   0.14039   0.78544   0.00000  Uiso   1.00
H1138  H     0.42217   0.29484   0.96015   0.00000  Uiso   1.00
H1139  H     0.43092   0.28349   0.50576   0.00000  Uiso   1.00
H1140  H     0.35775   0.30210   0.54328   0.00000  Uiso   1.00
H1141  H     0.38953   0.01103   0.51650   0.00000  Uiso   1.00
H1142  H     0.34784   0.31210   0.99794   0.00000  Uiso   1.00
H1143  H     0.34611   0.20193   0.93071   0.00000  Uiso   1.00
H1144  H     0.37570   0.17592   0.88381   0.00000  Uiso   1.00
H1145  H     0.36512   0.23272   0.84882   0.00000  Uiso   1.00
H1146  H     0.64761   0.20719   0.87626   0.00000  Uiso   1.00
H1147  H     0.33498   0.25788   0.89564   0.00000  Uiso   1.00
H1148  H     0.48269   0.17453   0.59965   0.00000  Uiso   1.00
H1149  H     0.42507   0.10262   0.58762   0.00000  Uiso   1.00
H1150  H     0.38182   0.10888   0.56719   0.00000  Uiso   1.00
H1151  H     0.34094   0.14048   0.63372   0.00000  Uiso   1.00
H1152  H     0.35295   0.08844   0.63494   0.00000  Uiso   1.00
H1153  H     0.38417   0.13299   0.65390   0.00000  Uiso   1.00
H1154  H     0.44550   0.08060   0.93843   0.00000  Uiso   1.00
H1155  H     0.47505   0.04035   0.94527   0.00000  Uiso   1.00
H1156  H     0.44743   0.02093   0.88637   0.00000  Uiso   1.00
H1157  H     0.47628   0.06779   0.86547   0.00000  Uiso   1.00
H1158  H     0.50593   0.02780   0.87204   0.00000  Uiso   1.00
H1159  H     0.57935   0.09689   0.59424   0.00000  Uiso   1.00
H1160  H     0.33653   0.15429   0.56064   0.00000  Uiso   1.00
H1161  H     0.34299   0.16970   0.51205   0.00000  Uiso   1.00
H1162  H     0.64066   0.23394   0.54469   0.00000  Uiso   1.00
H1163  H     0.60639   0.18639   0.55668   0.00000  Uiso   1.00
H1164  H     0.63215   0.21589   0.59257   0.00000  Uiso   1.00
O1165  O     0.50000   0.16667   0.75000   0.00000  Uiso   1.00
O1166  O     0.49027   0.12393   0.66625   0.00000  Uiso   1.00
O1167  O     0.46020   0.20646   0.83749   0.00000  Uiso   1.00
O1168  O     0.54421   0.17493   0.65877   0.00000  Uiso   1.00
O1169  O     0.50532   0.16135   0.83749   0.00000  Uiso   1.00
O1170  O     0.37958   0.20739   0.54702   0.00000  Uiso   1.00
O1171  O     0.54734   0.00700   0.71007   0.00000  Uiso   1.00
O1172  O     0.44985   0.32850   0.79359   0.00000  Uiso   1.00
O1173  O     0.38492   0.24233   0.98457   0.00000  Uiso   1.00
O1174  O     0.40640   0.23253   0.90317   0.00000  Uiso   1.00
O1175  O     0.41718   0.16425   0.58478   0.00000  Uiso   1.00
O1176  O     0.51182   0.08101   0.77820   0.00000  Uiso   1.00
O1177  O     0.51284   0.09404   0.92400   0.00000  Uiso   1.00
O1178  O     0.47914   0.26136   0.76767   0.00000  Uiso   1.00
O1179  O     0.40785   0.13251   0.73607   0.00000  Uiso   1.00
O1180  O     0.60119   0.19179   0.71805   0.00000  Uiso   1.00
O1181  O     0.40323   0.18960   0.77820   0.00000  Uiso   1.00
O1182  O     0.58773   0.15277   0.76767   0.00000  Uiso   1.00
O1183  O     0.47133   0.06903   0.73607   0.00000  Uiso   1.00
O1184  O     0.53771   0.25527   0.71805   0.00000  Uiso   1.00
Zn1185 Zn    0.52577   0.14090   0.78277   0.00000  Uiso   1.00
Zn1186 Zn    0.46792   0.12378   0.72257   0.00000  Uiso   1.00
Zn1187 Zn    0.54500   0.19664   0.71188   0.00000  Uiso   1.00
Zn1188 Zn    0.46131   0.20535   0.78277   0.00000  Uiso   1.00
C1189  C     0.71908   0.15984   0.75889   0.00000  Uiso   1.00
C1190  C     0.84600   0.11204   0.96188   0.00000  Uiso   1.00
C1191  C     0.87095   0.09607   0.98115   0.00000  Uiso   1.00
C1192  C     0.94773   0.17354   0.74121   0.00000  Uiso   1.00
C1193  C     0.86850   0.10966   0.52102   0.00000  Uiso   1.00
C1194  C     0.83723   0.13683   0.54289   0.00000  Uiso   1.00
C1195  C     0.89589   0.09582   0.53985   0.00000  Uiso   1.00
C1196  C     0.89233   0.10860   0.57982   0.00000  Uiso   1.00
C1197  C     0.83641   0.15119   0.58256   0.00000  Uiso   1.00
C1198  C     0.99372   0.17615   0.73765   0.00000  Uiso   1.00
C1199  C     0.67370   0.15751   0.76234   0.00000  Uiso   1.00
C1200  C     0.76154   0.21281   0.92224   0.00000  Uiso   1.00
C1201  C     0.84599   0.32212   0.73802   0.00000  Uiso   1.00
C1202  C     0.81651   0.01236   0.76328   0.00000  Uiso   1.00
C1203  C     0.82248   0.05631   0.75897   0.00000  Uiso   1.00
C1204  C     0.84325   0.27770   0.74141   0.00000  Uiso   1.00
C1205  C     0.85467   0.14531   0.64388   0.00000  Uiso   1.00
C1206  C     0.81175   0.18761   0.85656   0.00000  Uiso   1.00
C1207  C     0.79788   0.19222   0.90061   0.00000  Uiso   1.00
C1208  C     0.86255   0.13610   0.60111   0.00000  Uiso   1.00
C1209  C     0.74901   0.21603   0.96387   0.00000  Uiso   1.00
C1210  C     0.67503   0.18135   0.54352   0.00000  Uiso   1.00
C1211  C     0.81965   0.17351   0.92123   0.00000  Uiso   1.00
C1212  C     0.96949   0.20597   0.56048   0.00000  Uiso   1.00
C1213  C     0.87178   0.33297   0.67281   0.00000  Uiso   1.00
C1214  C     0.90629   0.02497   0.64361   0.00000  Uiso   1.00
C1215  C     0.74743   0.01871   0.80709   0.00000  Uiso   1.00
C1216  C     0.71007   0.32742   0.83439   0.00000  Uiso   1.00
C1217  C     0.73954   0.28293   0.98941   0.00000  Uiso   1.00
C1218  C     0.70653   0.31217   0.51330   0.00000  Uiso   1.00
C1219  C     0.70140   0.20678   0.90067   0.00000  Uiso   1.00
C1220  C     0.67745   0.22749   0.87897   0.00000  Uiso   1.00
C1221  C     0.73265   0.12248   0.58972   0.00000  Uiso   1.00
C1222  C     0.80148   0.16847   0.96192   0.00000  Uiso   1.00
C1223  C     0.70066   0.12104   0.63066   0.00000  Uiso   1.00
C1224  C     0.80898   0.06495   0.92633   0.00000  Uiso   1.00
C1225  C     0.80973   0.04407   0.88491   0.00000  Uiso   1.00
C1226  C     0.76627   0.19112   0.98380   0.00000  Uiso   1.00
C1227  C     0.81952   0.14400   0.98193   0.00000  Uiso   1.00
C1228  C     0.80915   0.15014   0.52389   0.00000  Uiso   1.00
C1229  C     0.77024   0.16790   0.54492   0.00000  Uiso   1.00
C1230  C     0.74904   0.18814   0.52496   0.00000  Uiso   1.00
F1231  F     0.92584   0.06960   0.51996   0.00000  Uiso   1.00
F1232  F     0.89736   0.06696   0.96043   0.00000  Uiso   1.00
F1233  F     0.86046   0.16398   0.90222   0.00000  Uiso   1.00
H1234  H     0.68350   0.19323   0.71485   0.00000  Uiso   1.00
H1235  H     0.83967   0.00930   0.67459   0.00000  Uiso   1.00
H1236  H     0.87245   0.29943   0.66116   0.00000  Uiso   1.00
H1237  H     0.93876   0.01556   0.64038   0.00000  Uiso   1.00
H1238  H     0.89962   0.01958   0.61417   0.00000  Uiso   1.00
H1239  H     0.90616   0.05868   0.65442   0.00000  Uiso   1.00
H1240  H     0.73620   0.02498   0.78185   0.00000  Uiso   1.00
H1241  H     0.75597   0.04860   0.82411   0.00000  Uiso   1.00
H1242  H     0.72012   0.31983   0.85970   0.00000  Uiso   1.00
H1243  H     0.68217   0.01275   0.84608   0.00000  Uiso   1.00
H1244  H     0.69982   0.29805   0.81772   0.00000  Uiso   1.00
H1245  H     0.98462   0.14039   0.78544   0.00000  Uiso   1.00
H1246  H     0.75551   0.29484   0.96015   0.00000  Uiso   1.00
H1247  H     0.76425   0.28349   0.50576   0.00000  Uiso   1.00
H1248  H     0.69108   0.30210   0.54328   0.00000  Uiso   1.00
H1249  H     0.72286   0.01103   0.51650   0.00000  Uiso   1.00
H1250  H     0.68118   0.31210   0.99794   0.00000  Uiso   1.00
H1251  H     0.67945   0.20193   0.93071   0.00000  Uiso   1.00
H1252  H     0.70903   0.17592   0.88381   0.00000  Uiso   1.00
H1253  H     0.69845   0.23272   0.84882   0.00000  Uiso   1.00
H1254  H     0.98094   0.20719   0.87626   0.00000  Uiso   1.00
H1255  H     0.66831   0.25788   0.89564   0.00000  Uiso   1.00
H1256  H     0.81602   0.17453   0.59965   0.00000  Uiso   1.00
H1257  H     0.75840   0.10262   0.58762   0.00000  Uiso   1.00
H1258  H     0.71516   0.10888   0.56719   0.00000  Uiso   1.00
H1259  H     0.67427   0.14048   0.63372   0.00000  Uiso   1.00
H1260  H     0.68629   0.08844   0.63494   0.00000  Uiso   1.00
H1261  H     0.71750   0.13299   0.65390   0.00000  Uiso   1.00
H1262  H     0.77883   0.08060   0.93843   0.00000  Uiso   1.00
H1263  H     0.80839   0.04035   0.94527   0.00000  Uiso   1.00
H1264  H     0.78076   0.02093   0.88637   0.00000  Uiso   1.00
H1265  H     0.80961   0.06779   0.86547   0.00000  Uiso   1.00
H1266  H     0.83926   0.02780   0.87204   0.00000  Uiso   1.00
H1267  H     0.91268   0.09689   0.59424   0.00000  Uiso   1.00
H1268  H     0.66986   0.15429   0.56064   0.00000  Uiso   1.00
H1269  H     0.67633   0.16970   0.51205   0.00000  Uiso   1.00
H1270  H     0.97399   0.23394   0.54469   0.00000  Uiso   1.00
H1271  H     0.93972   0.18639   0.55668   0.00000  Uiso   1.00
H1272  H     0.96548   0.21589   0.59257   0.00000  Uiso   1.00
O1273  O     0.83333   0.16667   0.75000   0.00000  Uiso   1.00
O1274  O     0.82360   0.12393   0.66625   0.00000  Uiso   1.00
O1275  O     0.79354   0.20646   0.83749   0.00000  Uiso   1.00
O1276  O     0.87755   0.17493   0.65877   0.00000  Uiso   1.00
O1277  O     0.83865   0.16135   0.83749   0.00000  Uiso   1.00
O1278  O     0.71292   0.20739   0.54702   0.00000  Uiso   1.00
O1279  O     0.88067   0.00700   0.71007   0.00000  Uiso   1.00
O1280  O     0.78319   0.32850   0.79359   0.00000  Uiso   1.00
O1281  O     0.71826   0.24233   0.98457   0.00000  Uiso   1.00
O1282  O     0.73973   0.23253   0.90317   0.00000  Uiso   1.00
O1283  O     0.75051   0.16425   0.58478   0.00000  Uiso   1.00
O1284  O     0.84515   0.08101   0.77820   0.00000  Uiso   1.00
O1285  O     0.84617   0.09404   0.92400   0.00000  Uiso   1.00
O1286  O     0.81247   0.26136   0.76767   0.00000  Uiso   1.00
O1287  O     0.74119   0.13251   0.73607   0.00000  Uiso   1.00
O1288  O     0.93452   0.19179   0.71805   0.00000  Uiso   1.00
O1289  O     0.73656   0.18960   0.77820   0.00000  Uiso   1.00
O1290  O     0.92106   0.15277   0.76767   0.00000  Uiso   1.00
O1291  O     0.80467   0.06903   0.73607   0.00000  Uiso   1.00
O1292  O     0.87104   0.25527   0.71805   0.00000  Uiso   1.00
Zn1293 Zn    0.85910   0.14090   0.78277   0.00000  Uiso   1.00
Zn1294 Zn    0.80125   0.12378   0.72257   0.00000  Uiso   1.00
Zn1295 Zn    0.87833   0.19664   0.71188   0.00000  Uiso   1.00
Zn1296 Zn    0.79465   0.20535   0.78277   0.00000  Uiso   1.00
C1297  C     0.05242   0.49317   0.75889   0.00000  Uiso   1.00
C1298  C     0.17933   0.44537   0.96188   0.00000  Uiso   1.00
C1299  C     0.20428   0.42940   0.98115   0.00000  Uiso   1.00
C1300  C     0.28107   0.50687   0.74121   0.00000  Uiso   1.00
C1301  C     0.20183   0.44299   0.52102   0.00000  Uiso   1.00
C1302  C     0.17057   0.47016   0.54289   0.00000  Uiso   1.00
C1303  C     0.22922   0.42915   0.53985   0.00000  Uiso   1.00
C1304  C     0.22567   0.44193   0.57982   0.00000  Uiso   1.00
C1305  C     0.16974   0.48453   0.58256   0.00000  Uiso   1.00
C1306  C     0.32706   0.50948   0.73765   0.00000  Uiso   1.00
C1307  C     0.00704   0.49084   0.76234   0.00000  Uiso   1.00
C1308  C     0.09487   0.54614   0.92224   0.00000  Uiso   1.00
C1309  C     0.17932   0.65546   0.73802   0.00000  Uiso   1.00
C1310  C     0.14984   0.34569   0.76328   0.00000  Uiso   1.00
C1311  C     0.15581   0.38965   0.75897   0.00000  Uiso   1.00
C1312  C     0.17659   0.61103   0.74141   0.00000  Uiso   1.00
C1313  C     0.18800   0.47864   0.64388   0.00000  Uiso   1.00
C1314  C     0.14508   0.52095   0.85656   0.00000  Uiso   1.00
C1315  C     0.13121   0.52555   0.90061   0.00000  Uiso   1.00
C1316  C     0.19588   0.46943   0.60111   0.00000  Uiso   1.00
C1317  C     0.08234   0.54936   0.96387   0.00000  Uiso   1.00
C1318  C     0.00836   0.51468   0.54352   0.00000  Uiso   1.00
C1319  C     0.15299   0.50685   0.92123   0.00000  Uiso   1.00
C1320  C     0.30282   0.53930   0.56048   0.00000  Uiso   1.00
C1321  C     0.20512   0.66630   0.67281   0.00000  Uiso   1.00
C1322  C     0.23962   0.35830   0.64361   0.00000  Uiso   1.00
C1323  C     0.08076   0.35204   0.80709   0.00000  Uiso   1.00
C1324  C     0.04340   0.66076   0.83439   0.00000  Uiso   1.00
C1325  C     0.07287   0.61626   0.98941   0.00000  Uiso   1.00
C1326  C     0.03986   0.64551   0.51330   0.00000  Uiso   1.00
C1327  C     0.03473   0.54011   0.90067   0.00000  Uiso   1.00
C1328  C     0.01079   0.56083   0.87897   0.00000  Uiso   1.00
C1329  C     0.06598   0.45581   0.58972   0.00000  Uiso   1.00
C1330  C     0.13481   0.50180   0.96192   0.00000  Uiso   1.00
C1331  C     0.03400   0.45438   0.63066   0.00000  Uiso   1.00
C1332  C     0.14231   0.39828   0.92633   0.00000  Uiso   1.00
C1333  C     0.14306   0.37740   0.88491   0.00000  Uiso   1.00
C1334  C     0.09961   0.52446   0.98380   0.00000  Uiso   1.00
C1335  C     0.15286   0.47733   0.98193   0.00000  Uiso   1.00
C1336  C     0.14248   0.48347   0.52389   0.00000  Uiso   1.00
C1337  C     0.10357   0.50123   0.54492   0.00000  Uiso   1.00
C1338  C     0.08237   0.52147   0.52496   0.00000  Uiso   1.00
F1339  F     0.25917   0.40293   0.51996   0.00000  Uiso   1.00
F1340  F     0.23070   0.40029   0.96043   0.00000  Uiso   1.00
F1341  F     0.19380   0.49731   0.90222   0.00000  Uiso   1.00
H1342  H     0.01684   0.52656   0.71485   0.00000  Uiso   1.00
H1343  H     0.17300   0.34264   0.67459   0.00000  Uiso   1.00
H1344  H     0.20578   0.63277   0.66116   0.00000  Uiso   1.00
H1345  H     0.27209   0.34889   0.64038   0.00000  Uiso   1.00
H1346  H     0.23295   0.35291   0.61417   0.00000  Uiso   1.00
H1347  H     0.23949   0.39201   0.65442   0.00000  Uiso   1.00
H1348  H     0.06954   0.35832   0.78185   0.00000  Uiso   1.00
H1349  H     0.08930   0.38194   0.82411   0.00000  Uiso   1.00
H1350  H     0.05346   0.65316   0.85970   0.00000  Uiso   1.00
H1351  H     0.01551   0.34609   0.84608   0.00000  Uiso   1.00
H1352  H     0.03315   0.63138   0.81772   0.00000  Uiso   1.00
H1353  H     0.31795   0.47373   0.78544   0.00000  Uiso   1.00
H1354  H     0.08884   0.62817   0.96015   0.00000  Uiso   1.00
H1355  H     0.09758   0.61682   0.50576   0.00000  Uiso   1.00
H1356  H     0.02442   0.63543   0.54328   0.00000  Uiso   1.00
H1357  H     0.05619   0.34437   0.51650   0.00000  Uiso   1.00
H1358  H     0.01451   0.64543   0.99794   0.00000  Uiso   1.00
H1359  H     0.01278   0.53526   0.93071   0.00000  Uiso   1.00
H1360  H     0.04236   0.50926   0.88381   0.00000  Uiso   1.00
H1361  H     0.03178   0.56605   0.84882   0.00000  Uiso   1.00
H1362  H     0.31428   0.54052   0.87626   0.00000  Uiso   1.00
H1363  H     0.00164   0.59121   0.89564   0.00000  Uiso   1.00
H1364  H     0.14936   0.50786   0.59965   0.00000  Uiso   1.00
H1365  H     0.09174   0.43595   0.58762   0.00000  Uiso   1.00
H1366  H     0.04849   0.44222   0.56719   0.00000  Uiso   1.00
H1367  H     0.00761   0.47381   0.63372   0.00000  Uiso   1.00
H1368  H     0.01962   0.42177   0.63494   0.00000  Uiso   1.00
H1369  H     0.05083   0.46632   0.65390   0.00000  Uiso   1.00
H1370  H     0.11217   0.41393   0.93843   0.00000  Uiso   1.00
H1371  H     0.14172   0.37368   0.94527   0.00000  Uiso   1.00
H1372  H     0.11410   0.35426   0.88637   0.00000  Uiso   1.00
H1373  H     0.14294   0.40112   0.86547   0.00000  Uiso   1.00
H1374  H     0.17259   0.36113   0.87204   0.00000  Uiso   1.00
H1375  H     0.24601   0.43022   0.59424   0.00000  Uiso   1.00
H1376  H     0.00319   0.48762   0.56064   0.00000  Uiso   1.00
H1377  H     0.00966   0.50304   0.51205   0.00000  Uiso   1.00
H1378  H     0.30732   0.56727   0.54469   0.00000  Uiso   1.00
H1379  H     0.27305   0.51973   0.55668   0.00000  Uiso   1.00
H1380  H     0.29882   0.54922   0.59257   0.00000  Uiso   1.00
O1381  O     0.16667   0.50000   0.75000   0.00000  Uiso   1.00
O1382  O     0.15693   0.45726   0.66625   0.00000  Uiso   1.00
O1383  O     0.12687   0.53979   0.83749   0.00000  Uiso   1.00
O1384  O     0.21088   0.50826   0.65877   0.00000  Uiso   1.00
O1385  O     0.17198   0.49468   0.83749   0.00000  Uiso   1.00
O1386  O     0.04625   0.54072   0.54702   0.00000  Uiso   1.00
O1387  O     0.21401   0.34034   0.71007   0.00000  Uiso   1.00
O1388  O     0.11652   0.66184   0.79359   0.00000  Uiso   1.00
O1389  O     0.05159   0.57566   0.98457   0.00000  Uiso   1.00
O1390  O     0.07307   0.56587   0.90317   0.00000  Uiso   1.00
O1391  O     0.08384   0.49759   0.58478   0.00000  Uiso   1.00
O1392  O     0.17849   0.41434   0.77820   0.00000  Uiso   1.00
O1393  O     0.17951   0.42737   0.92400   0.00000  Uiso   1.00
O1394  O     0.14581   0.59469   0.76767   0.00000  Uiso   1.00
O1395  O     0.07452   0.46584   0.73607   0.00000  Uiso   1.00
O1396  O     0.26785   0.52512   0.71805   0.00000  Uiso   1.00
O1397  O     0.06990   0.52293   0.77820   0.00000  Uiso   1.00
O1398  O     0.25440   0.48610   0.76767   0.00000  Uiso   1.00
O1399  O     0.13800   0.40236   0.73607   0.00000  Uiso   1.00
O1400  O     0.20437   0.58860   0.71805   0.00000  Uiso   1.00
Zn1401 Zn    0.19244   0.47423   0.78277   0.00000  Uiso   1.00
Zn1402 Zn    0.13459   0.45711   0.72257   0.00000  Uiso   1.00
Zn1403 Zn    0.21166   0.52997   0.71188   0.00000  Uiso   1.00
Zn1404 Zn    0.12798   0.53868   0.78277   0.00000  Uiso   1.00
C1405  C     0.38575   0.49317   0.75889   0.00000  Uiso   1.00
C1406  C     0.51266   0.44537   0.96188   0.00000  Uiso   1.00
C1407  C     0.53762   0.42940   0.98115   0.00000  Uiso   1.00
C1408  C     0.61440   0.50687   0.74121   0.00000  Uiso   1.00
C1409  C     0.53516   0.44299   0.52102   0.00000  Uiso   1.00
C1410  C     0.50390   0.47016   0.54289   0.00000  Uiso   1.00
C1411  C     0.56255   0.42915   0.53985   0.00000  Uiso   1.00
C1412  C     0.55900   0.44193   0.57982   0.00000  Uiso   1.00
C1413  C     0.50307   0.48453   0.58256   0.00000  Uiso   1.00
C1414  C     0.66039   0.50948   0.73765   0.00000  Uiso   1.00
C1415  C     0.34037   0.49084   0.76234   0.00000  Uiso   1.00
C1416  C     0.42820   0.54614   0.92224   0.00000  Uiso   1.00
C1417  C     0.51266   0.65546   0.73802   0.00000  Uiso   1.00
C1418  C     0.48318   0.34569   0.76328   0.00000  Uiso   1.00
C1419  C     0.48914   0.38965   0.75897   0.00000  Uiso   1.00
C1420  C     0.50992   0.61103   0.74141   0.00000  Uiso   1.00
C1421  C     0.52134   0.47864   0.64388   0.00000  Uiso   1.00
C1422  C     0.47842   0.52095   0.85656   0.00000  Uiso   1.00
C1423  C     0.46454   0.52555   0.90061   0.00000  Uiso   1.00
C1424  C     0.52921   0.46943   0.60111   0.00000  Uiso   1.00
C1425  C     0.41568   0.54936   0.96387   0.00000  Uiso   1.00
C1426  C     0.34169   0.51468   0.54352   0.00000  Uiso   1.00
C1427  C     0.48632   0.50685   0.92123   0.00000  Uiso   1.00
C1428  C     0.63616   0.53930   0.56048   0.00000  Uiso   1.00
C1429  C     0.53845   0.66630   0.67281   0.00000  Uiso   1.00
C1430  C     0.57296   0.35830   0.64361   0.00000  Uiso   1.00
C1431  C     0.41409   0.35204   0.80709   0.00000  Uiso   1.00
C1432  C     0.37673   0.66076   0.83439   0.00000  Uiso   1.00
C1433  C     0.40621   0.61626   0.98941   0.00000  Uiso   1.00
C1434  C     0.37319   0.64551   0.51330   0.00000  Uiso   1.00
C1435  C     0.36807   0.54011   0.90067   0.00000  Uiso   1.00
C1436  C     0.34412   0.56083   0.87897   0.00000  Uiso   1.00
C1437  C     0.39932   0.45581   0.58972   0.00000  Uiso   1.00
C1438  C     0.46815   0.50180   0.96192   0.00000  Uiso   1.00
C1439  C     0.36733   0.45438   0.63066   0.00000  Uiso   1.00
C1440  C     0.47564   0.39828   0.92633   0.00000  Uiso   1.00
C1441  C     0.47640   0.37740   0.88491   0.00000  Uiso   1.00
C1442  C     0.43294   0.52446   0.98380   0.00000  Uiso   1.00
C1443  C     0.48619   0.47733   0.98193   0.00000  Uiso   1.00
C1444  C     0.47582   0.48347   0.52389   0.00000  Uiso   1.00
C1445  C     0.43691   0.50123   0.54492   0.00000  Uiso   1.00
C1446  C     0.41570   0.52147   0.52496   0.00000  Uiso   1.00
F1447  F     0.59250   0.40293   0.51996   0.00000  Uiso   1.00
F1448  F     0.56403   0.40029   0.96043   0.00000  Uiso   1.00
F1449  F     0.52713   0.49731   0.90222   0.00000  Uiso   1.00
H1450  H     0.35017   0.52656   0.71485   0.00000  Uiso   1.00
H1451  H     0.50634   0.34264   0.67459   0.00000  Uiso   1.00
H1452  H     0.53911   0.63277   0.66116   0.00000  Uiso   1.00
H1453  H     0.60543   0.34889   0.64038   0.00000  Uiso   1.00
H1454  H     0.56629   0.35291   0.61417   0.00000  Uiso   1.00
H1455  H     0.57282   0.39201   0.65442   0.00000  Uiso   1.00
H1456  H     0.40287   0.35832   0.78185   0.00000  Uiso   1.00
H1457  H     0.42263   0.38194   0.82411   0.00000  Uiso   1.00
H1458  H     0.38679   0.65316   0.85970   0.00000  Uiso   1.00
H1459  H     0.34884   0.34609   0.84608   0.00000  Uiso   1.00
H1460  H     0.36649   0.63138   0.81772   0.00000  Uiso   1.00
H1461  H     0.65128   0.47373   0.78544   0.00000  Uiso   1.00
H1462  H     0.42217   0.62817   0.96015   0.00000  Uiso   1.00
H1463  H     0.43092   0.61682   0.50576   0.00000  Uiso   1.00
H1464  H     0.35775   0.63543   0.54328   0.00000  Uiso   1.00
H1465  H     0.38953   0.34437   0.51650   0.00000  Uiso   1.00
H1466  H     0.34784   0.64543   0.99794   0.00000  Uiso   1.00
H1467  H     0.34611   0.53526   0.93071   0.00000  Uiso   1.00
H1468  H     0.37570   0.50926   0.88381   0.00000  Uiso   1.00
H1469  H     0.36512   0.56605   0.84882   0.00000  Uiso   1.00
H1470  H     0.64761   0.54052   0.87626   0.00000  Uiso   1.00
H1471  H     0.33498   0.59121   0.89564   0.00000  Uiso   1.00
H1472  H     0.48269   0.50786   0.59965   0.00000  Uiso   1.00
H1473  H     0.42507   0.43595   0.58762   0.00000  Uiso   1.00
H1474  H     0.38182   0.44222   0.56719   0.00000  Uiso   1.00
H1475  H     0.34094   0.47381   0.63372   0.00000  Uiso   1.00
H1476  H     0.35295   0.42177   0.63494   0.00000  Uiso   1.00
H1477  H     0.38417   0.46632   0.65390   0.00000  Uiso   1.00
H1478  H     0.44550   0.41393   0.93843   0.00000  Uiso   1.00
H1479  H     0.47505   0.37368   0.94527   0.00000  Uiso   1.00
H1480  H     0.44743   0.35426   0.88637   0.00000  Uiso   1.00
H1481  H     0.47628   0.40112   0.86547   0.00000  Uiso   1.00
H1482  H     0.50593   0.36113   0.87204   0.00000  Uiso   1.00
H1483  H     0.57935   0.43022   0.59424   0.00000  Uiso   1.00
H1484  H     0.33653   0.48762   0.56064   0.00000  Uiso   1.00
H1485  H     0.34299   0.50304   0.51205   0.00000  Uiso   1.00
H1486  H     0.64066   0.56727   0.54469   0.00000  Uiso   1.00
H1487  H     0.60639   0.51973   0.55668   0.00000  Uiso   1.00
H1488  H     0.63215   0.54922   0.59257   0.00000  Uiso   1.00
O1489  O     0.50000   0.50000   0.75000   0.00000  Uiso   1.00
O1490  O     0.49027   0.45726   0.66625   0.00000  Uiso   1.00
O1491  O     0.46020   0.53979   0.83749   0.00000  Uiso   1.00
O1492  O     0.54421   0.50826   0.65877   0.00000  Uiso   1.00
O1493  O     0.50532   0.49468   0.83749   0.00000  Uiso   1.00
O1494  O     0.37958   0.54072   0.54702   0.00000  Uiso   1.00
O1495  O     0.54734   0.34034   0.71007   0.00000  Uiso   1.00
O1496  O     0.44985   0.66184   0.79359   0.00000  Uiso   1.00
O1497  O     0.38492   0.57566   0.98457   0.00000  Uiso   1.00
O1498  O     0.40640   0.56587   0.90317   0.00000  Uiso   1.00
O1499  O     0.41718   0.49759   0.58478   0.00000  Uiso   1.00
O1500  O     0.51182   0.41434   0.77820   0.00000  Uiso   1.00
O1501  O     0.51284   0.42737   0.92400   0.00000  Uiso   1.00
O1502  O     0.47914   0.59469   0.76767   0.00000  Uiso   1.00
O1503  O     0.40785   0.46584   0.73607   0.00000  Uiso   1.00
O1504  O     0.60119   0.52512   0.71805   0.00000  Uiso   1.00
O1505  O     0.40323   0.52293   0.77820   0.00000  Uiso   1.00
O1506  O     0.58773   0.48610   0.76767   0.00000  Uiso   1.00
O1507  O     0.47133   0.40236   0.73607   0.00000  Uiso   1.00
O1508  O     0.53771   0.58860   0.71805   0.00000  Uiso   1.00
Zn1509 Zn    0.52577   0.47423   0.78277   0.00000  Uiso   1.00
Zn1510 Zn    0.46792   0.45711   0.72257   0.00000  Uiso   1.00
Zn1511 Zn    0.54500   0.52997   0.71188   0.00000  Uiso   1.00
Zn1512 Zn    0.46131   0.53868   0.78277   0.00000  Uiso   1.00
C1513  C     0.71908   0.49317   0.75889   0.00000  Uiso   1.00
C1514  C     0.84600   0.44537   0.96188   0.00000  Uiso   1.00
C1515  C     0.87095   0.42940   0.98115   0.00000  Uiso   1.00
C1516  C     0.94773   0.50687   0.74121   0.00000  Uiso   1.00
C1517  C     0.86850   0.44299   0.52102   0.00000  Uiso   1.00
C1518  C     0.83723   0.47016   0.54289   0.00000  Uiso   1.00
C1519  C     0.89589   0.42915   0.53985   0.00000  Uiso   1.00
C1520  C     0.89233   0.44193   0.57982   0.00000  Uiso   1.00
C1521  C     0.83641   0.48453   0.58256   0.00000  Uiso   1.00
C1522  C     0.99372   0.50948   0.73765   0.00000  Uiso   1.00
C1523  C     0.67370   0.49084   0.76234   0.00000  Uiso   1.00
C1524  C     0.76154   0.54614   0.92224   0.00000  Uiso   1.00
C1525  C     0.84599   0.65546   0.73802   0.00000  Uiso   1.00
C1526  C     0.81651   0.34569   0.76328   0.00000  Uiso   1.00
C1527  C     0.82248   0.38965   0.75897   0.00000  Uiso   1.00
C1528  C     0.84325   0.61103   0.74141   0.00000  Uiso   1.00
C1529  C     0.85467   0.47864   0.64388   0.00000  Uiso   1.00
C1530  C     0.81175   0.52095   0.85656   0.00000  Uiso   1.00
C1531  C     0.79788   0.52555   0.90061   0.00000  Uiso   1.00
C1532  C     0.86255   0.46943   0.60111   0.00000  Uiso   1.00
C1533  C     0.74901   0.54936   0.96387   0.00000  Uiso   1.00
C1534  C     0.67503   0.51468   0.54352   0.00000  Uiso   1.00
C1535  C     0.81965   0.50685   0.92123   0.00000  Uiso   1.00
C1536  C     0.96949   0.53930   0.56048   0.00000  Uiso   1.00
C1537  C     0.87178   0.66630   0.67281   0.00000  Uiso   1.00
C1538  C     0.90629   0.35830   0.64361   0.00000  Uiso   1.00
C1539  C     0.74743   0.35204   0.80709   0.00000  Uiso   1.00
C1540  C     0.71007   0.66076   0.83439   0.00000  Uiso   1.00
C1541  C     0.73954   0.61626   0.98941   0.00000  Uiso   1.00
C1542  C     0.70653   0.64551   0.51330   0.00000  Uiso   1.00
C1543  C     0.70140   0.54011   0.90067   0.00000  Uiso   1.00
C1544  C     0.67745   0.56083   0.87897   0.00000  Uiso   1.00
C1545  C     0.73265   0.45581   0.58972   0.00000  Uiso   1.00
C1546  C     0.80148   0.50180   0.96192   0.00000  Uiso   1.00
C1547  C     0.70066   0.45438   0.63066   0.00000  Uiso   1.00
C1548  C     0.80898   0.39828   0.92633   0.00000  Uiso   1.00
C1549  C     0.80973   0.37740   0.88491   0.00000  Uiso   1.00
C1550  C     0.76627   0.52446   0.98380   0.00000  Uiso   1.00
C1551  C     0.81952   0.47733   0.98193   0.00000  Uiso   1.00
C1552  C     0.80915   0.48347   0.52389   0.00000  Uiso   1.00
C1553  C     0.77024   0.50123   0.54492   0.00000  Uiso   1.00
C1554  C     0.74904   0.52147   0.52496   0.00000  Uiso   1.00
F1555  F     0.92584   0.40293   0.51996   0.00000  Uiso   1.00
F1556  F     0.89736   0.40029   0.96043   0.00000  Uiso   1.00
F1557  F     0.86046   0.49731   0.90222   0.00000  Uiso   1.00
H1558  H     0.68350   0.52656   0.71485   0.00000  Uiso   1.00
H1559  H     0.83967   0.34264   0.67459   0.00000  Uiso   1.00
H1560  H     0.87245   0.63277   0.66116   0.00000  Uiso   1.00
H1561  H     0.93876   0.34889   0.64038   0.00000  Uiso   1.00
H1562  H     0.89962   0.35291   0.61417   0.00000  Uiso   1.00
H1563  H     0.90616   0.39201   0.65442   0.00000  Uiso   1.00
H1564  H     0.73620   0.35832   0.78185   0.00000  Uiso   1.00
H1565  H     0.75597   0.38194   0.82411   0.00000  Uiso   1.00
H1566  H     0.72012   0.65316   0.85970   0.00000  Uiso   1.00
H1567  H     0.68217   0.34609   0.84608   0.00000  Uiso   1.00
H1568  H     0.69982   0.63138   0.81772   0.00000  Uiso   1.00
H1569  H     0.98462   0.47373   0.78544   0.00000  Uiso   1.00
H1570  H     0.75551   0.62817   0.96015   0.00000  Uiso   1.00
H1571  H     0.76425   0.61682   0.50576   0.00000  Uiso   1.00
H1572  H     0.69108   0.63543   0.54328   0.00000  Uiso   1.00
H1573  H     0.72286   0.34437   0.51650   0.00000  Uiso   1.00
H1574  H     0.68118   0.64543   0.99794   0.00000  Uiso   1.00
H1575  H     0.67945   0.53526   0.93071   0.00000  Uiso   1.00
H1576  H     0.70903   0.50926   0.88381   0.00000  Uiso   1.00
H1577  H     0.69845   0.56605   0.84882   0.00000  Uiso   1.00
H1578  H     0.98094   0.54052   0.87626   0.00000  Uiso   1.00
H1579  H     0.66831   0.59121   0.89564   0.00000  Uiso   1.00
H1580  H     0.81602   0.50786   0.59965   0.00000  Uiso   1.00
H1581  H     0.75840   0.43595   0.58762   0.00000  Uiso   1.00
H1582  H     0.71516   0.44222   0.56719   0.00000  Uiso   1.00
H1583  H     0.67427   0.47381   0.63372   0.00000  Uiso   1.00
H1584  H     0.68629   0.42177   0.63494   0.00000  Uiso   1.00
H1585  H     0.71750   0.46632   0.65390   0.00000  Uiso   1.00
H1586  H     0.77883   0.41393   0.93843   0.00000  Uiso   1.00
H1587  H     0.80839   0.37368   0.94527   0.00000  Uiso   1.00
H1588  H     0.78076   0.35426   0.88637   0.00000  Uiso   1.00
H1589  H     0.80961   0.40112   0.86547   0.00000  Uiso   1.00
H1590  H     0.83926   0.36113   0.87204   0.00000  Uiso   1.00
H1591  H     0.91268   0.43022   0.59424   0.00000  Uiso   1.00
H1592  H     0.66986   0.48762   0.56064   0.00000  Uiso   1.00
H1593  H     0.67633   0.50304   0.51205   0.00000  Uiso   1.00
H1594  H     0.97399   0.56727   0.54469   0.00000  Uiso   1.00
H1595  H     0.93972   0.51973   0.55668   0.00000  Uiso   1.00
H1596  H     0.96548   0.54922   0.59257   0.00000  Uiso   1.00
O1597  O     0.83333   0.50000   0.75000   0.00000  Uiso   1.00
O1598  O     0.82360   0.45726   0.66625   0.00000  Uiso   1.00
O1599  O     0.79354   0.53979   0.83749   0.00000  Uiso   1.00
O1600  O     0.87755   0.50826   0.65877   0.00000  Uiso   1.00
O1601  O     0.83865   0.49468   0.83749   0.00000  Uiso   1.00
O1602  O     0.71292   0.54072   0.54702   0.00000  Uiso   1.00
O1603  O     0.88067   0.34034   0.71007   0.00000  Uiso   1.00
O1604  O     0.78319   0.66184   0.79359   0.00000  Uiso   1.00
O1605  O     0.71826   0.57566   0.98457   0.00000  Uiso   1.00
O1606  O     0.73973   0.56587   0.90317   0.00000  Uiso   1.00
O1607  O     0.75051   0.49759   0.58478   0.00000  Uiso   1.00
O1608  O     0.84515   0.41434   0.77820   0.00000  Uiso   1.00
O1609  O     0.84617   0.42737   0.92400   0.00000  Uiso   1.00
O1610  O     0.81247   0.59469   0.76767   0.00000  Uiso   1.00
O1611  O     0.74119   0.46584   0.73607   0.00000  Uiso   1.00
O1612  O     0.93452   0.52512   0.71805   0.00000  Uiso   1.00
O1613  O     0.73656   0.52293   0.77820   0.00000  Uiso   1.00
O1614  O     0.92106   0.48610   0.76767   0.00000  Uiso   1.00
O1615  O     0.80467   0.40236   0.73607   0.00000  Uiso   1.00
O1616  O     0.87104   0.58860   0.71805   0.00000  Uiso   1.00
Zn1617 Zn    0.85910   0.47423   0.78277   0.00000  Uiso   1.00
Zn1618 Zn    0.80125   0.45711   0.72257   0.00000  Uiso   1.00
Zn1619 Zn    0.87833   0.52997   0.71188   0.00000  Uiso   1.00
Zn1620 Zn    0.79465   0.53868   0.78277   0.00000  Uiso   1.00
C1621  C     0.05242   0.82650   0.75889   0.00000  Uiso   1.00
C1622  C     0.17933   0.77871   0.96188   0.00000  Uiso   1.00
C1623  C     0.20428   0.76274   0.98115   0.00000  Uiso   1.00
C1624  C     0.28107   0.84020   0.74121   0.00000  Uiso   1.00
C1625  C     0.20183   0.77633   0.52102   0.00000  Uiso   1.00
C1626  C     0.17057   0.80349   0.54289   0.00000  Uiso   1.00
C1627  C     0.22922   0.76248   0.53985   0.00000  Uiso   1.00
C1628  C     0.22567   0.77527   0.57982   0.00000  Uiso   1.00
C1629  C     0.16974   0.81786   0.58256   0.00000  Uiso   1.00
C1630  C     0.32706   0.84281   0.73765   0.00000  Uiso   1.00
C1631  C     0.00704   0.82418   0.76234   0.00000  Uiso   1.00
C1632  C     0.09487   0.87948   0.92224   0.00000  Uiso   1.00
C1633  C     0.17932   0.98879   0.73802   0.00000  Uiso   1.00
C1634  C     0.14984   0.67902   0.76328   0.00000  Uiso   1.00
C1635  C     0.15581   0.72298   0.75897   0.00000  Uiso   1.00
C1636  C     0.17659   0.94436   0.74141   0.00000  Uiso   1.00
C1637  C     0.18800   0.81197   0.64388   0.00000  Uiso   1.00
C1638  C     0.14508   0.85428   0.85656   0.00000  Uiso   1.00
C1639  C     0.13121   0.85888   0.90061   0.00000  Uiso   1.00
C1640  C     0.19588   0.80276   0.60111   0.00000  Uiso   1.00
C1641  C     0.08234   0.88269   0.96387   0.00000  Uiso   1.00
C1642  C     0.00836   0.84802   0.54352   0.00000  Uiso   1.00
C1643  C     0.15299   0.84018   0.92123   0.00000  Uiso   1.00
C1644  C     0.30282   0.87264   0.56048   0.00000  Uiso   1.00
C1645  C     0.20512   0.99963   0.67281   0.00000  Uiso   1.00
C1646  C     0.23962   0.69164   0.64361   0.00000  Uiso   1.00
C1647  C     0.08076   0.68538   0.80709   0.00000  Uiso   1.00
C1648  C     0.04340   0.99409   0.83439   0.00000  Uiso   1.00
C1649  C     0.07287   0.94959   0.98941   0.00000  Uiso   1.00
C1650  C     0.03986   0.97884   0.51330   0.00000  Uiso   1.00
C1651  C     0.03473   0.87344   0.90067   0.00000  Uiso   1.00
C1652  C     0.01079   0.89416   0.87897   0.00000  Uiso   1.00
C1653  C     0.06598   0.78914   0.58972   0.00000  Uiso   1.00
C1654  C     0.13481   0.83513   0.96192   0.00000  Uiso   1.00
C1655  C     0.03400   0.78771   0.63066   0.00000  Uiso   1.00
C1656  C     0.14231   0.73162   0.92633   0.00000  Uiso   1.00
C1657  C     0.14306   0.71073   0.88491   0.00000  Uiso   1.00
C1658  C     0.09961   0.85779   0.98380   0.00000  Uiso   1.00
C1659  C     0.15286   0.81067   0.98193   0.00000  Uiso   1.00
C1660  C     0.14248   0.81680   0.52389   0.00000  Uiso   1.00
C1661  C     0.10357   0.83457   0.54492   0.00000  Uiso   1.00
C1662  C     0.08237   0.85480   0.52496   0.00000  Uiso   1.00
F1663  F     0.25917   0.73627   0.51996   0.00000  Uiso   1.00
F1664  F     0.23070   0.73362   0.96043   0.00000  Uiso   1.00
F1665  F     0.19380   0.83065   0.90222   0.00000  Uiso   1.00
H1666  H     0.01684   0.85989   0.71485   0.00000  Uiso   1.00
H1667  H     0.17300   0.67597   0.67459   0.00000  Uiso   1.00
H1668  H     0.20578   0.96610   0.66116   0.00000  Uiso   1.00
H1669  H     0.27209   0.68222   0.64038   0.00000  Uiso   1.00
H1670  H     0.23295   0.68625   0.61417   0.00000  Uiso   1.00
H1671  H     0.23949   0.72535   0.65442   0.00000  Uiso   1.00
H1672  H     0.06954   0.69165   0.78185   0.00000  Uiso   1.00
H1673  H     0.08930   0.71527   0.82411   0.00000  Uiso   1.00
H1674  H     0.05346   0.98649   0.85970   0.00000  Uiso   1.00
H1675  H     0.01551   0.67942   0.84608   0.00000  Uiso   1.00
H1676  H     0.03315   0.96471   0.81772   0.00000  Uiso   1.00
H1677  H     0.31795   0.80706   0.78544   0.00000  Uiso   1.00
H1678  H     0.08884   0.96150   0.96015   0.00000  Uiso   1.00
H1679  H     0.09758   0.95015   0.50576   0.00000  Uiso   1.00
H1680  H     0.02442   0.96876   0.54328   0.00000  Uiso   1.00
H1681  H     0.05619   0.67770   0.51650   0.00000  Uiso   1.00
H1682  H     0.01451   0.97876   0.99794   0.00000  Uiso   1.00
H1683  H     0.01278   0.86860   0.93071   0.00000  Uiso   1.00
H1684  H     0.04236   0.84259   0.88381   0.00000  Uiso   1.00
H1685  H     0.03178   0.89939   0.84882   0.00000  Uiso   1.00
H1686  H     0.31428   0.87385   0.87626   0.00000  Uiso   1.00
H1687  H     0.00164   0.92454   0.89564   0.00000  Uiso   1.00
H1688  H     0.14936   0.84119   0.59965   0.00000  Uiso   1.00
H1689  H     0.09174   0.76929   0.58762   0.00000  Uiso   1.00
H1690  H     0.04849   0.77555   0.56719   0.00000  Uiso   1.00
H1691  H     0.00761   0.80714   0.63372   0.00000  Uiso   1.00
H1692  H     0.01962   0.75511   0.63494   0.00000  Uiso   1.00
H1693  H     0.05083   0.79965   0.65390   0.00000  Uiso   1.00
H1694  H     0.11217   0.74726   0.93843   0.00000  Uiso   1.00
H1695  H     0.14172   0.70701   0.94527   0.00000  Uiso   1.00
H1696  H     0.11410   0.68759   0.88637   0.00000  Uiso   1.00
H1697  H     0.14294   0.73446   0.86547   0.00000  Uiso   1.00
H1698  H     0.17259   0.69446   0.87204   0.00000  Uiso   1.00
H1699  H     0.24601   0.76356   0.59424   0.00000  Uiso   1.00
H1700  H     0.00319   0.82096   0.56064   0.00000  Uiso   1.00
H1701  H     0.00966   0.83637   0.51205   0.00000  Uiso   1.00
H1702  H     0.30732   0.90061   0.54469   0.00000  Uiso   1.00
H1703  H     0.27305   0.85306   0.55668   0.00000  Uiso   1.00
H1704  H     0.29882   0.88255   0.59257   0.00000  Uiso   1.00
O1705  O     0.16667   0.83333   0.75000   0.00000  Uiso   1.00
O1706  O     0.15693   0.79060   0.66625   0.00000  Uiso   1.00
O1707  O     0.12687   0.87313   0.83749   0.00000  Uiso   1.00
O1708  O     0.21088   0.84159   0.65877   0.00000  Uiso   1.00
O1709  O     0.17198   0.82802   0.83749   0.00000  Uiso   1.00
O1710  O     0.04625   0.87405   0.54702   0.00000  Uiso   1.00
O1711  O     0.21401   0.67367   0.71007   0.00000  Uiso   1.00
O1712  O     0.11652   0.99517   0.79359   0.00000  Uiso   1.00
O1713  O     0.05159   0.90899   0.98457   0.00000  Uiso   1.00
O1714  O     0.07307   0.89920   0.90317   0.00000  Uiso   1.00
O1715  O     0.08384   0.83092   0.58478   0.00000  Uiso   1.00
O1716  O     0.17849   0.74768   0.77820   0.00000  Uiso   1.00
O1717  O     0.17951   0.76070   0.92400   0.00000  Uiso   1.00
O1718  O     0.14581   0.92803   0.76767   0.00000  Uiso   1.00
O1719  O     0.07452   0.79917   0.73607   0.00000  Uiso   1.00
O1720  O     0.26785   0.85845   0.71805   0.00000  Uiso   1.00
O1721  O     0.06990   0.85627   0.77820   0.00000  Uiso   1.00
O1722  O     0.25440   0.81944   0.76767   0.00000  Uiso   1.00
O1723  O     0.13800   0.73570   0.73607   0.00000  Uiso   1.00
O1724  O     0.20437   0.92193   0.71805   0.00000  Uiso   1.00
Zn1725 Zn    0.19244   0.80756   0.78277   0.00000  Uiso   1.00
Zn1726 Zn    0.13459   0.79044   0.72257   0.00000  Uiso   1.00
Zn1727 Zn    0.21166   0.86331   0.71188   0.00000  Uiso   1.00
Zn1728 Zn    0.12798   0.87202   0.78277   0.00000  Uiso   1.00
C1729  C     0.38575   0.82650   0.75889   0.00000  Uiso   1.00
C1730  C     0.51266   0.77871   0.96188   0.00000  Uiso   1.00
C1731  C     0.53762   0.76274   0.98115   0.00000  Uiso   1.00
C1732  C     0.61440   0.84020   0.74121   0.00000  Uiso   1.00
C1733  C     0.53516   0.77633   0.52102   0.00000  Uiso   1.00
C1734  C     0.50390   0.80349   0.54289   0.00000  Uiso   1.00
C1735  C     0.56255   0.76248   0.53985   0.00000  Uiso   1.00
C1736  C     0.55900   0.77527   0.57982   0.00000  Uiso   1.00
C1737  C     0.50307   0.81786   0.58256   0.00000  Uiso   1.00
C1738  C     0.66039   0.84281   0.73765   0.00000  Uiso   1.00
C1739  C     0.34037   0.82418   0.76234   0.00000  Uiso   1.00
C1740  C     0.42820   0.87948   0.92224   0.00000  Uiso   1.00
C1741  C     0.51266   0.98879   0.73802   0.00000  Uiso   1.00
C1742  C     0.48318   0.67902   0.76328   0.00000  Uiso   1.00
C1743  C     0.48914   0.72298   0.75897   0.00000  Uiso   1.00
C1744  C     0.50992   0.94436   0.74141   0.00000  Uiso   1.00
C1745  C     0.52134   0.81197   0.64388   0.00000  Uiso   1.00
C1746  C     0.47842   0.85428   0.85656   0.00000  Uiso   1.00
C1747  C     0.46454   0.85888   0.90061   0.00000  Uiso   1.00
C1748  C     0.52921   0.80276   0.60111   0.00000  Uiso   1.00
C1749  C     0.41568   0.88269   0.96387   0.00000  Uiso   1.00
C1750  C     0.34169   0.84802   0.54352   0.00000  Uiso   1.00
C1751  C     0.48632   0.84018   0.92123   0.00000  Uiso   1.00
C1752  C     0.63616   0.87264   0.56048   0.00000  Uiso   1.00
C1753  C     0.53845   0.99963   0.67281   0.00000  Uiso   1.00
C1754  C     0.57296   0.69164   0.64361   0.00000  Uiso   1.00
C1755  C     0.41409   0.68538   0.80709   0.00000  Uiso   1.00
C1756  C     0.37673   0.99409   0.83439   0.00000  Uiso   1.00
C1757  C     0.40621   0.94959   0.98941   0.00000  Uiso   1.00
C1758  C     0.37319   0.97884   0.51330   0.00000  Uiso   1.00
C1759  C     0.36807   0.87344   0.90067   0.00000  Uiso   1.00
C1760  C     0.34412   0.89416   0.87897   0.00000  Uiso   1.00
C1761  C     0.39932   0.78914   0.58972   0.00000  Uiso   1.00
C1762  C     0.46815   0.83513   0.96192   0.00000  Uiso   1.00
C1763  C     0.36733   0.78771   0.63066   0.00000  Uiso   1.00
C1764  C     0.47564   0.73162   0.92633   0.00000  Uiso   1.00
C1765  C     0.47640   0.71073   0.88491   0.00000  Uiso   1.00
C1766  C     0.43294   0.85779   0.98380   0.00000  Uiso   1.00
C1767  C     0.48619   0.81067   0.98193   0.00000  Uiso   1.00
C1768  C     0.47582   0.81680   0.52389   0.00000  Uiso   1.00
C1769  C     0.43691   0.83457   0.54492   0.00000  Uiso   1.00
C1770  C     0.41570   0.85480   0.52496   0.00000  Uiso   1.00
F1771  F     0.59250   0.73627   0.51996   0.00000  Uiso   1.00
F1772  F     0.56403   0.73362   0.96043   0.00000  Uiso   1.00
F1773  F     0.52713   0.83065   0.90222   0.00000  Uiso   1.00
H1774  H     0.35017   0.85989   0.71485   0.00000  Uiso   1.00
H1775  H     0.50634   0.67597   0.67459   0.00000  Uiso   1.00
H1776  H     0.53911   0.96610   0.66116   0.00000  Uiso   1.00
H1777  H     0.60543   0.68222   0.64038   0.00000  Uiso   1.00
H1778  H     0.56629   0.68625   0.61417   0.00000  Uiso   1.00
H1779  H     0.57282   0.72535   0.65442   0.00000  Uiso   1.00
H1780  H     0.40287   0.69165   0.78185   0.00000  Uiso   1.00
H1781  H     0.42263   0.71527   0.82411   0.00000  Uiso   1.00
H1782  H     0.38679   0.98649   0.85970   0.00000  Uiso   1.00
H1783  H     0.34884   0.67942   0.84608   0.00000  Uiso   1.00
H1784  H     0.36649   0.96471   0.81772   0.00000  Uiso   1.00
H1785  H     0.65128   0.80706   0.78544   0.00000  Uiso   1.00
H1786  H     0.42217   0.96150   0.96015   0.00000  Uiso   1.00
H1787  H     0.43092   0.95015   0.50576   0.00000  Uiso   1.00
H1788  H     0.35775   0.96876   0.54328   0.00000  Uiso   1.00
H1789  H     0.38953   0.67770   0.51650   0.00000  Uiso   1.00
H1790  H     0.34784   0.97876   0.99794   0.00000  Uiso   1.00
H1791  H     0.34611   0.86860   0.93071   0.00000  Uiso   1.00
H1792  H     0.37570   0.84259   0.88381   0.00000  Uiso   1.00
H1793  H     0.36512   0.89939   0.84882   0.00000  Uiso   1.00
H1794  H     0.64761   0.87385   0.87626   0.00000  Uiso   1.00
H1795  H     0.33498   0.92454   0.89564   0.00000  Uiso   1.00
H1796  H     0.48269   0.84119   0.59965   0.00000  Uiso   1.00
H1797  H     0.42507   0.76929   0.58762   0.00000  Uiso   1.00
H1798  H     0.38182   0.77555   0.56719   0.00000  Uiso   1.00
H1799  H     0.34094   0.80714   0.63372   0.00000  Uiso   1.00
H1800  H     0.35295   0.75511   0.63494   0.00000  Uiso   1.00
H1801  H     0.38417   0.79965   0.65390   0.00000  Uiso   1.00
H1802  H     0.44550   0.74726   0.93843   0.00000  Uiso   1.00
H1803  H     0.47505   0.70701   0.94527   0.00000  Uiso   1.00
H1804  H     0.44743   0.68759   0.88637   0.00000  Uiso   1.00
H1805  H     0.47628   0.73446   0.86547   0.00000  Uiso   1.00
H1806  H     0.50593   0.69446   0.87204   0.00000  Uiso   1.00
H1807  H     0.57935   0.76356   0.59424   0.00000  Uiso   1.00
H1808  H     0.33653   0.82096   0.56064   0.00000  Uiso   1.00
H1809  H     0.34299   0.83637   0.51205   0.00000  Uiso   1.00
H1810  H     0.64066   0.90061   0.54469   0.00000  Uiso   1.00
H1811  H     0.60639   0.85306   0.55668   0.00000  Uiso   1.00
H1812  H     0.63215   0.88255   0.59257   0.00000  Uiso   1.00
O1813  O     0.50000   0.83333   0.75000   0.00000  Uiso   1.00
O1814  O     0.49027   0.79060   0.66625   0.00000  Uiso   1.00
O1815  O     0.46020   0.87313   0.83749   0.00000  Uiso   1.00
O1816  O     0.54421   0.84159   0.65877   0.00000  Uiso   1.00
O1817  O     0.50532   0.82802   0.83749   0.00000  Uiso   1.00
O1818  O     0.37958   0.87405   0.54702   0.00000  Uiso   1.00
O1819  O     0.54734   0.67367   0.71007   0.00000  Uiso   1.00
O1820  O     0.44985   0.99517   0.79359   0.00000  Uiso   1.00
O1821  O     0.38492   0.90899   0.98457   0.00000  Uiso   1.00
O1822  O     0.40640   0.89920   0.90317   0.00000  Uiso   1.00
O1823  O     0.41718   0.83092   0.58478   0.00000  Uiso   1.00
O1824  O     0.51182   0.74768   0.77820   0.00000  Uiso   1.00
O1825  O     0.51284   0.76070   0.92400   0.00000  Uiso   1.00
O1826  O     0.47914   0.92803   0.76767   0.00000  Uiso   1.00
O1827  O     0.40785   0.79917   0.73607   0.00000  Uiso   1.00
O1828  O     0.60119   0.85845   0.71805   0.00000  Uiso   1.00
O1829  O     0.40323   0.85627   0.77820   0.00000  Uiso   1.00
O1830  O     0.58773   0.81944   0.76767   0.00000  Uiso   1.00
O1831  O     0.47133   0.73570   0.73607   0.00000  Uiso   1.00
O1832  O     0.53771   0.92193   0.71805   0.00000  Uiso   1.00
Zn1833 Zn    0.52577   0.80756   0.78277   0.00000  Uiso   1.00
Zn1834 Zn    0.46792   0.79044   0.72257   0.00000  Uiso   1.00
Zn1835 Zn    0.54500   0.86331   0.71188   0.00000  Uiso   1.00
Zn1836 Zn    0.46131   0.87202   0.78277   0.00000  Uiso   1.00
C1837  C     0.71908   0.82650   0.75889   0.00000  Uiso   1.00
C1838  C     0.84600   0.77871   0.96188   0.00000  Uiso   1.00
C1839  C     0.87095   0.76274   0.98115   0.00000  Uiso   1.00
C1840  C     0.94773   0.84020   0.74121   0.00000  Uiso   1.00
C1841  C     0.86850   0.77633   0.52102   0.00000  Uiso   1.00
C1842  C     0.83723   0.80349   0.54289   0.00000  Uiso   1.00
C1843  C     0.89589   0.76248   0.53985   0.00000  Uiso   1.00
C1844  C     0.89233   0.77527   0.57982   0.00000  Uiso   1.00
C1845  C     0.83641   0.81786   0.58256   0.00000  Uiso   1.00
C1846  C     0.99372   0.84281   0.73765   0.00000  Uiso   1.00
C1847  C     0.67370   0.82418   0.76234   0.00000  Uiso   1.00
C1848  C     0.76154   0.87948   0.92224   0.00000  Uiso   1.00
C1849  C     0.84599   0.98879   0.73802   0.00000  Uiso   1.00
C1850  C     0.81651   0.67902   0.76328   0.00000  Uiso   1.00
C1851  C     0.82248   0.72298   0.75897   0.00000  Uiso   1.00
C1852  C     0.84325   0.94436   0.74141   0.00000  Uiso   1.00
C1853  C     0.85467   0.81197   0.64388   0.00000  Uiso   1.00
C1854  C     0.81175   0.85428   0.85656   0.00000  Uiso   1.00
C1855  C     0.79788   0.85888   0.90061   0.00000  Uiso   1.00
C1856  C     0.86255   0.80276   0.60111   0.00000  Uiso   1.00
C1857  C     0.74901   0.88269   0.96387   0.00000  Uiso   1.00
C1858  C     0.67503   0.84802   0.54352   0.00000  Uiso   1.00
C1859  C     0.81965   0.84018   0.92123   0.00000  Uiso   1.00
C1860  C     0.96949   0.87264   0.56048   0.00000  Uiso   1.00
C1861  C     0.87178   0.99963   0.67281   0.00000  Uiso   1.00
C1862  C     0.90629   0.69164   0.64361   0.00000  Uiso   1.00
C1863  C     0.74743   0.68538   0.80709   0.00000  Uiso   1.00
C1864  C     0.71007   0.99409   0.83439   0.00000  Uiso   1.00
C1865  C     0.73954   0.94959   0.98941   0.00000  Uiso   1.00
C1866  C     0.70653   0.97884   0.51330   0.00000  Uiso   1.00
C1867  C     0.70140   0.87344   0.90067   0.00000  Uiso   1.00
C1868  C     0.67745   0.89416   0.87897   0.00000  Uiso   1.00
C1869  C     0.73265   0.78914   0.58972   0.00000  Uiso   1.00
C1870  C     0.80148   0.83513   0.96192   0.00000  Uiso   1.00
C1871  C     0.70066   0.78771   0.63066   0.00000  Uiso   1.00
C1872  C     0.80898   0.73162   0.92633   0.00000  Uiso   1.00
C1873  C     0.80973   0.71073   0.88491   0.00000  Uiso   1.00
C1874  C     0.76627   0.85779   0.98380   0.00000  Uiso   1.00
C1875  C     0.81952   0.81067   0.98193   0.00000  Uiso   1.00
C1876  C     0.80915   0.81680   0.52389   0.00000  Uiso   1.00
C1877  C     0.77024   0.83457   0.54492   0.00000  Uiso   1.00
C1878  C     0.74904   0.85480   0.52496   0.00000  Uiso   1.00
F1879  F     0.92584   0.73627   0.51996   0.00000  Uiso   1.00
F1880  F     0.89736   0.73362   0.96043   0.00000  Uiso   1.00
F1881  F     0.86046   0.83065   0.90222   0.00000  Uiso   1.00
H1882  H     0.68350   0.85989   0.71485   0.00000  Uiso   1.00
H1883  H     0.83967   0.67597   0.67459   0.00000  Uiso   1.00
H1884  H     0.87245   0.96610   0.66116   0.00000  Uiso   1.00
H1885  H     0.93876   0.68222   0.64038   0.00000  Uiso   1.00
H1886  H     0.89962   0.68625   0.61417   0.00000  Uiso   1.00
H1887  H     0.90616   0.72535   0.65442   0.00000  Uiso   1.00
H1888  H     0.73620   0.69165   0.78185   0.00000  Uiso   1.00
H1889  H     0.75597   0.71527   0.82411   0.00000  Uiso   1.00
H1890  H     0.72012   0.98649   0.85970   0.00000  Uiso   1.00
H1891  H     0.68217   0.67942   0.84608   0.00000  Uiso   1.00
H1892  H     0.69982   0.96471   0.81772   0.00000  Uiso   1.00
H1893  H     0.98462   0.80706   0.78544   0.00000  Uiso   1.00
H1894  H     0.75551   0.96150   0.96015   0.00000  Uiso   1.00
H1895  H     0.76425   0.95015   0.50576   0.00000  Uiso   1.00
H1896  H     0.69108   0.96876   0.54328   0.00000  Uiso   1.00
H1897  H     0.72286   0.67770   0.51650   0.00000  Uiso   1.00
H1898  H     0.68118   0.97876   0.99794   0.00000  Uiso   1.00
H1899  H     0.67945   0.86860   0.93071   0.00000  Uiso   1.00
H1900  H     0.70903   0.84259   0.88381   0.00000  Uiso   1.00
H1901  H     0.69845   0.89939   0.84882   0.00000  Uiso   1.00
H1902  H     0.98094   0.87385   0.87626   0.00000  Uiso   1.00
H1903  H     0.66831   0.92454   0.89564   0.00000  Uiso   1.00
H1904  H     0.81602   0.84119   0.59965   0.00000  Uiso   1.00
H1905  H     0.75840   0.76929   0.58762   0.00000  Uiso   1.00
H1906  H     0.71516   0.77555   0.56719   0.00000  Uiso   1.00
H1907  H     0.67427   0.80714   0.63372   0.00000  Uiso   1.00
H1908  H     0.68629   0.75511   0.63494   0.00000  Uiso   1.00
H1909  H     0.71750   0.79965   0.65390   0.00000  Uiso   1.00
H1910  H     0.77883   0.74726   0.93843   0.00000  Uiso   1.00
H1911  H     0.80839   0.70701   0.94527   0.00000  Uiso   1.00
H1912  H     0.78076   0.68759   0.88637   0.00000  Uiso   1.00
H1913  H     0.80961   0.73446   0.86547   0.00000  Uiso   1.00
H1914  H     0.83926   0.69446   0.87204   0.00000  Uiso   1.00
H1915  H     0.91268   0.76356   0.59424   0.00000  Uiso   1.00
H1916  H     0.66986   0.82096   0.56064   0.00000  Uiso   1.00
H1917  H     0.67633   0.83637   0.51205   0.00000  Uiso   1.00
H1918  H     0.97399   0.90061   0.54469   0.00000  Uiso   1.00
H1919  H     0.93972   0.85306   0.55668   0.00000  Uiso   1.00
H1920  H     0.96548   0.88255   0.59257   0.00000  Uiso   1.00
O1921  O     0.83333   0.83333   0.75000   0.00000  Uiso   1.00
O1922  O     0.82360   0.79060   0.66625   0.00000  Uiso   1.00
O1923  O     0.79354   0.87313   0.83749   0.00000  Uiso   1.00
O1924  O     0.87755   0.84159   0.65877   0.00000  Uiso   1.00
O1925  O     0.83865   0.82802   0.83749   0.00000  Uiso   1.00
O1926  O     0.71292   0.87405   0.54702   0.00000  Uiso   1.00
O1927  O     0.88067   0.67367   0.71007   0.00000  Uiso   1.00
O1928  O     0.78319   0.99517   0.79359   0.00000  Uiso   1.00
O1929  O     0.71826   0.90899   0.98457   0.00000  Uiso   1.00
O1930  O     0.73973   0.89920   0.90317   0.00000  Uiso   1.00
O1931  O     0.75051   0.83092   0.58478   0.00000  Uiso   1.00
O1932  O     0.84515   0.74768   0.77820   0.00000  Uiso   1.00
O1933  O     0.84617   0.76070   0.92400   0.00000  Uiso   1.00
O1934  O     0.81247   0.92803   0.76767   0.00000  Uiso   1.00
O1935  O     0.74119   0.79917   0.73607   0.00000  Uiso   1.00
O1936  O     0.93452   0.85845   0.71805   0.00000  Uiso   1.00
O1937  O     0.73656   0.85627   0.77820   0.00000  Uiso   1.00
O1938  O     0.92106   0.81944   0.76767   0.00000  Uiso   1.00
O1939  O     0.80467   0.73570   0.73607   0.00000  Uiso   1.00
O1940  O     0.87104   0.92193   0.71805   0.00000  Uiso   1.00
Zn1941 Zn    0.85910   0.80756   0.78277   0.00000  Uiso   1.00
Zn1942 Zn    0.80125   0.79044   0.72257   0.00000  Uiso   1.00
Zn1943 Zn    0.87833   0.86331   0.71188   0.00000  Uiso   1.00
Zn1944 Zn    0.79465   0.87202   0.78277   0.00000  Uiso   1.00
loop_
_geom_bond_atom_site_label_1
_geom_bond_atom_site_label_2
_geom_bond_distance
_geom_bond_site_symmetry_2
_ccdc_geom_bond_type
C1     C11     1.434   .     S
C1     O99     1.266   .     A
C1     O101    1.266   .     A
C2     C39     1.422   .     A
C2     O97     1.383   .     S
C2     C3      1.395   .     A
C3     F44     1.359   .     S
C3     C977    1.401   .     S
C4     O102    1.277   .     A
C4     O100    1.279   .     A
C4     C10     1.452   .     S
C5     C6      1.422   .     A
C5     C7      1.412   .     A
C5     C975    1.401   1_554 S
C6     C9      1.409   .     A
C6     C40     1.426   .     A
C7     C8      1.393   .     A
C7     F43     1.358   .     S
C8     C20     1.394   .     A
C8     H79     1.083   .     S
C9     C20     1.392   .     A
C9     H68     1.079   .     S
C10    C119    1.333   .     S
C10    H154    1.088   .     S
C11    C226    1.333   1_455 S
C11    H273    1.086   1_455 S
C12    O94     1.383   .     S
C12    C21     1.404   .     A
C12    C19     1.410   .     A
C13    C16     1.460   .     S
C13    C338    1.351   .     S
C13    O415    1.389   .     S
C14    C15     1.444   .     S
C14    C661    1.351   1_545 S
C14    O740    1.400   1_545 S
C15    O96     1.270   .     A
C15    O103    1.269   .     A
C16    O104    1.272   .     A
C16    O98     1.264   .     A
C17    O88     1.277   .     A
C17    C20     1.455   .     S
C17    O86     1.274   .     A
C18    C19     1.485   .     S
C18    O89     1.289   .     A
C18    O87     1.284   .     A
C19    C23     1.402   .     A
C21    C38     1.417   .     A
C21    O93     1.383   .     S
C22    H81     1.115   .     S
C22    O90     1.414   .     S
C22    H80     1.110   .     S
C22    C240    1.521   1_455 S
C23    F45     1.359   .     S
C23    C34     1.415   .     A
C24    H83     1.109   .     S
C24    H82     1.110   .     S
C24    H84     1.111   .     S
C24    C130    1.521   .     S
C25    H48     1.113   .     S
C25    C350    1.521   .     S
C25    H371    1.115   .     S
C25    O415    1.412   .     S
C26    H50     1.111   .     S
C26    H49     1.111   .     S
C26    H51     1.111   .     S
C26    C673    1.521   1_545 S
C27    H52     1.114   .     S
C27    H53     1.112   .     S
C27    C676    1.520   1_545 S
C27    O740    1.414   1_545 S
C28    H56     1.111   .     S
C28    H54     1.110   .     S
C28    C351    1.520   .     S
C28    H379    1.110   .     S
C29    O93     1.413   .     S
C29    H58     1.114   .     S
C29    C1002   1.521   .     S
C29    H1031   1.115   .     S
C30    H60     1.111   .     S
C30    C1001   1.521   1_554 S
C30    H385    1.111   .     S
C30    H1034   1.111   1_554 S
C31    H63     1.114   .     S
C31    C32     1.520   .     S
C31    H64     1.115   .     S
C31    O94     1.413   .     S
C32    H67     1.111   .     S
C32    H65     1.110   .     S
C32    H282    1.111   1_455 S
C33    H69     1.111   .     S
C33    O95     1.416   .     S
C33    H70     1.115   .     S
C33    C35     1.521   .     S
C34    C39     1.425   .     A
C34    C38     1.421   .     A
C35    H71     1.111   .     S
C35    H72     1.111   .     S
C35    H73     1.111   .     S
C36    C37     1.520   .     S
C36    O97     1.412   .     S
C36    H75     1.115   .     S
C36    H74     1.114   .     S
C37    H77     1.111   .     S
C37    H76     1.110   .     S
C37    H78     1.111   .     S
C38    C1014   1.415   .     S
C39    C1012   1.417   .     S
C40    C41     1.424   .     A
C40    C1011   1.417   1_554 S
C41    C42     1.402   .     A
C41    O95     1.386   .     S
C42    O90     1.386   .     S
C42    C1010   1.415   1_554 S
H46    C226    1.088   1_455 S
H47    C673    1.115   1_545 S
H55    C676    1.110   1_545 S
H57    C119    1.086   .     S
H59    C1001   1.115   1_554 S
H61    C678    1.111   1_545 S
H62    C1002   1.111   .     S
H66    C140    1.111   .     S
O85    Zn108   1.926   .     S
O85    Zn105   1.954   .     S
O85    Zn106   1.936   .     S
O85    Zn107   1.933   .     S
O86    Zn106   1.916   .     S
O87    Zn108   1.925   .     S
O88    Zn107   1.918   .     S
O89    Zn105   1.910   .     S
O91    C661    1.389   1_545 S
O91    C673    1.412   1_545 S
O92    C338    1.400   .     S
O92    C351    1.414   .     S
O96    Zn105   1.934   .     S
O98    Zn108   1.939   .     S
O99    Zn106   1.922   .     S
O100   Zn107   1.931   .     S
O101   Zn108   1.927   .     S
O102   Zn105   1.920   .     S
O103   Zn106   1.943   .     S
O104   Zn107   1.936   .     S
C109   C119    1.434   .     S
C109   O207    1.266   .     A
C109   O209    1.266   .     A
C110   C147    1.422   .     A
C110   O205    1.383   .     S
C110   C111    1.395   .     A
C111   F152    1.359   .     S
C111   C1085   1.401   .     S
C112   O210    1.277   .     A
C112   O208    1.279   .     A
C112   C118    1.452   .     S
C113   C114    1.422   .     A
C113   C115    1.412   .     A
C113   C1083   1.401   1_554 S
C114   C117    1.409   .     A
C114   C148    1.426   .     A
C115   C116    1.393   .     A
C115   F151    1.358   .     S
C116   C128    1.394   .     A
C116   H187    1.083   .     S
C117   C128    1.392   .     A
C117   H176    1.079   .     S
C118   C227    1.333   .     S
C118   H262    1.088   .     S
C120   O202    1.383   .     S
C120   C129    1.404   .     A
C120   C127    1.410   .     A
C121   C124    1.460   .     S
C121   C446    1.351   .     S
C121   O523    1.389   .     S
C122   C123    1.444   .     S
C122   C769    1.351   1_545 S
C122   O848    1.400   1_545 S
C123   O204    1.270   .     A
C123   O211    1.269   .     A
C124   O212    1.272   .     A
C124   O206    1.264   .     A
C125   O196    1.277   .     A
C125   C128    1.455   .     S
C125   O194    1.274   .     A
C126   C127    1.485   .     S
C126   O197    1.289   .     A
C126   O195    1.284   .     A
C127   C131    1.402   .     A
C129   C146    1.417   .     A
C129   O201    1.383   .     S
C130   H189    1.115   .     S
C130   O198    1.414   .     S
C130   H188    1.110   .     S
C131   F153    1.359   .     S
C131   C142    1.415   .     A
C132   H191    1.109   .     S
C132   H190    1.110   .     S
C132   H192    1.111   .     S
C132   C238    1.521   .     S
C133   H156    1.113   .     S
C133   C458    1.521   .     S
C133   H479    1.115   .     S
C133   O523    1.412   .     S
C134   H158    1.111   .     S
C134   H157    1.111   .     S
C134   H159    1.111   .     S
C134   C781    1.521   1_545 S
C135   H160    1.114   .     S
C135   H161    1.112   .     S
C135   C784    1.520   1_545 S
C135   O848    1.414   1_545 S
C136   H164    1.111   .     S
C136   H162    1.110   .     S
C136   C459    1.520   .     S
C136   H487    1.110   .     S
C137   O201    1.413   .     S
C137   H166    1.114   .     S
C137   C1110   1.521   .     S
C137   H1139   1.115   .     S
C138   H168    1.111   .     S
C138   C1109   1.521   1_554 S
C138   H493    1.111   .     S
C138   H1142   1.111   1_554 S
C139   H171    1.114   .     S
C139   C140    1.520   .     S
C139   H172    1.115   .     S
C139   O202    1.413   .     S
C140   H175    1.111   .     S
C140   H173    1.110   .     S
C141   H177    1.111   .     S
C141   O203    1.416   .     S
C141   H178    1.115   .     S
C141   C143    1.521   .     S
C142   C147    1.425   .     A
C142   C146    1.421   .     A
C143   H179    1.111   .     S
C143   H180    1.111   .     S
C143   H181    1.111   .     S
C144   C145    1.520   .     S
C144   O205    1.412   .     S
C144   H183    1.115   .     S
C144   H182    1.114   .     S
C145   H185    1.111   .     S
C145   H184    1.110   .     S
C145   H186    1.111   .     S
C146   C1122   1.415   .     S
C147   C1120   1.417   .     S
C148   C149    1.424   .     A
C148   C1119   1.417   1_554 S
C149   C150    1.402   .     A
C149   O203    1.386   .     S
C150   O198    1.386   .     S
C150   C1118   1.415   1_554 S
H155   C781    1.115   1_545 S
H163   C784    1.110   1_545 S
H165   C227    1.086   .     S
H167   C1109   1.115   1_554 S
H169   C786    1.111   1_545 S
H170   C1110   1.111   .     S
H174   C248    1.111   .     S
O193   Zn216   1.926   .     S
O193   Zn213   1.954   .     S
O193   Zn214   1.936   .     S
O193   Zn215   1.933   .     S
O194   Zn214   1.916   .     S
O195   Zn216   1.925   .     S
O196   Zn215   1.918   .     S
O197   Zn213   1.910   .     S
O199   C769    1.389   1_545 S
O199   C781    1.412   1_545 S
O200   C446    1.400   .     S
O200   C459    1.414   .     S
O204   Zn213   1.934   .     S
O206   Zn216   1.939   .     S
O207   Zn214   1.922   .     S
O208   Zn215   1.931   .     S
O209   Zn216   1.927   .     S
O210   Zn213   1.920   .     S
O211   Zn214   1.943   .     S
O212   Zn215   1.936   .     S
C217   C227    1.434   .     S
C217   O315    1.266   .     A
C217   O317    1.266   .     A
C218   C255    1.422   .     A
C218   O313    1.383   .     S
C218   C219    1.395   .     A
C219   F260    1.359   .     S
C219   C1193   1.401   .     S
C220   O318    1.277   .     A
C220   O316    1.279   .     A
C220   C226    1.452   .     S
C221   C222    1.422   .     A
C221   C223    1.412   .     A
C221   C1191   1.401   1_554 S
C222   C225    1.409   .     A
C222   C256    1.426   .     A
C223   C224    1.393   .     A
C223   F259    1.358   .     S
C224   C236    1.394   .     A
C224   H295    1.083   .     S
C225   C236    1.392   .     A
C225   H284    1.079   .     S
C226   C11     1.333   1_655 S
C226   H46     1.088   1_655 S
C228   O310    1.383   .     S
C228   C237    1.404   .     A
C228   C235    1.410   .     A
C229   C232    1.460   .     S
C229   C554    1.351   .     S
C229   O631    1.389   .     S
C230   C231    1.444   .     S
C230   C877    1.351   1_545 S
C230   O956    1.400   1_545 S
C231   O312    1.270   .     A
C231   O319    1.269   .     A
C232   O320    1.272   .     A
C232   O314    1.264   .     A
C233   O304    1.277   .     A
C233   C236    1.455   .     S
C233   O302    1.274   .     A
C234   C235    1.485   .     S
C234   O305    1.289   .     A
C234   O303    1.284   .     A
C235   C239    1.402   .     A
C237   C254    1.417   .     A
C237   O309    1.383   .     S
C238   H297    1.115   .     S
C238   O306    1.414   .     S
C238   H296    1.110   .     S
C239   F261    1.359   .     S
C239   C250    1.415   .     A
C240   H299    1.109   .     S
C240   H298    1.110   .     S
C240   H300    1.111   .     S
C240   C22     1.521   1_655 S
C241   H264    1.113   .     S
C241   C566    1.521   .     S
C241   H587    1.115   .     S
C241   O631    1.412   .     S
C242   H266    1.111   .     S
C242   H265    1.111   .     S
C242   H267    1.111   .     S
C242   C889    1.521   1_545 S
C243   H268    1.114   .     S
C243   H269    1.112   .     S
C243   C892    1.520   1_545 S
C243   O956    1.414   1_545 S
C244   H272    1.111   .     S
C244   H270    1.110   .     S
C244   C567    1.520   .     S
C244   H595    1.110   .     S
C245   O309    1.413   .     S
C245   H274    1.114   .     S
C245   C1218   1.521   .     S
C245   H1247   1.115   .     S
C246   H276    1.111   .     S
C246   C1217   1.521   1_554 S
C246   H601    1.111   .     S
C246   H1250   1.111   1_554 S
C247   H279    1.114   .     S
C247   C248    1.520   .     S
C247   H280    1.115   .     S
C247   O310    1.413   .     S
C248   H283    1.111   .     S
C248   H281    1.110   .     S
C249   H285    1.111   .     S
C249   O311    1.416   .     S
C249   H286    1.115   .     S
C249   C251    1.521   .     S
C250   C255    1.425   .     A
C250   C254    1.421   .     A
C251   H287    1.111   .     S
C251   H288    1.111   .     S
C251   H289    1.111   .     S
C252   C253    1.520   .     S
C252   O313    1.412   .     S
C252   H291    1.115   .     S
C252   H290    1.114   .     S
C253   H293    1.111   .     S
C253   H292    1.110   .     S
C253   H294    1.111   .     S
C254   C1230   1.415   .     S
C255   C1228   1.417   .     S
C256   C257    1.424   .     A
C256   C1227   1.417   1_554 S
C257   C258    1.402   .     A
C257   O311    1.386   .     S
C258   O306    1.386   .     S
C258   C1226   1.415   1_554 S
H263   C889    1.115   1_545 S
H271   C892    1.110   1_545 S
H273   C11     1.086   1_655 S
H275   C1217   1.115   1_554 S
H277   C894    1.111   1_545 S
H278   C1218   1.111   .     S
H282   C32     1.111   1_655 S
O301   Zn324   1.926   .     S
O301   Zn321   1.954   .     S
O301   Zn322   1.936   .     S
O301   Zn323   1.933   .     S
O302   Zn322   1.916   .     S
O303   Zn324   1.925   .     S
O304   Zn323   1.918   .     S
O305   Zn321   1.910   .     S
O307   C877    1.389   1_545 S
O307   C889    1.412   1_545 S
O308   C554    1.400   .     S
O308   C567    1.414   .     S
O312   Zn321   1.934   .     S
O314   Zn324   1.939   .     S
O315   Zn322   1.922   .     S
O316   Zn323   1.931   .     S
O317   Zn324   1.927   .     S
O318   Zn321   1.920   .     S
O319   Zn322   1.943   .     S
O320   Zn323   1.936   .     S
C325   C335    1.434   .     S
C325   O423    1.266   .     A
C325   O425    1.266   .     A
C326   C363    1.422   .     A
C326   O421    1.383   .     S
C326   C327    1.395   .     A
C327   F368    1.359   .     S
C327   C1301   1.401   .     S
C328   O426    1.277   .     A
C328   O424    1.279   .     A
C328   C334    1.452   .     S
C329   C330    1.422   .     A
C329   C331    1.412   .     A
C329   C1299   1.401   1_554 S
C330   C333    1.409   .     A
C330   C364    1.426   .     A
C331   C332    1.393   .     A
C331   F367    1.358   .     S
C332   C344    1.394   .     A
C332   H403    1.083   .     S
C333   C344    1.392   .     A
C333   H392    1.079   .     S
C334   C443    1.333   .     S
C334   H478    1.088   .     S
C335   C550    1.333   1_455 S
C335   H597    1.086   1_455 S
C336   O418    1.383   .     S
C336   C345    1.404   .     A
C336   C343    1.410   .     A
C337   C340    1.460   .     S
C337   C662    1.351   .     S
C337   O739    1.389   .     S
C338   C339    1.444   .     S
C339   O420    1.270   .     A
C339   O427    1.269   .     A
C340   O428    1.272   .     A
C340   O422    1.264   .     A
C341   O412    1.277   .     A
C341   C344    1.455   .     S
C341   O410    1.274   .     A
C342   C343    1.485   .     S
C342   O413    1.289   .     A
C342   O411    1.284   .     A
C343   C347    1.402   .     A
C345   C362    1.417   .     A
C345   O417    1.383   .     S
C346   H405    1.115   .     S
C346   O414    1.414   .     S
C346   H404    1.110   .     S
C346   C564    1.521   1_455 S
C347   F369    1.359   .     S
C347   C358    1.415   .     A
C348   H407    1.109   .     S
C348   H406    1.110   .     S
C348   H408    1.111   .     S
C348   C454    1.521   .     S
C349   H372    1.113   .     S
C349   C674    1.521   .     S
C349   H695    1.115   .     S
C349   O739    1.412   .     S
C350   H374    1.111   .     S
C350   H373    1.111   .     S
C350   H375    1.111   .     S
C351   H376    1.114   .     S
C351   H377    1.112   .     S
C352   H380    1.111   .     S
C352   H378    1.110   .     S
C352   C675    1.520   .     S
C352   H703    1.110   .     S
C353   O417    1.413   .     S
C353   H382    1.114   .     S
C353   C1326   1.521   .     S
C353   H1355   1.115   .     S
C354   H384    1.111   .     S
C354   C1325   1.521   1_554 S
C354   H709    1.111   .     S
C354   H1358   1.111   1_554 S
C355   H387    1.114   .     S
C355   C356    1.520   .     S
C355   H388    1.115   .     S
C355   O418    1.413   .     S
C356   H391    1.111   .     S
C356   H389    1.110   .     S
C356   H606    1.111   1_455 S
C357   H393    1.111   .     S
C357   O419    1.416   .     S
C357   H394    1.115   .     S
C357   C359    1.521   .     S
C358   C363    1.425   .     A
C358   C362    1.421   .     A
C359   H395    1.111   .     S
C359   H396    1.111   .     S
C359   H397    1.111   .     S
C360   C361    1.520   .     S
C360   O421    1.412   .     S
C360   H399    1.115   .     S
C360   H398    1.114   .     S
C361   H401    1.111   .     S
C361   H400    1.110   .     S
C361   H402    1.111   .     S
C362   C1338   1.415   .     S
C363   C1336   1.417   .     S
C364   C365    1.424   .     A
C364   C1335   1.417   1_554 S
C365   C366    1.402   .     A
C365   O419    1.386   .     S
C366   O414    1.386   .     S
C366   C1334   1.415   1_554 S
H370   C550    1.088   1_455 S
H381   C443    1.086   .     S
H383   C1325   1.115   1_554 S
H386   C1326   1.111   .     S
H390   C464    1.111   .     S
O409   Zn432   1.926   .     S
O409   Zn429   1.954   .     S
O409   Zn430   1.936   .     S
O409   Zn431   1.933   .     S
O410   Zn430   1.916   .     S
O411   Zn432   1.925   .     S
O412   Zn431   1.918   .     S
O413   Zn429   1.910   .     S
O416   C662    1.400   .     S
O416   C675    1.414   .     S
O420   Zn429   1.934   .     S
O422   Zn432   1.939   .     S
O423   Zn430   1.922   .     S
O424   Zn431   1.931   .     S
O425   Zn432   1.927   .     S
O426   Zn429   1.920   .     S
O427   Zn430   1.943   .     S
O428   Zn431   1.936   .     S
C433   C443    1.434   .     S
C433   O531    1.266   .     A
C433   O533    1.266   .     A
C434   C471    1.422   .     A
C434   O529    1.383   .     S
C434   C435    1.395   .     A
C435   F476    1.359   .     S
C435   C1409   1.401   .     S
C436   O534    1.277   .     A
C436   O532    1.279   .     A
C436   C442    1.452   .     S
C437   C438    1.422   .     A
C437   C439    1.412   .     A
C437   C1407   1.401   1_554 S
C438   C441    1.409   .     A
C438   C472    1.426   .     A
C439   C440    1.393   .     A
C439   F475    1.358   .     S
C440   C452    1.394   .     A
C440   H511    1.083   .     S
C441   C452    1.392   .     A
C441   H500    1.079   .     S
C442   C551    1.333   .     S
C442   H586    1.088   .     S
C444   O526    1.383   .     S
C444   C453    1.404   .     A
C444   C451    1.410   .     A
C445   C448    1.460   .     S
C445   C770    1.351   .     S
C445   O847    1.389   .     S
C446   C447    1.444   .     S
C447   O528    1.270   .     A
C447   O535    1.269   .     A
C448   O536    1.272   .     A
C448   O530    1.264   .     A
C449   O520    1.277   .     A
C449   C452    1.455   .     S
C449   O518    1.274   .     A
C450   C451    1.485   .     S
C450   O521    1.289   .     A
C450   O519    1.284   .     A
C451   C455    1.402   .     A
C453   C470    1.417   .     A
C453   O525    1.383   .     S
C454   H513    1.115   .     S
C454   O522    1.414   .     S
C454   H512    1.110   .     S
C455   F477    1.359   .     S
C455   C466    1.415   .     A
C456   H515    1.109   .     S
C456   H514    1.110   .     S
C456   H516    1.111   .     S
C456   C562    1.521   .     S
C457   H480    1.113   .     S
C457   C782    1.521   .     S
C457   H803    1.115   .     S
C457   O847    1.412   .     S
C458   H482    1.111   .     S
C458   H481    1.111   .     S
C458   H483    1.111   .     S
C459   H484    1.114   .     S
C459   H485    1.112   .     S
C460   H488    1.111   .     S
C460   H486    1.110   .     S
C460   C783    1.520   .     S
C460   H811    1.110   .     S
C461   O525    1.413   .     S
C461   H490    1.114   .     S
C461   C1434   1.521   .     S
C461   H1463   1.115   .     S
C462   H492    1.111   .     S
C462   C1433   1.521   1_554 S
C462   H817    1.111   .     S
C462   H1466   1.111   1_554 S
C463   H495    1.114   .     S
C463   C464    1.520   .     S
C463   H496    1.115   .     S
C463   O526    1.413   .     S
C464   H499    1.111   .     S
C464   H497    1.110   .     S
C465   H501    1.111   .     S
C465   O527    1.416   .     S
C465   H502    1.115   .     S
C465   C467    1.521   .     S
C466   C471    1.425   .     A
C466   C470    1.421   .     A
C467   H503    1.111   .     S
C467   H504    1.111   .     S
C467   H505    1.111   .     S
C468   C469    1.520   .     S
C468   O529    1.412   .     S
C468   H507    1.115   .     S
C468   H506    1.114   .     S
C469   H509    1.111   .     S
C469   H508    1.110   .     S
C469   H510    1.111   .     S
C470   C1446   1.415   .     S
C471   C1444   1.417   .     S
C472   C473    1.424   .     A
C472   C1443   1.417   1_554 S
C473   C474    1.402   .     A
C473   O527    1.386   .     S
C474   O522    1.386   .     S
C474   C1442   1.415   1_554 S
H489   C551    1.086   .     S
H491   C1433   1.115   1_554 S
H494   C1434   1.111   .     S
H498   C572    1.111   .     S
O517   Zn540   1.926   .     S
O517   Zn537   1.954   .     S
O517   Zn538   1.936   .     S
O517   Zn539   1.933   .     S
O518   Zn538   1.916   .     S
O519   Zn540   1.925   .     S
O520   Zn539   1.918   .     S
O521   Zn537   1.910   .     S
O524   C770    1.400   .     S
O524   C783    1.414   .     S
O528   Zn537   1.934   .     S
O530   Zn540   1.939   .     S
O531   Zn538   1.922   .     S
O532   Zn539   1.931   .     S
O533   Zn540   1.927   .     S
O534   Zn537   1.920   .     S
O535   Zn538   1.943   .     S
O536   Zn539   1.936   .     S
C541   C551    1.434   .     S
C541   O639    1.266   .     A
C541   O641    1.266   .     A
C542   C579    1.422   .     A
C542   O637    1.383   .     S
C542   C543    1.395   .     A
C543   F584    1.359   .     S
C543   C1517   1.401   .     S
C544   O642    1.277   .     A
C544   O640    1.279   .     A
C544   C550    1.452   .     S
C545   C546    1.422   .     A
C545   C547    1.412   .     A
C545   C1515   1.401   1_554 S
C546   C549    1.409   .     A
C546   C580    1.426   .     A
C547   C548    1.393   .     A
C547   F583    1.358   .     S
C548   C560    1.394   .     A
C548   H619    1.083   .     S
C549   C560    1.392   .     A
C549   H608    1.079   .     S
C550   C335    1.333   1_655 S
C550   H370    1.088   1_655 S
C552   O634    1.383   .     S
C552   C561    1.404   .     A
C552   C559    1.410   .     A
C553   C556    1.460   .     S
C553   C878    1.351   .     S
C553   O955    1.389   .     S
C554   C555    1.444   .     S
C555   O636    1.270   .     A
C555   O643    1.269   .     A
C556   O644    1.272   .     A
C556   O638    1.264   .     A
C557   O628    1.277   .     A
C557   C560    1.455   .     S
C557   O626    1.274   .     A
C558   C559    1.485   .     S
C558   O629    1.289   .     A
C558   O627    1.284   .     A
C559   C563    1.402   .     A
C561   C578    1.417   .     A
C561   O633    1.383   .     S
C562   H621    1.115   .     S
C562   O630    1.414   .     S
C562   H620    1.110   .     S
C563   F585    1.359   .     S
C563   C574    1.415   .     A
C564   H623    1.109   .     S
C564   H622    1.110   .     S
C564   H624    1.111   .     S
C564   C346    1.521   1_655 S
C565   H588    1.113   .     S
C565   C890    1.521   .     S
C565   H911    1.115   .     S
C565   O955    1.412   .     S
C566   H590    1.111   .     S
C566   H589    1.111   .     S
C566   H591    1.111   .     S
C567   H592    1.114   .     S
C567   H593    1.112   .     S
C568   H596    1.111   .     S
C568   H594    1.110   .     S
C568   C891    1.520   .     S
C568   H919    1.110   .     S
C569   O633    1.413   .     S
C569   H598    1.114   .     S
C569   C1542   1.521   .     S
C569   H1571   1.115   .     S
C570   H600    1.111   .     S
C570   C1541   1.521   1_554 S
C570   H925    1.111   .     S
C570   H1574   1.111   1_554 S
C571   H603    1.114   .     S
C571   C572    1.520   .     S
C571   H604    1.115   .     S
C571   O634    1.413   .     S
C572   H607    1.111   .     S
C572   H605    1.110   .     S
C573   H609    1.111   .     S
C573   O635    1.416   .     S
C573   H610    1.115   .     S
C573   C575    1.521   .     S
C574   C579    1.425   .     A
C574   C578    1.421   .     A
C575   H611    1.111   .     S
C575   H612    1.111   .     S
C575   H613    1.111   .     S
C576   C577    1.520   .     S
C576   O637    1.412   .     S
C576   H615    1.115   .     S
C576   H614    1.114   .     S
C577   H617    1.111   .     S
C577   H616    1.110   .     S
C577   H618    1.111   .     S
C578   C1554   1.415   .     S
C579   C1552   1.417   .     S
C580   C581    1.424   .     A
C580   C1551   1.417   1_554 S
C581   C582    1.402   .     A
C581   O635    1.386   .     S
C582   O630    1.386   .     S
C582   C1550   1.415   1_554 S
H597   C335    1.086   1_655 S
H599   C1541   1.115   1_554 S
H602   C1542   1.111   .     S
H606   C356    1.111   1_655 S
O625   Zn648   1.926   .     S
O625   Zn645   1.954   .     S
O625   Zn646   1.936   .     S
O625   Zn647   1.933   .     S
O626   Zn646   1.916   .     S
O627   Zn648   1.925   .     S
O628   Zn647   1.918   .     S
O629   Zn645   1.910   .     S
O632   C878    1.400   .     S
O632   C891    1.414   .     S
O636   Zn645   1.934   .     S
O638   Zn648   1.939   .     S
O639   Zn646   1.922   .     S
O640   Zn647   1.931   .     S
O641   Zn648   1.927   .     S
O642   Zn645   1.920   .     S
O643   Zn646   1.943   .     S
O644   Zn647   1.936   .     S
C649   C659    1.434   .     S
C649   O747    1.266   .     A
C649   O749    1.266   .     A
C650   C687    1.422   .     A
C650   O745    1.383   .     S
C650   C651    1.395   .     A
C651   F692    1.359   .     S
C651   C1625   1.401   .     S
C652   O750    1.277   .     A
C652   O748    1.279   .     A
C652   C658    1.452   .     S
C653   C654    1.422   .     A
C653   C655    1.412   .     A
C653   C1623   1.401   1_554 S
C654   C657    1.409   .     A
C654   C688    1.426   .     A
C655   C656    1.393   .     A
C655   F691    1.358   .     S
C656   C668    1.394   .     A
C656   H727    1.083   .     S
C657   C668    1.392   .     A
C657   H716    1.079   .     S
C658   C767    1.333   .     S
C658   H802    1.088   .     S
C659   C874    1.333   1_455 S
C659   H921    1.086   1_455 S
C660   O742    1.383   .     S
C660   C669    1.404   .     A
C660   C667    1.410   .     A
C661   C664    1.460   .     S
C661   C14     1.351   1_565 S
C661   O91     1.389   1_565 S
C662   C663    1.444   .     S
C663   O744    1.270   .     A
C663   O751    1.269   .     A
C664   O752    1.272   .     A
C664   O746    1.264   .     A
C665   O736    1.277   .     A
C665   C668    1.455   .     S
C665   O734    1.274   .     A
C666   C667    1.485   .     S
C666   O737    1.289   .     A
C666   O735    1.284   .     A
C667   C671    1.402   .     A
C669   C686    1.417   .     A
C669   O741    1.383   .     S
C670   H729    1.115   .     S
C670   O738    1.414   .     S
C670   H728    1.110   .     S
C670   C888    1.521   1_455 S
C671   F693    1.359   .     S
C671   C682    1.415   .     A
C672   H731    1.109   .     S
C672   H730    1.110   .     S
C672   H732    1.111   .     S
C672   C778    1.521   .     S
C673   H696    1.113   .     S
C673   C26     1.521   1_565 S
C673   H47     1.115   1_565 S
C673   O91     1.412   1_565 S
C674   H698    1.111   .     S
C674   H697    1.111   .     S
C674   H699    1.111   .     S
C675   H700    1.114   .     S
C675   H701    1.112   .     S
C676   H704    1.111   .     S
C676   H702    1.110   .     S
C676   C27     1.520   1_565 S
C676   H55     1.110   1_565 S
C677   O741    1.413   .     S
C677   H706    1.114   .     S
C677   C1650   1.521   .     S
C677   H1679   1.115   .     S
C678   H708    1.111   .     S
C678   C1649   1.521   1_554 S
C678   H61     1.111   1_565 S
C678   H1682   1.111   1_554 S
C679   H711    1.114   .     S
C679   C680    1.520   .     S
C679   H712    1.115   .     S
C679   O742    1.413   .     S
C680   H715    1.111   .     S
C680   H713    1.110   .     S
C680   H930    1.111   1_455 S
C681   H717    1.111   .     S
C681   O743    1.416   .     S
C681   H718    1.115   .     S
C681   C683    1.521   .     S
C682   C687    1.425   .     A
C682   C686    1.421   .     A
C683   H719    1.111   .     S
C683   H720    1.111   .     S
C683   H721    1.111   .     S
C684   C685    1.520   .     S
C684   O745    1.412   .     S
C684   H723    1.115   .     S
C684   H722    1.114   .     S
C685   H725    1.111   .     S
C685   H724    1.110   .     S
C685   H726    1.111   .     S
C686   C1662   1.415   .     S
C687   C1660   1.417   .     S
C688   C689    1.424   .     A
C688   C1659   1.417   1_554 S
C689   C690    1.402   .     A
C689   O743    1.386   .     S
C690   O738    1.386   .     S
C690   C1658   1.415   1_554 S
H694   C874    1.088   1_455 S
H705   C767    1.086   .     S
H707   C1649   1.115   1_554 S
H710   C1650   1.111   .     S
H714   C788    1.111   .     S
O733   Zn756   1.926   .     S
O733   Zn753   1.954   .     S
O733   Zn754   1.936   .     S
O733   Zn755   1.933   .     S
O734   Zn754   1.916   .     S
O735   Zn756   1.925   .     S
O736   Zn755   1.918   .     S
O737   Zn753   1.910   .     S
O740   C14     1.400   1_565 S
O740   C27     1.414   1_565 S
O744   Zn753   1.934   .     S
O746   Zn756   1.939   .     S
O747   Zn754   1.922   .     S
O748   Zn755   1.931   .     S
O749   Zn756   1.927   .     S
O750   Zn753   1.920   .     S
O751   Zn754   1.943   .     S
O752   Zn755   1.936   .     S
C757   C767    1.434   .     S
C757   O855    1.266   .     A
C757   O857    1.266   .     A
C758   C795    1.422   .     A
C758   O853    1.383   .     S
C758   C759    1.395   .     A
C759   F800    1.359   .     S
C759   C1733   1.401   .     S
C760   O858    1.277   .     A
C760   O856    1.279   .     A
C760   C766    1.452   .     S
C761   C762    1.422   .     A
C761   C763    1.412   .     A
C761   C1731   1.401   1_554 S
C762   C765    1.409   .     A
C762   C796    1.426   .     A
C763   C764    1.393   .     A
C763   F799    1.358   .     S
C764   C776    1.394   .     A
C764   H835    1.083   .     S
C765   C776    1.392   .     A
C765   H824    1.079   .     S
C766   C875    1.333   .     S
C766   H910    1.088   .     S
C768   O850    1.383   .     S
C768   C777    1.404   .     A
C768   C775    1.410   .     A
C769   C772    1.460   .     S
C769   C122    1.351   1_565 S
C769   O199    1.389   1_565 S
C770   C771    1.444   .     S
C771   O852    1.270   .     A
C771   O859    1.269   .     A
C772   O860    1.272   .     A
C772   O854    1.264   .     A
C773   O844    1.277   .     A
C773   C776    1.455   .     S
C773   O842    1.274   .     A
C774   C775    1.485   .     S
C774   O845    1.289   .     A
C774   O843    1.284   .     A
C775   C779    1.402   .     A
C777   C794    1.417   .     A
C777   O849    1.383   .     S
C778   H837    1.115   .     S
C778   O846    1.414   .     S
C778   H836    1.110   .     S
C779   F801    1.359   .     S
C779   C790    1.415   .     A
C780   H839    1.109   .     S
C780   H838    1.110   .     S
C780   H840    1.111   .     S
C780   C886    1.521   .     S
C781   H804    1.113   .     S
C781   C134    1.521   1_565 S
C781   H155    1.115   1_565 S
C781   O199    1.412   1_565 S
C782   H806    1.111   .     S
C782   H805    1.111   .     S
C782   H807    1.111   .     S
C783   H808    1.114   .     S
C783   H809    1.112   .     S
C784   H812    1.111   .     S
C784   H810    1.110   .     S
C784   C135    1.520   1_565 S
C784   H163    1.110   1_565 S
C785   O849    1.413   .     S
C785   H814    1.114   .     S
C785   C1758   1.521   .     S
C785   H1787   1.115   .     S
C786   H816    1.111   .     S
C786   C1757   1.521   1_554 S
C786   H169    1.111   1_565 S
C786   H1790   1.111   1_554 S
C787   H819    1.114   .     S
C787   C788    1.520   .     S
C787   H820    1.115   .     S
C787   O850    1.413   .     S
C788   H823    1.111   .     S
C788   H821    1.110   .     S
C789   H825    1.111   .     S
C789   O851    1.416   .     S
C789   H826    1.115   .     S
C789   C791    1.521   .     S
C790   C795    1.425   .     A
C790   C794    1.421   .     A
C791   H827    1.111   .     S
C791   H828    1.111   .     S
C791   H829    1.111   .     S
C792   C793    1.520   .     S
C792   O853    1.412   .     S
C792   H831    1.115   .     S
C792   H830    1.114   .     S
C793   H833    1.111   .     S
C793   H832    1.110   .     S
C793   H834    1.111   .     S
C794   C1770   1.415   .     S
C795   C1768   1.417   .     S
C796   C797    1.424   .     A
C796   C1767   1.417   1_554 S
C797   C798    1.402   .     A
C797   O851    1.386   .     S
C798   O846    1.386   .     S
C798   C1766   1.415   1_554 S
H813   C875    1.086   .     S
H815   C1757   1.115   1_554 S
H818   C1758   1.111   .     S
H822   C896    1.111   .     S
O841   Zn864   1.926   .     S
O841   Zn861   1.954   .     S
O841   Zn862   1.936   .     S
O841   Zn863   1.933   .     S
O842   Zn862   1.916   .     S
O843   Zn864   1.925   .     S
O844   Zn863   1.918   .     S
O845   Zn861   1.910   .     S
O848   C122    1.400   1_565 S
O848   C135    1.414   1_565 S
O852   Zn861   1.934   .     S
O854   Zn864   1.939   .     S
O855   Zn862   1.922   .     S
O856   Zn863   1.931   .     S
O857   Zn864   1.927   .     S
O858   Zn861   1.920   .     S
O859   Zn862   1.943   .     S
O860   Zn863   1.936   .     S
C865   C875    1.434   .     S
C865   O963    1.266   .     A
C865   O965    1.266   .     A
C866   C903    1.422   .     A
C866   O961    1.383   .     S
C866   C867    1.395   .     A
C867   F908    1.359   .     S
C867   C1841   1.401   .     S
C868   O966    1.277   .     A
C868   O964    1.279   .     A
C868   C874    1.452   .     S
C869   C870    1.422   .     A
C869   C871    1.412   .     A
C869   C1839   1.401   1_554 S
C870   C873    1.409   .     A
C870   C904    1.426   .     A
C871   C872    1.393   .     A
C871   F907    1.358   .     S
C872   C884    1.394   .     A
C872   H943    1.083   .     S
C873   C884    1.392   .     A
C873   H932    1.079   .     S
C874   C659    1.333   1_655 S
C874   H694    1.088   1_655 S
C876   O958    1.383   .     S
C876   C885    1.404   .     A
C876   C883    1.410   .     A
C877   C880    1.460   .     S
C877   C230    1.351   1_565 S
C877   O307    1.389   1_565 S
C878   C879    1.444   .     S
C879   O960    1.270   .     A
C879   O967    1.269   .     A
C880   O968    1.272   .     A
C880   O962    1.264   .     A
C881   O952    1.277   .     A
C881   C884    1.455   .     S
C881   O950    1.274   .     A
C882   C883    1.485   .     S
C882   O953    1.289   .     A
C882   O951    1.284   .     A
C883   C887    1.402   .     A
C885   C902    1.417   .     A
C885   O957    1.383   .     S
C886   H945    1.115   .     S
C886   O954    1.414   .     S
C886   H944    1.110   .     S
C887   F909    1.359   .     S
C887   C898    1.415   .     A
C888   H947    1.109   .     S
C888   H946    1.110   .     S
C888   H948    1.111   .     S
C888   C670    1.521   1_655 S
C889   H912    1.113   .     S
C889   C242    1.521   1_565 S
C889   H263    1.115   1_565 S
C889   O307    1.412   1_565 S
C890   H914    1.111   .     S
C890   H913    1.111   .     S
C890   H915    1.111   .     S
C891   H916    1.114   .     S
C891   H917    1.112   .     S
C892   H920    1.111   .     S
C892   H918    1.110   .     S
C892   C243    1.520   1_565 S
C892   H271    1.110   1_565 S
C893   O957    1.413   .     S
C893   H922    1.114   .     S
C893   C1866   1.521   .     S
C893   H1895   1.115   .     S
C894   H924    1.111   .     S
C894   C1865   1.521   1_554 S
C894   H277    1.111   1_565 S
C894   H1898   1.111   1_554 S
C895   H927    1.114   .     S
C895   C896    1.520   .     S
C895   H928    1.115   .     S
C895   O958    1.413   .     S
C896   H931    1.111   .     S
C896   H929    1.110   .     S
C897   H933    1.111   .     S
C897   O959    1.416   .     S
C897   H934    1.115   .     S
C897   C899    1.521   .     S
C898   C903    1.425   .     A
C898   C902    1.421   .     A
C899   H935    1.111   .     S
C899   H936    1.111   .     S
C899   H937    1.111   .     S
C900   C901    1.520   .     S
C900   O961    1.412   .     S
C900   H939    1.115   .     S
C900   H938    1.114   .     S
C901   H941    1.111   .     S
C901   H940    1.110   .     S
C901   H942    1.111   .     S
C902   C1878   1.415   .     S
C903   C1876   1.417   .     S
C904   C905    1.424   .     A
C904   C1875   1.417   1_554 S
C905   C906    1.402   .     A
C905   O959    1.386   .     S
C906   O954    1.386   .     S
C906   C1874   1.415   1_554 S
H921   C659    1.086   1_655 S
H923   C1865   1.115   1_554 S
H926   C1866   1.111   .     S
H930   C680    1.111   1_655 S
O949   Zn972   1.926   .     S
O949   Zn969   1.954   .     S
O949   Zn970   1.936   .     S
O949   Zn971   1.933   .     S
O950   Zn970   1.916   .     S
O951   Zn972   1.925   .     S
O952   Zn971   1.918   .     S
O953   Zn969   1.910   .     S
O956   C230    1.400   1_565 S
O956   C243    1.414   1_565 S
O960   Zn969   1.934   .     S
O962   Zn972   1.939   .     S
O963   Zn970   1.922   .     S
O964   Zn971   1.931   .     S
O965   Zn972   1.927   .     S
O966   Zn969   1.920   .     S
O967   Zn970   1.943   .     S
O968   Zn971   1.936   .     S
C973   C983    1.434   .     S
C973   O1071   1.266   .     A
C973   O1073   1.266   .     A
C974   C1011   1.422   .     A
C974   O1069   1.383   .     S
C974   C975    1.395   .     A
C975   F1016   1.359   .     S
C975   C5      1.401   1_556 S
C976   O1074   1.277   .     A
C976   O1072   1.279   .     A
C976   C982    1.452   .     S
C977   C978    1.422   .     A
C977   C979    1.412   .     A
C978   C981    1.409   .     A
C978   C1012   1.426   .     A
C979   C980    1.393   .     A
C979   F1015   1.358   .     S
C980   C992    1.394   .     A
C980   H1051   1.083   .     S
C981   C992    1.392   .     A
C981   H1040   1.079   .     S
C982   C1091   1.333   .     S
C982   H1126   1.088   .     S
C983   C1198   1.333   1_455 S
C983   H1245   1.086   1_455 S
C984   O1066   1.383   .     S
C984   C993    1.404   .     A
C984   C991    1.410   .     A
C985   C988    1.460   .     S
C985   C1310   1.351   .     S
C985   O1387   1.389   .     S
C986   C987    1.444   .     S
C986   C1633   1.351   1_545 S
C986   O1712   1.400   1_545 S
C987   O1068   1.270   .     A
C987   O1075   1.269   .     A
C988   O1076   1.272   .     A
C988   O1070   1.264   .     A
C989   O1060   1.277   .     A
C989   C992    1.455   .     S
C989   O1058   1.274   .     A
C990   C991    1.485   .     S
C990   O1061   1.289   .     A
C990   O1059   1.284   .     A
C991   C995    1.402   .     A
C993   C1010   1.417   .     A
C993   O1065   1.383   .     S
C994   H1053   1.115   .     S
C994   O1062   1.414   .     S
C994   H1052   1.110   .     S
C994   C1212   1.521   1_455 S
C995   F1017   1.359   .     S
C995   C1006   1.415   .     A
C996   H1055   1.109   .     S
C996   H1054   1.110   .     S
C996   H1056   1.111   .     S
C996   C1102   1.521   .     S
C997   H1020   1.113   .     S
C997   C1322   1.521   .     S
C997   H1343   1.115   .     S
C997   O1387   1.412   .     S
C998   H1022   1.111   .     S
C998   H1021   1.111   .     S
C998   H1023   1.111   .     S
C998   C1645   1.521   1_545 S
C999   H1024   1.114   .     S
C999   H1025   1.112   .     S
C999   C1648   1.520   1_545 S
C999   O1712   1.414   1_545 S
C1000  H1028   1.111   .     S
C1000  H1026   1.110   .     S
C1000  C1323   1.520   .     S
C1000  H1351   1.110   .     S
C1001  O1065   1.413   .     S
C1001  H1030   1.114   .     S
C1001  C30     1.521   1_556 S
C1001  H59     1.115   1_556 S
C1002  H1032   1.111   .     S
C1002  H1357   1.111   .     S
C1003  H1035   1.114   .     S
C1003  C1004   1.520   .     S
C1003  H1036   1.115   .     S
C1003  O1066   1.413   .     S
C1004  H1039   1.111   .     S
C1004  H1037   1.110   .     S
C1004  H1254   1.111   1_455 S
C1005  H1041   1.111   .     S
C1005  O1067   1.416   .     S
C1005  H1042   1.115   .     S
C1005  C1007   1.521   .     S
C1006  C1011   1.425   .     A
C1006  C1010   1.421   .     A
C1007  H1043   1.111   .     S
C1007  H1044   1.111   .     S
C1007  H1045   1.111   .     S
C1008  C1009   1.520   .     S
C1008  O1069   1.412   .     S
C1008  H1047   1.115   .     S
C1008  H1046   1.114   .     S
C1009  H1049   1.111   .     S
C1009  H1048   1.110   .     S
C1009  H1050   1.111   .     S
C1010  C42     1.415   1_556 S
C1011  C40     1.417   1_556 S
C1012  C1013   1.424   .     A
C1013  C1014   1.402   .     A
C1013  O1067   1.386   .     S
C1014  O1062   1.386   .     S
H1018  C1198   1.088   1_455 S
H1019  C1645   1.115   1_545 S
H1027  C1648   1.110   1_545 S
H1029  C1091   1.086   .     S
H1033  C1650   1.111   1_545 S
H1034  C30     1.111   1_556 S
H1038  C1112   1.111   .     S
O1057  Zn1080  1.926   .     S
O1057  Zn1077  1.954   .     S
O1057  Zn1078  1.936   .     S
O1057  Zn1079  1.933   .     S
O1058  Zn1078  1.916   .     S
O1059  Zn1080  1.925   .     S
O1060  Zn1079  1.918   .     S
O1061  Zn1077  1.910   .     S
O1063  C1633   1.389   1_545 S
O1063  C1645   1.412   1_545 S
O1064  C1310   1.400   .     S
O1064  C1323   1.414   .     S
O1068  Zn1077  1.934   .     S
O1070  Zn1080  1.939   .     S
O1071  Zn1078  1.922   .     S
O1072  Zn1079  1.931   .     S
O1073  Zn1080  1.927   .     S
O1074  Zn1077  1.920   .     S
O1075  Zn1078  1.943   .     S
O1076  Zn1079  1.936   .     S
C1081  C1091   1.434   .     S
C1081  O1179   1.266   .     A
C1081  O1181   1.266   .     A
C1082  C1119   1.422   .     A
C1082  O1177   1.383   .     S
C1082  C1083   1.395   .     A
C1083  F1124   1.359   .     S
C1083  C113    1.401   1_556 S
C1084  O1182   1.277   .     A
C1084  O1180   1.279   .     A
C1084  C1090   1.452   .     S
C1085  C1086   1.422   .     A
C1085  C1087   1.412   .     A
C1086  C1089   1.409   .     A
C1086  C1120   1.426   .     A
C1087  C1088   1.393   .     A
C1087  F1123   1.358   .     S
C1088  C1100   1.394   .     A
C1088  H1159   1.083   .     S
C1089  C1100   1.392   .     A
C1089  H1148   1.079   .     S
C1090  C1199   1.333   .     S
C1090  H1234   1.088   .     S
C1092  O1174   1.383   .     S
C1092  C1101   1.404   .     A
C1092  C1099   1.410   .     A
C1093  C1096   1.460   .     S
C1093  C1418   1.351   .     S
C1093  O1495   1.389   .     S
C1094  C1095   1.444   .     S
C1094  C1741   1.351   1_545 S
C1094  O1820   1.400   1_545 S
C1095  O1176   1.270   .     A
C1095  O1183   1.269   .     A
C1096  O1184   1.272   .     A
C1096  O1178   1.264   .     A
C1097  O1168   1.277   .     A
C1097  C1100   1.455   .     S
C1097  O1166   1.274   .     A
C1098  C1099   1.485   .     S
C1098  O1169   1.289   .     A
C1098  O1167   1.284   .     A
C1099  C1103   1.402   .     A
C1101  C1118   1.417   .     A
C1101  O1173   1.383   .     S
C1102  H1161   1.115   .     S
C1102  O1170   1.414   .     S
C1102  H1160   1.110   .     S
C1103  F1125   1.359   .     S
C1103  C1114   1.415   .     A
C1104  H1163   1.109   .     S
C1104  H1162   1.110   .     S
C1104  H1164   1.111   .     S
C1104  C1210   1.521   .     S
C1105  H1128   1.113   .     S
C1105  C1430   1.521   .     S
C1105  H1451   1.115   .     S
C1105  O1495   1.412   .     S
C1106  H1130   1.111   .     S
C1106  H1129   1.111   .     S
C1106  H1131   1.111   .     S
C1106  C1753   1.521   1_545 S
C1107  H1132   1.114   .     S
C1107  H1133   1.112   .     S
C1107  C1756   1.520   1_545 S
C1107  O1820   1.414   1_545 S
C1108  H1136   1.111   .     S
C1108  H1134   1.110   .     S
C1108  C1431   1.520   .     S
C1108  H1459   1.110   .     S
C1109  O1173   1.413   .     S
C1109  H1138   1.114   .     S
C1109  C138    1.521   1_556 S
C1109  H167    1.115   1_556 S
C1110  H1140   1.111   .     S
C1110  H1465   1.111   .     S
C1111  H1143   1.114   .     S
C1111  C1112   1.520   .     S
C1111  H1144   1.115   .     S
C1111  O1174   1.413   .     S
C1112  H1147   1.111   .     S
C1112  H1145   1.110   .     S
C1113  H1149   1.111   .     S
C1113  O1175   1.416   .     S
C1113  H1150   1.115   .     S
C1113  C1115   1.521   .     S
C1114  C1119   1.425   .     A
C1114  C1118   1.421   .     A
C1115  H1151   1.111   .     S
C1115  H1152   1.111   .     S
C1115  H1153   1.111   .     S
C1116  C1117   1.520   .     S
C1116  O1177   1.412   .     S
C1116  H1155   1.115   .     S
C1116  H1154   1.114   .     S
C1117  H1157   1.111   .     S
C1117  H1156   1.110   .     S
C1117  H1158   1.111   .     S
C1118  C150    1.415   1_556 S
C1119  C148    1.417   1_556 S
C1120  C1121   1.424   .     A
C1121  C1122   1.402   .     A
C1121  O1175   1.386   .     S
C1122  O1170   1.386   .     S
H1127  C1753   1.115   1_545 S
H1135  C1756   1.110   1_545 S
H1137  C1199   1.086   .     S
H1141  C1758   1.111   1_545 S
H1142  C138    1.111   1_556 S
H1146  C1220   1.111   .     S
O1165  Zn1188  1.926   .     S
O1165  Zn1185  1.954   .     S
O1165  Zn1186  1.936   .     S
O1165  Zn1187  1.933   .     S
O1166  Zn1186  1.916   .     S
O1167  Zn1188  1.925   .     S
O1168  Zn1187  1.918   .     S
O1169  Zn1185  1.910   .     S
O1171  C1741   1.389   1_545 S
O1171  C1753   1.412   1_545 S
O1172  C1418   1.400   .     S
O1172  C1431   1.414   .     S
O1176  Zn1185  1.934   .     S
O1178  Zn1188  1.939   .     S
O1179  Zn1186  1.922   .     S
O1180  Zn1187  1.931   .     S
O1181  Zn1188  1.927   .     S
O1182  Zn1185  1.920   .     S
O1183  Zn1186  1.943   .     S
O1184  Zn1187  1.936   .     S
C1189  C1199   1.434   .     S
C1189  O1287   1.266   .     A
C1189  O1289   1.266   .     A
C1190  C1227   1.422   .     A
C1190  O1285   1.383   .     S
C1190  C1191   1.395   .     A
C1191  F1232   1.359   .     S
C1191  C221    1.401   1_556 S
C1192  O1290   1.277   .     A
C1192  O1288   1.279   .     A
C1192  C1198   1.452   .     S
C1193  C1194   1.422   .     A
C1193  C1195   1.412   .     A
C1194  C1197   1.409   .     A
C1194  C1228   1.426   .     A
C1195  C1196   1.393   .     A
C1195  F1231   1.358   .     S
C1196  C1208   1.394   .     A
C1196  H1267   1.083   .     S
C1197  C1208   1.392   .     A
C1197  H1256   1.079   .     S
C1198  C983    1.333   1_655 S
C1198  H1018   1.088   1_655 S
C1200  O1282   1.383   .     S
C1200  C1209   1.404   .     A
C1200  C1207   1.410   .     A
C1201  C1204   1.460   .     S
C1201  C1526   1.351   .     S
C1201  O1603   1.389   .     S
C1202  C1203   1.444   .     S
C1202  C1849   1.351   1_545 S
C1202  O1928   1.400   1_545 S
C1203  O1284   1.270   .     A
C1203  O1291   1.269   .     A
C1204  O1292   1.272   .     A
C1204  O1286   1.264   .     A
C1205  O1276   1.277   .     A
C1205  C1208   1.455   .     S
C1205  O1274   1.274   .     A
C1206  C1207   1.485   .     S
C1206  O1277   1.289   .     A
C1206  O1275   1.284   .     A
C1207  C1211   1.402   .     A
C1209  C1226   1.417   .     A
C1209  O1281   1.383   .     S
C1210  H1269   1.115   .     S
C1210  O1278   1.414   .     S
C1210  H1268   1.110   .     S
C1211  F1233   1.359   .     S
C1211  C1222   1.415   .     A
C1212  H1271   1.109   .     S
C1212  H1270   1.110   .     S
C1212  H1272   1.111   .     S
C1212  C994    1.521   1_655 S
C1213  H1236   1.113   .     S
C1213  C1538   1.521   .     S
C1213  H1559   1.115   .     S
C1213  O1603   1.412   .     S
C1214  H1238   1.111   .     S
C1214  H1237   1.111   .     S
C1214  H1239   1.111   .     S
C1214  C1861   1.521   1_545 S
C1215  H1240   1.114   .     S
C1215  H1241   1.112   .     S
C1215  C1864   1.520   1_545 S
C1215  O1928   1.414   1_545 S
C1216  H1244   1.111   .     S
C1216  H1242   1.110   .     S
C1216  C1539   1.520   .     S
C1216  H1567   1.110   .     S
C1217  O1281   1.413   .     S
C1217  H1246   1.114   .     S
C1217  C246    1.521   1_556 S
C1217  H275    1.115   1_556 S
C1218  H1248   1.111   .     S
C1218  H1573   1.111   .     S
C1219  H1251   1.114   .     S
C1219  C1220   1.520   .     S
C1219  H1252   1.115   .     S
C1219  O1282   1.413   .     S
C1220  H1255   1.111   .     S
C1220  H1253   1.110   .     S
C1221  H1257   1.111   .     S
C1221  O1283   1.416   .     S
C1221  H1258   1.115   .     S
C1221  C1223   1.521   .     S
C1222  C1227   1.425   .     A
C1222  C1226   1.421   .     A
C1223  H1259   1.111   .     S
C1223  H1260   1.111   .     S
C1223  H1261   1.111   .     S
C1224  C1225   1.520   .     S
C1224  O1285   1.412   .     S
C1224  H1263   1.115   .     S
C1224  H1262   1.114   .     S
C1225  H1265   1.111   .     S
C1225  H1264   1.110   .     S
C1225  H1266   1.111   .     S
C1226  C258    1.415   1_556 S
C1227  C256    1.417   1_556 S
C1228  C1229   1.424   .     A
C1229  C1230   1.402   .     A
C1229  O1283   1.386   .     S
C1230  O1278   1.386   .     S
H1235  C1861   1.115   1_545 S
H1243  C1864   1.110   1_545 S
H1245  C983    1.086   1_655 S
H1249  C1866   1.111   1_545 S
H1250  C246    1.111   1_556 S
H1254  C1004   1.111   1_655 S
O1273  Zn1296  1.926   .     S
O1273  Zn1293  1.954   .     S
O1273  Zn1294  1.936   .     S
O1273  Zn1295  1.933   .     S
O1274  Zn1294  1.916   .     S
O1275  Zn1296  1.925   .     S
O1276  Zn1295  1.918   .     S
O1277  Zn1293  1.910   .     S
O1279  C1849   1.389   1_545 S
O1279  C1861   1.412   1_545 S
O1280  C1526   1.400   .     S
O1280  C1539   1.414   .     S
O1284  Zn1293  1.934   .     S
O1286  Zn1296  1.939   .     S
O1287  Zn1294  1.922   .     S
O1288  Zn1295  1.931   .     S
O1289  Zn1296  1.927   .     S
O1290  Zn1293  1.920   .     S
O1291  Zn1294  1.943   .     S
O1292  Zn1295  1.936   .     S
C1297  C1307   1.434   .     S
C1297  O1395   1.266   .     A
C1297  O1397   1.266   .     A
C1298  C1335   1.422   .     A
C1298  O1393   1.383   .     S
C1298  C1299   1.395   .     A
C1299  F1340   1.359   .     S
C1299  C329    1.401   1_556 S
C1300  O1398   1.277   .     A
C1300  O1396   1.279   .     A
C1300  C1306   1.452   .     S
C1301  C1302   1.422   .     A
C1301  C1303   1.412   .     A
C1302  C1305   1.409   .     A
C1302  C1336   1.426   .     A
C1303  C1304   1.393   .     A
C1303  F1339   1.358   .     S
C1304  C1316   1.394   .     A
C1304  H1375   1.083   .     S
C1305  C1316   1.392   .     A
C1305  H1364   1.079   .     S
C1306  C1415   1.333   .     S
C1306  H1450   1.088   .     S
C1307  C1522   1.333   1_455 S
C1307  H1569   1.086   1_455 S
C1308  O1390   1.383   .     S
C1308  C1317   1.404   .     A
C1308  C1315   1.410   .     A
C1309  C1312   1.460   .     S
C1309  C1634   1.351   .     S
C1309  O1711   1.389   .     S
C1310  C1311   1.444   .     S
C1311  O1392   1.270   .     A
C1311  O1399   1.269   .     A
C1312  O1400   1.272   .     A
C1312  O1394   1.264   .     A
C1313  O1384   1.277   .     A
C1313  C1316   1.455   .     S
C1313  O1382   1.274   .     A
C1314  C1315   1.485   .     S
C1314  O1385   1.289   .     A
C1314  O1383   1.284   .     A
C1315  C1319   1.402   .     A
C1317  C1334   1.417   .     A
C1317  O1389   1.383   .     S
C1318  H1377   1.115   .     S
C1318  O1386   1.414   .     S
C1318  H1376   1.110   .     S
C1318  C1536   1.521   1_455 S
C1319  F1341   1.359   .     S
C1319  C1330   1.415   .     A
C1320  H1379   1.109   .     S
C1320  H1378   1.110   .     S
C1320  H1380   1.111   .     S
C1320  C1426   1.521   .     S
C1321  H1344   1.113   .     S
C1321  C1646   1.521   .     S
C1321  H1667   1.115   .     S
C1321  O1711   1.412   .     S
C1322  H1346   1.111   .     S
C1322  H1345   1.111   .     S
C1322  H1347   1.111   .     S
C1323  H1348   1.114   .     S
C1323  H1349   1.112   .     S
C1324  H1352   1.111   .     S
C1324  H1350   1.110   .     S
C1324  C1647   1.520   .     S
C1324  H1675   1.110   .     S
C1325  O1389   1.413   .     S
C1325  H1354   1.114   .     S
C1325  C354    1.521   1_556 S
C1325  H383    1.115   1_556 S
C1326  H1356   1.111   .     S
C1326  H1681   1.111   .     S
C1327  H1359   1.114   .     S
C1327  C1328   1.520   .     S
C1327  H1360   1.115   .     S
C1327  O1390   1.413   .     S
C1328  H1363   1.111   .     S
C1328  H1361   1.110   .     S
C1328  H1578   1.111   1_455 S
C1329  H1365   1.111   .     S
C1329  O1391   1.416   .     S
C1329  H1366   1.115   .     S
C1329  C1331   1.521   .     S
C1330  C1335   1.425   .     A
C1330  C1334   1.421   .     A
C1331  H1367   1.111   .     S
C1331  H1368   1.111   .     S
C1331  H1369   1.111   .     S
C1332  C1333   1.520   .     S
C1332  O1393   1.412   .     S
C1332  H1371   1.115   .     S
C1332  H1370   1.114   .     S
C1333  H1373   1.111   .     S
C1333  H1372   1.110   .     S
C1333  H1374   1.111   .     S
C1334  C366    1.415   1_556 S
C1335  C364    1.417   1_556 S
C1336  C1337   1.424   .     A
C1337  C1338   1.402   .     A
C1337  O1391   1.386   .     S
C1338  O1386   1.386   .     S
H1342  C1522   1.088   1_455 S
H1353  C1415   1.086   .     S
H1358  C354    1.111   1_556 S
H1362  C1436   1.111   .     S
O1381  Zn1404  1.926   .     S
O1381  Zn1401  1.954   .     S
O1381  Zn1402  1.936   .     S
O1381  Zn1403  1.933   .     S
O1382  Zn1402  1.916   .     S
O1383  Zn1404  1.925   .     S
O1384  Zn1403  1.918   .     S
O1385  Zn1401  1.910   .     S
O1388  C1634   1.400   .     S
O1388  C1647   1.414   .     S
O1392  Zn1401  1.934   .     S
O1394  Zn1404  1.939   .     S
O1395  Zn1402  1.922   .     S
O1396  Zn1403  1.931   .     S
O1397  Zn1404  1.927   .     S
O1398  Zn1401  1.920   .     S
O1399  Zn1402  1.943   .     S
O1400  Zn1403  1.936   .     S
C1405  C1415   1.434   .     S
C1405  O1503   1.266   .     A
C1405  O1505   1.266   .     A
C1406  C1443   1.422   .     A
C1406  O1501   1.383   .     S
C1406  C1407   1.395   .     A
C1407  F1448   1.359   .     S
C1407  C437    1.401   1_556 S
C1408  O1506   1.277   .     A
C1408  O1504   1.279   .     A
C1408  C1414   1.452   .     S
C1409  C1410   1.422   .     A
C1409  C1411   1.412   .     A
C1410  C1413   1.409   .     A
C1410  C1444   1.426   .     A
C1411  C1412   1.393   .     A
C1411  F1447   1.358   .     S
C1412  C1424   1.394   .     A
C1412  H1483   1.083   .     S
C1413  C1424   1.392   .     A
C1413  H1472   1.079   .     S
C1414  C1523   1.333   .     S
C1414  H1558   1.088   .     S
C1416  O1498   1.383   .     S
C1416  C1425   1.404   .     A
C1416  C1423   1.410   .     A
C1417  C1420   1.460   .     S
C1417  C1742   1.351   .     S
C1417  O1819   1.389   .     S
C1418  C1419   1.444   .     S
C1419  O1500   1.270   .     A
C1419  O1507   1.269   .     A
C1420  O1508   1.272   .     A
C1420  O1502   1.264   .     A
C1421  O1492   1.277   .     A
C1421  C1424   1.455   .     S
C1421  O1490   1.274   .     A
C1422  C1423   1.485   .     S
C1422  O1493   1.289   .     A
C1422  O1491   1.284   .     A
C1423  C1427   1.402   .     A
C1425  C1442   1.417   .     A
C1425  O1497   1.383   .     S
C1426  H1485   1.115   .     S
C1426  O1494   1.414   .     S
C1426  H1484   1.110   .     S
C1427  F1449   1.359   .     S
C1427  C1438   1.415   .     A
C1428  H1487   1.109   .     S
C1428  H1486   1.110   .     S
C1428  H1488   1.111   .     S
C1428  C1534   1.521   .     S
C1429  H1452   1.113   .     S
C1429  C1754   1.521   .     S
C1429  H1775   1.115   .     S
C1429  O1819   1.412   .     S
C1430  H1454   1.111   .     S
C1430  H1453   1.111   .     S
C1430  H1455   1.111   .     S
C1431  H1456   1.114   .     S
C1431  H1457   1.112   .     S
C1432  H1460   1.111   .     S
C1432  H1458   1.110   .     S
C1432  C1755   1.520   .     S
C1432  H1783   1.110   .     S
C1433  O1497   1.413   .     S
C1433  H1462   1.114   .     S
C1433  C462    1.521   1_556 S
C1433  H491    1.115   1_556 S
C1434  H1464   1.111   .     S
C1434  H1789   1.111   .     S
C1435  H1467   1.114   .     S
C1435  C1436   1.520   .     S
C1435  H1468   1.115   .     S
C1435  O1498   1.413   .     S
C1436  H1471   1.111   .     S
C1436  H1469   1.110   .     S
C1437  H1473   1.111   .     S
C1437  O1499   1.416   .     S
C1437  H1474   1.115   .     S
C1437  C1439   1.521   .     S
C1438  C1443   1.425   .     A
C1438  C1442   1.421   .     A
C1439  H1475   1.111   .     S
C1439  H1476   1.111   .     S
C1439  H1477   1.111   .     S
C1440  C1441   1.520   .     S
C1440  O1501   1.412   .     S
C1440  H1479   1.115   .     S
C1440  H1478   1.114   .     S
C1441  H1481   1.111   .     S
C1441  H1480   1.110   .     S
C1441  H1482   1.111   .     S
C1442  C474    1.415   1_556 S
C1443  C472    1.417   1_556 S
C1444  C1445   1.424   .     A
C1445  C1446   1.402   .     A
C1445  O1499   1.386   .     S
C1446  O1494   1.386   .     S
H1461  C1523   1.086   .     S
H1466  C462    1.111   1_556 S
H1470  C1544   1.111   .     S
O1489  Zn1512  1.926   .     S
O1489  Zn1509  1.954   .     S
O1489  Zn1510  1.936   .     S
O1489  Zn1511  1.933   .     S
O1490  Zn1510  1.916   .     S
O1491  Zn1512  1.925   .     S
O1492  Zn1511  1.918   .     S
O1493  Zn1509  1.910   .     S
O1496  C1742   1.400   .     S
O1496  C1755   1.414   .     S
O1500  Zn1509  1.934   .     S
O1502  Zn1512  1.939   .     S
O1503  Zn1510  1.922   .     S
O1504  Zn1511  1.931   .     S
O1505  Zn1512  1.927   .     S
O1506  Zn1509  1.920   .     S
O1507  Zn1510  1.943   .     S
O1508  Zn1511  1.936   .     S
C1513  C1523   1.434   .     S
C1513  O1611   1.266   .     A
C1513  O1613   1.266   .     A
C1514  C1551   1.422   .     A
C1514  O1609   1.383   .     S
C1514  C1515   1.395   .     A
C1515  F1556   1.359   .     S
C1515  C545    1.401   1_556 S
C1516  O1614   1.277   .     A
C1516  O1612   1.279   .     A
C1516  C1522   1.452   .     S
C1517  C1518   1.422   .     A
C1517  C1519   1.412   .     A
C1518  C1521   1.409   .     A
C1518  C1552   1.426   .     A
C1519  C1520   1.393   .     A
C1519  F1555   1.358   .     S
C1520  C1532   1.394   .     A
C1520  H1591   1.083   .     S
C1521  C1532   1.392   .     A
C1521  H1580   1.079   .     S
C1522  C1307   1.333   1_655 S
C1522  H1342   1.088   1_655 S
C1524  O1606   1.383   .     S
C1524  C1533   1.404   .     A
C1524  C1531   1.410   .     A
C1525  C1528   1.460   .     S
C1525  C1850   1.351   .     S
C1525  O1927   1.389   .     S
C1526  C1527   1.444   .     S
C1527  O1608   1.270   .     A
C1527  O1615   1.269   .     A
C1528  O1616   1.272   .     A
C1528  O1610   1.264   .     A
C1529  O1600   1.277   .     A
C1529  C1532   1.455   .     S
C1529  O1598   1.274   .     A
C1530  C1531   1.485   .     S
C1530  O1601   1.289   .     A
C1530  O1599   1.284   .     A
C1531  C1535   1.402   .     A
C1533  C1550   1.417   .     A
C1533  O1605   1.383   .     S
C1534  H1593   1.115   .     S
C1534  O1602   1.414   .     S
C1534  H1592   1.110   .     S
C1535  F1557   1.359   .     S
C1535  C1546   1.415   .     A
C1536  H1595   1.109   .     S
C1536  H1594   1.110   .     S
C1536  H1596   1.111   .     S
C1536  C1318   1.521   1_655 S
C1537  H1560   1.113   .     S
C1537  C1862   1.521   .     S
C1537  H1883   1.115   .     S
C1537  O1927   1.412   .     S
C1538  H1562   1.111   .     S
C1538  H1561   1.111   .     S
C1538  H1563   1.111   .     S
C1539  H1564   1.114   .     S
C1539  H1565   1.112   .     S
C1540  H1568   1.111   .     S
C1540  H1566   1.110   .     S
C1540  C1863   1.520   .     S
C1540  H1891   1.110   .     S
C1541  O1605   1.413   .     S
C1541  H1570   1.114   .     S
C1541  C570    1.521   1_556 S
C1541  H599    1.115   1_556 S
C1542  H1572   1.111   .     S
C1542  H1897   1.111   .     S
C1543  H1575   1.114   .     S
C1543  C1544   1.520   .     S
C1543  H1576   1.115   .     S
C1543  O1606   1.413   .     S
C1544  H1579   1.111   .     S
C1544  H1577   1.110   .     S
C1545  H1581   1.111   .     S
C1545  O1607   1.416   .     S
C1545  H1582   1.115   .     S
C1545  C1547   1.521   .     S
C1546  C1551   1.425   .     A
C1546  C1550   1.421   .     A
C1547  H1583   1.111   .     S
C1547  H1584   1.111   .     S
C1547  H1585   1.111   .     S
C1548  C1549   1.520   .     S
C1548  O1609   1.412   .     S
C1548  H1587   1.115   .     S
C1548  H1586   1.114   .     S
C1549  H1589   1.111   .     S
C1549  H1588   1.110   .     S
C1549  H1590   1.111   .     S
C1550  C582    1.415   1_556 S
C1551  C580    1.417   1_556 S
C1552  C1553   1.424   .     A
C1553  C1554   1.402   .     A
C1553  O1607   1.386   .     S
C1554  O1602   1.386   .     S
H1569  C1307   1.086   1_655 S
H1574  C570    1.111   1_556 S
H1578  C1328   1.111   1_655 S
O1597  Zn1620  1.926   .     S
O1597  Zn1617  1.954   .     S
O1597  Zn1618  1.936   .     S
O1597  Zn1619  1.933   .     S
O1598  Zn1618  1.916   .     S
O1599  Zn1620  1.925   .     S
O1600  Zn1619  1.918   .     S
O1601  Zn1617  1.910   .     S
O1604  C1850   1.400   .     S
O1604  C1863   1.414   .     S
O1608  Zn1617  1.934   .     S
O1610  Zn1620  1.939   .     S
O1611  Zn1618  1.922   .     S
O1612  Zn1619  1.931   .     S
O1613  Zn1620  1.927   .     S
O1614  Zn1617  1.920   .     S
O1615  Zn1618  1.943   .     S
O1616  Zn1619  1.936   .     S
C1621  C1631   1.434   .     S
C1621  O1719   1.266   .     A
C1621  O1721   1.266   .     A
C1622  C1659   1.422   .     A
C1622  O1717   1.383   .     S
C1622  C1623   1.395   .     A
C1623  F1664   1.359   .     S
C1623  C653    1.401   1_556 S
C1624  O1722   1.277   .     A
C1624  O1720   1.279   .     A
C1624  C1630   1.452   .     S
C1625  C1626   1.422   .     A
C1625  C1627   1.412   .     A
C1626  C1629   1.409   .     A
C1626  C1660   1.426   .     A
C1627  C1628   1.393   .     A
C1627  F1663   1.358   .     S
C1628  C1640   1.394   .     A
C1628  H1699   1.083   .     S
C1629  C1640   1.392   .     A
C1629  H1688   1.079   .     S
C1630  C1739   1.333   .     S
C1630  H1774   1.088   .     S
C1631  C1846   1.333   1_455 S
C1631  H1893   1.086   1_455 S
C1632  O1714   1.383   .     S
C1632  C1641   1.404   .     A
C1632  C1639   1.410   .     A
C1633  C1636   1.460   .     S
C1633  C986    1.351   1_565 S
C1633  O1063   1.389   1_565 S
C1634  C1635   1.444   .     S
C1635  O1716   1.270   .     A
C1635  O1723   1.269   .     A
C1636  O1724   1.272   .     A
C1636  O1718   1.264   .     A
C1637  O1708   1.277   .     A
C1637  C1640   1.455   .     S
C1637  O1706   1.274   .     A
C1638  C1639   1.485   .     S
C1638  O1709   1.289   .     A
C1638  O1707   1.284   .     A
C1639  C1643   1.402   .     A
C1641  C1658   1.417   .     A
C1641  O1713   1.383   .     S
C1642  H1701   1.115   .     S
C1642  O1710   1.414   .     S
C1642  H1700   1.110   .     S
C1642  C1860   1.521   1_455 S
C1643  F1665   1.359   .     S
C1643  C1654   1.415   .     A
C1644  H1703   1.109   .     S
C1644  H1702   1.110   .     S
C1644  H1704   1.111   .     S
C1644  C1750   1.521   .     S
C1645  H1668   1.113   .     S
C1645  C998    1.521   1_565 S
C1645  H1019   1.115   1_565 S
C1645  O1063   1.412   1_565 S
C1646  H1670   1.111   .     S
C1646  H1669   1.111   .     S
C1646  H1671   1.111   .     S
C1647  H1672   1.114   .     S
C1647  H1673   1.112   .     S
C1648  H1676   1.111   .     S
C1648  H1674   1.110   .     S
C1648  C999    1.520   1_565 S
C1648  H1027   1.110   1_565 S
C1649  O1713   1.413   .     S
C1649  H1678   1.114   .     S
C1649  C678    1.521   1_556 S
C1649  H707    1.115   1_556 S
C1650  H1680   1.111   .     S
C1650  H1033   1.111   1_565 S
C1651  H1683   1.114   .     S
C1651  C1652   1.520   .     S
C1651  H1684   1.115   .     S
C1651  O1714   1.413   .     S
C1652  H1687   1.111   .     S
C1652  H1685   1.110   .     S
C1652  H1902   1.111   1_455 S
C1653  H1689   1.111   .     S
C1653  O1715   1.416   .     S
C1653  H1690   1.115   .     S
C1653  C1655   1.521   .     S
C1654  C1659   1.425   .     A
C1654  C1658   1.421   .     A
C1655  H1691   1.111   .     S
C1655  H1692   1.111   .     S
C1655  H1693   1.111   .     S
C1656  C1657   1.520   .     S
C1656  O1717   1.412   .     S
C1656  H1695   1.115   .     S
C1656  H1694   1.114   .     S
C1657  H1697   1.111   .     S
C1657  H1696   1.110   .     S
C1657  H1698   1.111   .     S
C1658  C690    1.415   1_556 S
C1659  C688    1.417   1_556 S
C1660  C1661   1.424   .     A
C1661  C1662   1.402   .     A
C1661  O1715   1.386   .     S
C1662  O1710   1.386   .     S
H1666  C1846   1.088   1_455 S
H1677  C1739   1.086   .     S
H1682  C678    1.111   1_556 S
H1686  C1760   1.111   .     S
O1705  Zn1728  1.926   .     S
O1705  Zn1725  1.954   .     S
O1705  Zn1726  1.936   .     S
O1705  Zn1727  1.933   .     S
O1706  Zn1726  1.916   .     S
O1707  Zn1728  1.925   .     S
O1708  Zn1727  1.918   .     S
O1709  Zn1725  1.910   .     S
O1712  C986    1.400   1_565 S
O1712  C999    1.414   1_565 S
O1716  Zn1725  1.934   .     S
O1718  Zn1728  1.939   .     S
O1719  Zn1726  1.922   .     S
O1720  Zn1727  1.931   .     S
O1721  Zn1728  1.927   .     S
O1722  Zn1725  1.920   .     S
O1723  Zn1726  1.943   .     S
O1724  Zn1727  1.936   .     S
C1729  C1739   1.434   .     S
C1729  O1827   1.266   .     A
C1729  O1829   1.266   .     A
C1730  C1767   1.422   .     A
C1730  O1825   1.383   .     S
C1730  C1731   1.395   .     A
C1731  F1772   1.359   .     S
C1731  C761    1.401   1_556 S
C1732  O1830   1.277   .     A
C1732  O1828   1.279   .     A
C1732  C1738   1.452   .     S
C1733  C1734   1.422   .     A
C1733  C1735   1.412   .     A
C1734  C1737   1.409   .     A
C1734  C1768   1.426   .     A
C1735  C1736   1.393   .     A
C1735  F1771   1.358   .     S
C1736  C1748   1.394   .     A
C1736  H1807   1.083   .     S
C1737  C1748   1.392   .     A
C1737  H1796   1.079   .     S
C1738  C1847   1.333   .     S
C1738  H1882   1.088   .     S
C1740  O1822   1.383   .     S
C1740  C1749   1.404   .     A
C1740  C1747   1.410   .     A
C1741  C1744   1.460   .     S
C1741  C1094   1.351   1_565 S
C1741  O1171   1.389   1_565 S
C1742  C1743   1.444   .     S
C1743  O1824   1.270   .     A
C1743  O1831   1.269   .     A
C1744  O1832   1.272   .     A
C1744  O1826   1.264   .     A
C1745  O1816   1.277   .     A
C1745  C1748   1.455   .     S
C1745  O1814   1.274   .     A
C1746  C1747   1.485   .     S
C1746  O1817   1.289   .     A
C1746  O1815   1.284   .     A
C1747  C1751   1.402   .     A
C1749  C1766   1.417   .     A
C1749  O1821   1.383   .     S
C1750  H1809   1.115   .     S
C1750  O1818   1.414   .     S
C1750  H1808   1.110   .     S
C1751  F1773   1.359   .     S
C1751  C1762   1.415   .     A
C1752  H1811   1.109   .     S
C1752  H1810   1.110   .     S
C1752  H1812   1.111   .     S
C1752  C1858   1.521   .     S
C1753  H1776   1.113   .     S
C1753  C1106   1.521   1_565 S
C1753  H1127   1.115   1_565 S
C1753  O1171   1.412   1_565 S
C1754  H1778   1.111   .     S
C1754  H1777   1.111   .     S
C1754  H1779   1.111   .     S
C1755  H1780   1.114   .     S
C1755  H1781   1.112   .     S
C1756  H1784   1.111   .     S
C1756  H1782   1.110   .     S
C1756  C1107   1.520   1_565 S
C1756  H1135   1.110   1_565 S
C1757  O1821   1.413   .     S
C1757  H1786   1.114   .     S
C1757  C786    1.521   1_556 S
C1757  H815    1.115   1_556 S
C1758  H1788   1.111   .     S
C1758  H1141   1.111   1_565 S
C1759  H1791   1.114   .     S
C1759  C1760   1.520   .     S
C1759  H1792   1.115   .     S
C1759  O1822   1.413   .     S
C1760  H1795   1.111   .     S
C1760  H1793   1.110   .     S
C1761  H1797   1.111   .     S
C1761  O1823   1.416   .     S
C1761  H1798   1.115   .     S
C1761  C1763   1.521   .     S
C1762  C1767   1.425   .     A
C1762  C1766   1.421   .     A
C1763  H1799   1.111   .     S
C1763  H1800   1.111   .     S
C1763  H1801   1.111   .     S
C1764  C1765   1.520   .     S
C1764  O1825   1.412   .     S
C1764  H1803   1.115   .     S
C1764  H1802   1.114   .     S
C1765  H1805   1.111   .     S
C1765  H1804   1.110   .     S
C1765  H1806   1.111   .     S
C1766  C798    1.415   1_556 S
C1767  C796    1.417   1_556 S
C1768  C1769   1.424   .     A
C1769  C1770   1.402   .     A
C1769  O1823   1.386   .     S
C1770  O1818   1.386   .     S
H1785  C1847   1.086   .     S
H1790  C786    1.111   1_556 S
H1794  C1868   1.111   .     S
O1813  Zn1836  1.926   .     S
O1813  Zn1833  1.954   .     S
O1813  Zn1834  1.936   .     S
O1813  Zn1835  1.933   .     S
O1814  Zn1834  1.916   .     S
O1815  Zn1836  1.925   .     S
O1816  Zn1835  1.918   .     S
O1817  Zn1833  1.910   .     S
O1820  C1094   1.400   1_565 S
O1820  C1107   1.414   1_565 S
O1824  Zn1833  1.934   .     S
O1826  Zn1836  1.939   .     S
O1827  Zn1834  1.922   .     S
O1828  Zn1835  1.931   .     S
O1829  Zn1836  1.927   .     S
O1830  Zn1833  1.920   .     S
O1831  Zn1834  1.943   .     S
O1832  Zn1835  1.936   .     S
C1837  C1847   1.434   .     S
C1837  O1935   1.266   .     A
C1837  O1937   1.266   .     A
C1838  C1875   1.422   .     A
C1838  O1933   1.383   .     S
C1838  C1839   1.395   .     A
C1839  F1880   1.359   .     S
C1839  C869    1.401   1_556 S
C1840  O1938   1.277   .     A
C1840  O1936   1.279   .     A
C1840  C1846   1.452   .     S
C1841  C1842   1.422   .     A
C1841  C1843   1.412   .     A
C1842  C1845   1.409   .     A
C1842  C1876   1.426   .     A
C1843  C1844   1.393   .     A
C1843  F1879   1.358   .     S
C1844  C1856   1.394   .     A
C1844  H1915   1.083   .     S
C1845  C1856   1.392   .     A
C1845  H1904   1.079   .     S
C1846  C1631   1.333   1_655 S
C1846  H1666   1.088   1_655 S
C1848  O1930   1.383   .     S
C1848  C1857   1.404   .     A
C1848  C1855   1.410   .     A
C1849  C1852   1.460   .     S
C1849  C1202   1.351   1_565 S
C1849  O1279   1.389   1_565 S
C1850  C1851   1.444   .     S
C1851  O1932   1.270   .     A
C1851  O1939   1.269   .     A
C1852  O1940   1.272   .     A
C1852  O1934   1.264   .     A
C1853  O1924   1.277   .     A
C1853  C1856   1.455   .     S
C1853  O1922   1.274   .     A
C1854  C1855   1.485   .     S
C1854  O1925   1.289   .     A
C1854  O1923   1.284   .     A
C1855  C1859   1.402   .     A
C1857  C1874   1.417   .     A
C1857  O1929   1.383   .     S
C1858  H1917   1.115   .     S
C1858  O1926   1.414   .     S
C1858  H1916   1.110   .     S
C1859  F1881   1.359   .     S
C1859  C1870   1.415   .     A
C1860  H1919   1.109   .     S
C1860  H1918   1.110   .     S
C1860  H1920   1.111   .     S
C1860  C1642   1.521   1_655 S
C1861  H1884   1.113   .     S
C1861  C1214   1.521   1_565 S
C1861  H1235   1.115   1_565 S
C1861  O1279   1.412   1_565 S
C1862  H1886   1.111   .     S
C1862  H1885   1.111   .     S
C1862  H1887   1.111   .     S
C1863  H1888   1.114   .     S
C1863  H1889   1.112   .     S
C1864  H1892   1.111   .     S
C1864  H1890   1.110   .     S
C1864  C1215   1.520   1_565 S
C1864  H1243   1.110   1_565 S
C1865  O1929   1.413   .     S
C1865  H1894   1.114   .     S
C1865  C894    1.521   1_556 S
C1865  H923    1.115   1_556 S
C1866  H1896   1.111   .     S
C1866  H1249   1.111   1_565 S
C1867  H1899   1.114   .     S
C1867  C1868   1.520   .     S
C1867  H1900   1.115   .     S
C1867  O1930   1.413   .     S
C1868  H1903   1.111   .     S
C1868  H1901   1.110   .     S
C1869  H1905   1.111   .     S
C1869  O1931   1.416   .     S
C1869  H1906   1.115   .     S
C1869  C1871   1.521   .     S
C1870  C1875   1.425   .     A
C1870  C1874   1.421   .     A
C1871  H1907   1.111   .     S
C1871  H1908   1.111   .     S
C1871  H1909   1.111   .     S
C1872  C1873   1.520   .     S
C1872  O1933   1.412   .     S
C1872  H1911   1.115   .     S
C1872  H1910   1.114   .     S
C1873  H1913   1.111   .     S
C1873  H1912   1.110   .     S
C1873  H1914   1.111   .     S
C1874  C906    1.415   1_556 S
C1875  C904    1.417   1_556 S
C1876  C1877   1.424   .     A
C1877  C1878   1.402   .     A
C1877  O1931   1.386   .     S
C1878  O1926   1.386   .     S
H1893  C1631   1.086   1_655 S
H1898  C894    1.111   1_556 S
H1902  C1652   1.111   1_655 S
O1921  Zn1944  1.926   .     S
O1921  Zn1941  1.954   .     S
O1921  Zn1942  1.936   .     S
O1921  Zn1943  1.933   .     S
O1922  Zn1942  1.916   .     S
O1923  Zn1944  1.925   .     S
O1924  Zn1943  1.918   .     S
O1925  Zn1941  1.910   .     S
O1928  C1202   1.400   1_565 S
O1928  C1215   1.414   1_565 S
O1932  Zn1941  1.934   .     S
O1934  Zn1944  1.939   .     S
O1935  Zn1942  1.922   .     S
O1936  Zn1943  1.931   .     S
O1937  Zn1944  1.927   .     S
O1938  Zn1941  1.920   .     S
O1939  Zn1942  1.943   .     S
O1940  Zn1943  1.936   .     S
