data_str_m3_o1_o10_pcu_sym.31
_audit_creation_date              2020-01-03
_audit_creation_method            'Materials Studio'
_symmetry_space_group_name_H-M    'P1'
_symmetry_Int_Tables_number       1
_symmetry_cell_setting            triclinic
loop_
_symmetry_equiv_pos_as_xyz
  x,y,z
_cell_length_a                    25.7762
_cell_length_b                    32.0209
_cell_length_c                    29.5950
_cell_angle_alpha                 90.0792
_cell_angle_beta                  98.6256
_cell_angle_gamma                 90.2358
loop_
_atom_site_label
_atom_site_type_symbol
_atom_site_fract_x
_atom_site_fract_y
_atom_site_fract_z
_atom_site_U_iso_or_equiv
_atom_site_adp_type
_atom_site_occupancy
C1     C     0.16663   0.08672   0.16662   0.00000  Uiso   1.00
C2     C     0.19760   0.02161   0.20226   0.00000  Uiso   1.00
C3     C     0.16666   0.29073   0.16672   0.00000  Uiso   1.00
C4     C     0.16667   0.04260   0.16661   0.00000  Uiso   1.00
C5     C     0.20042   0.19178   0.02839   0.00000  Uiso   1.00
C6     C     0.13291   0.14155   0.30494   0.00000  Uiso   1.00
C7     C     0.20044   0.19173   0.31381   0.00000  Uiso   1.00
C8     C     0.13290   0.14160   0.01952   0.00000  Uiso   1.00
C9     C     0.16671   0.24662   0.16671   0.00000  Uiso   1.00
C10    C     0.06706   0.16665   0.15470   0.00000  Uiso   1.00
C11    C     0.26628   0.16668   0.17863   0.00000  Uiso   1.00
C12    C     0.01201   0.16666   0.14828   0.00000  Uiso   1.00
C13    C     0.32133   0.16667   0.18505   0.00000  Uiso   1.00
C14    C     0.13573   0.02126   0.13103   0.00000  Uiso   1.00
C15    C     0.19761   0.31208   0.20230   0.00000  Uiso   1.00
C16    C     0.13573   0.31172   0.13108   0.00000  Uiso   1.00
F17    F     0.10458   0.04187   0.09723   0.00000  Uiso   1.00
F18    F     0.22875   0.29147   0.23610   0.00000  Uiso   1.00
F19    F     0.10468   0.29075   0.09725   0.00000  Uiso   1.00
F20    F     0.22866   0.04259   0.23608   0.00000  Uiso   1.00
F21    F     0.23420   0.21705   0.05543   0.00000  Uiso   1.00
F22    F     0.09913   0.11629   0.27790   0.00000  Uiso   1.00
F23    F     0.23441   0.21680   0.29567   0.00000  Uiso   1.00
F24    F     0.09892   0.11653   0.03766   0.00000  Uiso   1.00
H25    H     0.32473   0.16668   0.11339   0.00000  Uiso   1.00
H26    H     0.00861   0.16665   0.21994   0.00000  Uiso   1.00
N27    N     0.16665   0.16666   0.28573   0.00000  Uiso   1.00
N28    N     0.16668   0.16668   0.04760   0.00000  Uiso   1.00
O29    O     0.16666   0.10558   0.20487   0.00000  Uiso   1.00
O30    O     0.16667   0.22775   0.12846   0.00000  Uiso   1.00
O31    O     0.16666   0.10559   0.12843   0.00000  Uiso   1.00
O32    O     0.16667   0.22774   0.20490   0.00000  Uiso   1.00
O33    O     0.09058   0.16666   0.19595   0.00000  Uiso   1.00
O34    O     0.24275   0.16667   0.13739   0.00000  Uiso   1.00
O35    O     0.09058   0.16667   0.11950   0.00000  Uiso   1.00
O36    O     0.24275   0.16666   0.21383   0.00000  Uiso   1.00
Zn37   Zn    0.16667   0.16666   0.21771   0.00000  Uiso   1.00
Zn38   Zn    0.16667   0.16667   0.11563   0.00000  Uiso   1.00
C39    C     0.49996   0.08672   0.16662   0.00000  Uiso   1.00
C40    C     0.53093   0.02161   0.20226   0.00000  Uiso   1.00
C41    C     0.50000   0.29073   0.16672   0.00000  Uiso   1.00
C42    C     0.50001   0.04260   0.16661   0.00000  Uiso   1.00
C43    C     0.53375   0.19178   0.02839   0.00000  Uiso   1.00
C44    C     0.46625   0.14155   0.30494   0.00000  Uiso   1.00
C45    C     0.53377   0.19173   0.31381   0.00000  Uiso   1.00
C46    C     0.46623   0.14160   0.01952   0.00000  Uiso   1.00
C47    C     0.50004   0.24662   0.16671   0.00000  Uiso   1.00
C48    C     0.40039   0.16665   0.15470   0.00000  Uiso   1.00
C49    C     0.59961   0.16668   0.17863   0.00000  Uiso   1.00
C50    C     0.34534   0.16666   0.14828   0.00000  Uiso   1.00
C51    C     0.65466   0.16667   0.18505   0.00000  Uiso   1.00
C52    C     0.46906   0.02126   0.13103   0.00000  Uiso   1.00
C53    C     0.53094   0.31208   0.20230   0.00000  Uiso   1.00
C54    C     0.46907   0.31172   0.13108   0.00000  Uiso   1.00
F55    F     0.43791   0.04187   0.09723   0.00000  Uiso   1.00
F56    F     0.56209   0.29147   0.23610   0.00000  Uiso   1.00
F57    F     0.43801   0.29075   0.09725   0.00000  Uiso   1.00
F58    F     0.56199   0.04259   0.23608   0.00000  Uiso   1.00
F59    F     0.56754   0.21705   0.05543   0.00000  Uiso   1.00
F60    F     0.43246   0.11629   0.27790   0.00000  Uiso   1.00
F61    F     0.56774   0.21680   0.29567   0.00000  Uiso   1.00
F62    F     0.43226   0.11653   0.03766   0.00000  Uiso   1.00
H63    H     0.65806   0.16668   0.11339   0.00000  Uiso   1.00
H64    H     0.34194   0.16665   0.21994   0.00000  Uiso   1.00
N65    N     0.49999   0.16666   0.28573   0.00000  Uiso   1.00
N66    N     0.50001   0.16668   0.04760   0.00000  Uiso   1.00
O67    O     0.50000   0.10558   0.20487   0.00000  Uiso   1.00
O68    O     0.50000   0.22775   0.12846   0.00000  Uiso   1.00
O69    O     0.50000   0.10559   0.12843   0.00000  Uiso   1.00
O70    O     0.50000   0.22774   0.20490   0.00000  Uiso   1.00
O71    O     0.42392   0.16666   0.19595   0.00000  Uiso   1.00
O72    O     0.57608   0.16667   0.13739   0.00000  Uiso   1.00
O73    O     0.42392   0.16667   0.11950   0.00000  Uiso   1.00
O74    O     0.57608   0.16666   0.21383   0.00000  Uiso   1.00
Zn75   Zn    0.50000   0.16666   0.21771   0.00000  Uiso   1.00
Zn76   Zn    0.50000   0.16667   0.11563   0.00000  Uiso   1.00
C77    C     0.83329   0.08672   0.16662   0.00000  Uiso   1.00
C78    C     0.86427   0.02161   0.20226   0.00000  Uiso   1.00
C79    C     0.83333   0.29073   0.16672   0.00000  Uiso   1.00
C80    C     0.83334   0.04260   0.16661   0.00000  Uiso   1.00
C81    C     0.86709   0.19178   0.02839   0.00000  Uiso   1.00
C82    C     0.79958   0.14155   0.30494   0.00000  Uiso   1.00
C83    C     0.86711   0.19173   0.31381   0.00000  Uiso   1.00
C84    C     0.79956   0.14160   0.01952   0.00000  Uiso   1.00
C85    C     0.83337   0.24662   0.16671   0.00000  Uiso   1.00
C86    C     0.73372   0.16665   0.15470   0.00000  Uiso   1.00
C87    C     0.93295   0.16668   0.17863   0.00000  Uiso   1.00
C88    C     0.67867   0.16666   0.14828   0.00000  Uiso   1.00
C89    C     0.98799   0.16667   0.18505   0.00000  Uiso   1.00
C90    C     0.80239   0.02126   0.13103   0.00000  Uiso   1.00
C91    C     0.86427   0.31208   0.20230   0.00000  Uiso   1.00
C92    C     0.80240   0.31172   0.13108   0.00000  Uiso   1.00
F93    F     0.77125   0.04187   0.09723   0.00000  Uiso   1.00
F94    F     0.89542   0.29147   0.23610   0.00000  Uiso   1.00
F95    F     0.77134   0.29075   0.09725   0.00000  Uiso   1.00
F96    F     0.89532   0.04259   0.23608   0.00000  Uiso   1.00
F97    F     0.90087   0.21705   0.05543   0.00000  Uiso   1.00
F98    F     0.76580   0.11629   0.27790   0.00000  Uiso   1.00
F99    F     0.90108   0.21680   0.29567   0.00000  Uiso   1.00
F100   F     0.76559   0.11653   0.03766   0.00000  Uiso   1.00
H101   H     0.99139   0.16668   0.11339   0.00000  Uiso   1.00
H102   H     0.67527   0.16665   0.21994   0.00000  Uiso   1.00
N103   N     0.83332   0.16666   0.28573   0.00000  Uiso   1.00
N104   N     0.83335   0.16668   0.04760   0.00000  Uiso   1.00
O105   O     0.83333   0.10558   0.20487   0.00000  Uiso   1.00
O106   O     0.83334   0.22775   0.12846   0.00000  Uiso   1.00
O107   O     0.83333   0.10559   0.12843   0.00000  Uiso   1.00
O108   O     0.83334   0.22774   0.20490   0.00000  Uiso   1.00
O109   O     0.75725   0.16666   0.19595   0.00000  Uiso   1.00
O110   O     0.90942   0.16667   0.13739   0.00000  Uiso   1.00
O111   O     0.75725   0.16667   0.11950   0.00000  Uiso   1.00
O112   O     0.90942   0.16666   0.21383   0.00000  Uiso   1.00
Zn113  Zn    0.83333   0.16666   0.21771   0.00000  Uiso   1.00
Zn114  Zn    0.83333   0.16667   0.11563   0.00000  Uiso   1.00
C115   C     0.16663   0.42005   0.16662   0.00000  Uiso   1.00
C116   C     0.19760   0.35495   0.20226   0.00000  Uiso   1.00
C117   C     0.16666   0.62407   0.16672   0.00000  Uiso   1.00
C118   C     0.16667   0.37593   0.16661   0.00000  Uiso   1.00
C119   C     0.20042   0.52511   0.02839   0.00000  Uiso   1.00
C120   C     0.13291   0.47489   0.30494   0.00000  Uiso   1.00
C121   C     0.20044   0.52507   0.31381   0.00000  Uiso   1.00
C122   C     0.13290   0.47493   0.01952   0.00000  Uiso   1.00
C123   C     0.16671   0.57995   0.16671   0.00000  Uiso   1.00
C124   C     0.06706   0.49998   0.15470   0.00000  Uiso   1.00
C125   C     0.26628   0.50002   0.17863   0.00000  Uiso   1.00
C126   C     0.01201   0.50000   0.14828   0.00000  Uiso   1.00
C127   C     0.32133   0.50000   0.18505   0.00000  Uiso   1.00
C128   C     0.13573   0.35459   0.13103   0.00000  Uiso   1.00
C129   C     0.19761   0.64541   0.20230   0.00000  Uiso   1.00
C130   C     0.13573   0.64505   0.13108   0.00000  Uiso   1.00
F131   F     0.10458   0.37520   0.09723   0.00000  Uiso   1.00
F132   F     0.22875   0.62480   0.23610   0.00000  Uiso   1.00
F133   F     0.10468   0.62408   0.09725   0.00000  Uiso   1.00
F134   F     0.22866   0.37592   0.23608   0.00000  Uiso   1.00
F135   F     0.23420   0.55038   0.05543   0.00000  Uiso   1.00
F136   F     0.09913   0.44962   0.27790   0.00000  Uiso   1.00
F137   F     0.23441   0.55013   0.29567   0.00000  Uiso   1.00
F138   F     0.09892   0.44987   0.03766   0.00000  Uiso   1.00
H139   H     0.32473   0.50002   0.11339   0.00000  Uiso   1.00
H140   H     0.00861   0.49998   0.21994   0.00000  Uiso   1.00
N141   N     0.16665   0.49999   0.28573   0.00000  Uiso   1.00
N142   N     0.16668   0.50001   0.04760   0.00000  Uiso   1.00
O143   O     0.16666   0.43892   0.20487   0.00000  Uiso   1.00
O144   O     0.16667   0.56108   0.12846   0.00000  Uiso   1.00
O145   O     0.16666   0.43893   0.12843   0.00000  Uiso   1.00
O146   O     0.16667   0.56107   0.20490   0.00000  Uiso   1.00
O147   O     0.09058   0.50000   0.19595   0.00000  Uiso   1.00
O148   O     0.24275   0.50000   0.13739   0.00000  Uiso   1.00
O149   O     0.09058   0.50000   0.11950   0.00000  Uiso   1.00
O150   O     0.24275   0.50000   0.21383   0.00000  Uiso   1.00
Zn151  Zn    0.16667   0.49999   0.21771   0.00000  Uiso   1.00
Zn152  Zn    0.16667   0.50001   0.11563   0.00000  Uiso   1.00
C153   C     0.49996   0.42005   0.16662   0.00000  Uiso   1.00
C154   C     0.53093   0.35495   0.20226   0.00000  Uiso   1.00
C155   C     0.50000   0.62407   0.16672   0.00000  Uiso   1.00
C156   C     0.50001   0.37593   0.16661   0.00000  Uiso   1.00
C157   C     0.53375   0.52511   0.02839   0.00000  Uiso   1.00
C158   C     0.46625   0.47489   0.30494   0.00000  Uiso   1.00
C159   C     0.53377   0.52507   0.31381   0.00000  Uiso   1.00
C160   C     0.46623   0.47493   0.01952   0.00000  Uiso   1.00
C161   C     0.50004   0.57995   0.16671   0.00000  Uiso   1.00
C162   C     0.40039   0.49998   0.15470   0.00000  Uiso   1.00
C163   C     0.59961   0.50002   0.17863   0.00000  Uiso   1.00
C164   C     0.34534   0.50000   0.14828   0.00000  Uiso   1.00
C165   C     0.65466   0.50000   0.18505   0.00000  Uiso   1.00
C166   C     0.46906   0.35459   0.13103   0.00000  Uiso   1.00
C167   C     0.53094   0.64541   0.20230   0.00000  Uiso   1.00
C168   C     0.46907   0.64505   0.13108   0.00000  Uiso   1.00
F169   F     0.43791   0.37520   0.09723   0.00000  Uiso   1.00
F170   F     0.56209   0.62480   0.23610   0.00000  Uiso   1.00
F171   F     0.43801   0.62408   0.09725   0.00000  Uiso   1.00
F172   F     0.56199   0.37592   0.23608   0.00000  Uiso   1.00
F173   F     0.56754   0.55038   0.05543   0.00000  Uiso   1.00
F174   F     0.43246   0.44962   0.27790   0.00000  Uiso   1.00
F175   F     0.56774   0.55013   0.29567   0.00000  Uiso   1.00
F176   F     0.43226   0.44987   0.03766   0.00000  Uiso   1.00
H177   H     0.65806   0.50002   0.11339   0.00000  Uiso   1.00
H178   H     0.34194   0.49998   0.21994   0.00000  Uiso   1.00
N179   N     0.49999   0.49999   0.28573   0.00000  Uiso   1.00
N180   N     0.50001   0.50001   0.04760   0.00000  Uiso   1.00
O181   O     0.50000   0.43892   0.20487   0.00000  Uiso   1.00
O182   O     0.50000   0.56108   0.12846   0.00000  Uiso   1.00
O183   O     0.50000   0.43893   0.12843   0.00000  Uiso   1.00
O184   O     0.50000   0.56107   0.20490   0.00000  Uiso   1.00
O185   O     0.42392   0.50000   0.19595   0.00000  Uiso   1.00
O186   O     0.57608   0.50000   0.13739   0.00000  Uiso   1.00
O187   O     0.42392   0.50000   0.11950   0.00000  Uiso   1.00
O188   O     0.57608   0.50000   0.21383   0.00000  Uiso   1.00
Zn189  Zn    0.50000   0.49999   0.21771   0.00000  Uiso   1.00
Zn190  Zn    0.50000   0.50001   0.11563   0.00000  Uiso   1.00
C191   C     0.83329   0.42005   0.16662   0.00000  Uiso   1.00
C192   C     0.86427   0.35495   0.20226   0.00000  Uiso   1.00
C193   C     0.83333   0.62407   0.16672   0.00000  Uiso   1.00
C194   C     0.83334   0.37593   0.16661   0.00000  Uiso   1.00
C195   C     0.86709   0.52511   0.02839   0.00000  Uiso   1.00
C196   C     0.79958   0.47489   0.30494   0.00000  Uiso   1.00
C197   C     0.86711   0.52507   0.31381   0.00000  Uiso   1.00
C198   C     0.79956   0.47493   0.01952   0.00000  Uiso   1.00
C199   C     0.83337   0.57995   0.16671   0.00000  Uiso   1.00
C200   C     0.73372   0.49998   0.15470   0.00000  Uiso   1.00
C201   C     0.93295   0.50002   0.17863   0.00000  Uiso   1.00
C202   C     0.67867   0.50000   0.14828   0.00000  Uiso   1.00
C203   C     0.98799   0.50000   0.18505   0.00000  Uiso   1.00
C204   C     0.80239   0.35459   0.13103   0.00000  Uiso   1.00
C205   C     0.86427   0.64541   0.20230   0.00000  Uiso   1.00
C206   C     0.80240   0.64505   0.13108   0.00000  Uiso   1.00
F207   F     0.77125   0.37520   0.09723   0.00000  Uiso   1.00
F208   F     0.89542   0.62480   0.23610   0.00000  Uiso   1.00
F209   F     0.77134   0.62408   0.09725   0.00000  Uiso   1.00
F210   F     0.89532   0.37592   0.23608   0.00000  Uiso   1.00
F211   F     0.90087   0.55038   0.05543   0.00000  Uiso   1.00
F212   F     0.76580   0.44962   0.27790   0.00000  Uiso   1.00
F213   F     0.90108   0.55013   0.29567   0.00000  Uiso   1.00
F214   F     0.76559   0.44987   0.03766   0.00000  Uiso   1.00
H215   H     0.99139   0.50002   0.11339   0.00000  Uiso   1.00
H216   H     0.67527   0.49998   0.21994   0.00000  Uiso   1.00
N217   N     0.83332   0.49999   0.28573   0.00000  Uiso   1.00
N218   N     0.83335   0.50001   0.04760   0.00000  Uiso   1.00
O219   O     0.83333   0.43892   0.20487   0.00000  Uiso   1.00
O220   O     0.83334   0.56108   0.12846   0.00000  Uiso   1.00
O221   O     0.83333   0.43893   0.12843   0.00000  Uiso   1.00
O222   O     0.83334   0.56107   0.20490   0.00000  Uiso   1.00
O223   O     0.75725   0.50000   0.19595   0.00000  Uiso   1.00
O224   O     0.90942   0.50000   0.13739   0.00000  Uiso   1.00
O225   O     0.75725   0.50000   0.11950   0.00000  Uiso   1.00
O226   O     0.90942   0.50000   0.21383   0.00000  Uiso   1.00
Zn227  Zn    0.83333   0.49999   0.21771   0.00000  Uiso   1.00
Zn228  Zn    0.83333   0.50001   0.11563   0.00000  Uiso   1.00
C229   C     0.16663   0.75338   0.16662   0.00000  Uiso   1.00
C230   C     0.19760   0.68828   0.20226   0.00000  Uiso   1.00
C231   C     0.16666   0.95740   0.16672   0.00000  Uiso   1.00
C232   C     0.16667   0.70926   0.16661   0.00000  Uiso   1.00
C233   C     0.20042   0.85845   0.02839   0.00000  Uiso   1.00
C234   C     0.13291   0.80822   0.30494   0.00000  Uiso   1.00
C235   C     0.20044   0.85840   0.31381   0.00000  Uiso   1.00
C236   C     0.13290   0.80827   0.01952   0.00000  Uiso   1.00
C237   C     0.16671   0.91328   0.16671   0.00000  Uiso   1.00
C238   C     0.06706   0.83332   0.15470   0.00000  Uiso   1.00
C239   C     0.26628   0.83335   0.17863   0.00000  Uiso   1.00
C240   C     0.01201   0.83333   0.14828   0.00000  Uiso   1.00
C241   C     0.32133   0.83333   0.18505   0.00000  Uiso   1.00
C242   C     0.13573   0.68792   0.13103   0.00000  Uiso   1.00
C243   C     0.19761   0.97874   0.20230   0.00000  Uiso   1.00
C244   C     0.13573   0.97839   0.13108   0.00000  Uiso   1.00
F245   F     0.10458   0.70853   0.09723   0.00000  Uiso   1.00
F246   F     0.22875   0.95813   0.23610   0.00000  Uiso   1.00
F247   F     0.10468   0.95741   0.09725   0.00000  Uiso   1.00
F248   F     0.22866   0.70925   0.23608   0.00000  Uiso   1.00
F249   F     0.23420   0.88371   0.05543   0.00000  Uiso   1.00
F250   F     0.09913   0.78295   0.27790   0.00000  Uiso   1.00
F251   F     0.23441   0.88347   0.29567   0.00000  Uiso   1.00
F252   F     0.09892   0.78320   0.03766   0.00000  Uiso   1.00
H253   H     0.32473   0.83335   0.11339   0.00000  Uiso   1.00
H254   H     0.00861   0.83332   0.21994   0.00000  Uiso   1.00
N255   N     0.16665   0.83332   0.28573   0.00000  Uiso   1.00
N256   N     0.16668   0.83334   0.04760   0.00000  Uiso   1.00
O257   O     0.16666   0.77225   0.20487   0.00000  Uiso   1.00
O258   O     0.16667   0.89442   0.12846   0.00000  Uiso   1.00
O259   O     0.16666   0.77226   0.12843   0.00000  Uiso   1.00
O260   O     0.16667   0.89441   0.20490   0.00000  Uiso   1.00
O261   O     0.09058   0.83333   0.19595   0.00000  Uiso   1.00
O262   O     0.24275   0.83334   0.13739   0.00000  Uiso   1.00
O263   O     0.09058   0.83334   0.11950   0.00000  Uiso   1.00
O264   O     0.24275   0.83333   0.21383   0.00000  Uiso   1.00
Zn265  Zn    0.16667   0.83333   0.21771   0.00000  Uiso   1.00
Zn266  Zn    0.16667   0.83334   0.11563   0.00000  Uiso   1.00
C267   C     0.49996   0.75338   0.16662   0.00000  Uiso   1.00
C268   C     0.53093   0.68828   0.20226   0.00000  Uiso   1.00
C269   C     0.50000   0.95740   0.16672   0.00000  Uiso   1.00
C270   C     0.50001   0.70926   0.16661   0.00000  Uiso   1.00
C271   C     0.53375   0.85845   0.02839   0.00000  Uiso   1.00
C272   C     0.46625   0.80822   0.30494   0.00000  Uiso   1.00
C273   C     0.53377   0.85840   0.31381   0.00000  Uiso   1.00
C274   C     0.46623   0.80827   0.01952   0.00000  Uiso   1.00
C275   C     0.50004   0.91328   0.16671   0.00000  Uiso   1.00
C276   C     0.40039   0.83332   0.15470   0.00000  Uiso   1.00
C277   C     0.59961   0.83335   0.17863   0.00000  Uiso   1.00
C278   C     0.34534   0.83333   0.14828   0.00000  Uiso   1.00
C279   C     0.65466   0.83333   0.18505   0.00000  Uiso   1.00
C280   C     0.46906   0.68792   0.13103   0.00000  Uiso   1.00
C281   C     0.53094   0.97874   0.20230   0.00000  Uiso   1.00
C282   C     0.46907   0.97839   0.13108   0.00000  Uiso   1.00
F283   F     0.43791   0.70853   0.09723   0.00000  Uiso   1.00
F284   F     0.56209   0.95813   0.23610   0.00000  Uiso   1.00
F285   F     0.43801   0.95741   0.09725   0.00000  Uiso   1.00
F286   F     0.56199   0.70925   0.23608   0.00000  Uiso   1.00
F287   F     0.56754   0.88371   0.05543   0.00000  Uiso   1.00
F288   F     0.43246   0.78295   0.27790   0.00000  Uiso   1.00
F289   F     0.56774   0.88347   0.29567   0.00000  Uiso   1.00
F290   F     0.43226   0.78320   0.03766   0.00000  Uiso   1.00
H291   H     0.65806   0.83335   0.11339   0.00000  Uiso   1.00
H292   H     0.34194   0.83332   0.21994   0.00000  Uiso   1.00
N293   N     0.49999   0.83332   0.28573   0.00000  Uiso   1.00
N294   N     0.50001   0.83334   0.04760   0.00000  Uiso   1.00
O295   O     0.50000   0.77225   0.20487   0.00000  Uiso   1.00
O296   O     0.50000   0.89442   0.12846   0.00000  Uiso   1.00
O297   O     0.50000   0.77226   0.12843   0.00000  Uiso   1.00
O298   O     0.50000   0.89441   0.20490   0.00000  Uiso   1.00
O299   O     0.42392   0.83333   0.19595   0.00000  Uiso   1.00
O300   O     0.57608   0.83334   0.13739   0.00000  Uiso   1.00
O301   O     0.42392   0.83334   0.11950   0.00000  Uiso   1.00
O302   O     0.57608   0.83333   0.21383   0.00000  Uiso   1.00
Zn303  Zn    0.50000   0.83333   0.21771   0.00000  Uiso   1.00
Zn304  Zn    0.50000   0.83334   0.11563   0.00000  Uiso   1.00
C305   C     0.83329   0.75338   0.16662   0.00000  Uiso   1.00
C306   C     0.86427   0.68828   0.20226   0.00000  Uiso   1.00
C307   C     0.83333   0.95740   0.16672   0.00000  Uiso   1.00
C308   C     0.83334   0.70926   0.16661   0.00000  Uiso   1.00
C309   C     0.86709   0.85845   0.02839   0.00000  Uiso   1.00
C310   C     0.79958   0.80822   0.30494   0.00000  Uiso   1.00
C311   C     0.86711   0.85840   0.31381   0.00000  Uiso   1.00
C312   C     0.79956   0.80827   0.01952   0.00000  Uiso   1.00
C313   C     0.83337   0.91328   0.16671   0.00000  Uiso   1.00
C314   C     0.73372   0.83332   0.15470   0.00000  Uiso   1.00
C315   C     0.93295   0.83335   0.17863   0.00000  Uiso   1.00
C316   C     0.67867   0.83333   0.14828   0.00000  Uiso   1.00
C317   C     0.98799   0.83333   0.18505   0.00000  Uiso   1.00
C318   C     0.80239   0.68792   0.13103   0.00000  Uiso   1.00
C319   C     0.86427   0.97874   0.20230   0.00000  Uiso   1.00
C320   C     0.80240   0.97839   0.13108   0.00000  Uiso   1.00
F321   F     0.77125   0.70853   0.09723   0.00000  Uiso   1.00
F322   F     0.89542   0.95813   0.23610   0.00000  Uiso   1.00
F323   F     0.77134   0.95741   0.09725   0.00000  Uiso   1.00
F324   F     0.89532   0.70925   0.23608   0.00000  Uiso   1.00
F325   F     0.90087   0.88371   0.05543   0.00000  Uiso   1.00
F326   F     0.76580   0.78295   0.27790   0.00000  Uiso   1.00
F327   F     0.90108   0.88347   0.29567   0.00000  Uiso   1.00
F328   F     0.76559   0.78320   0.03766   0.00000  Uiso   1.00
H329   H     0.99139   0.83335   0.11339   0.00000  Uiso   1.00
H330   H     0.67527   0.83332   0.21994   0.00000  Uiso   1.00
N331   N     0.83332   0.83332   0.28573   0.00000  Uiso   1.00
N332   N     0.83335   0.83334   0.04760   0.00000  Uiso   1.00
O333   O     0.83333   0.77225   0.20487   0.00000  Uiso   1.00
O334   O     0.83334   0.89442   0.12846   0.00000  Uiso   1.00
O335   O     0.83333   0.77226   0.12843   0.00000  Uiso   1.00
O336   O     0.83334   0.89441   0.20490   0.00000  Uiso   1.00
O337   O     0.75725   0.83333   0.19595   0.00000  Uiso   1.00
O338   O     0.90942   0.83334   0.13739   0.00000  Uiso   1.00
O339   O     0.75725   0.83334   0.11950   0.00000  Uiso   1.00
O340   O     0.90942   0.83333   0.21383   0.00000  Uiso   1.00
Zn341  Zn    0.83333   0.83333   0.21771   0.00000  Uiso   1.00
Zn342  Zn    0.83333   0.83334   0.11563   0.00000  Uiso   1.00
C343   C     0.16663   0.08672   0.49996   0.00000  Uiso   1.00
C344   C     0.19760   0.02161   0.53559   0.00000  Uiso   1.00
C345   C     0.16666   0.29073   0.50005   0.00000  Uiso   1.00
C346   C     0.16667   0.04260   0.49995   0.00000  Uiso   1.00
C347   C     0.20042   0.19178   0.36172   0.00000  Uiso   1.00
C348   C     0.13291   0.14155   0.63828   0.00000  Uiso   1.00
C349   C     0.20044   0.19173   0.64715   0.00000  Uiso   1.00
C350   C     0.13290   0.14160   0.35285   0.00000  Uiso   1.00
C351   C     0.16671   0.24662   0.50004   0.00000  Uiso   1.00
C352   C     0.06706   0.16665   0.48804   0.00000  Uiso   1.00
C353   C     0.26628   0.16668   0.51196   0.00000  Uiso   1.00
C354   C     0.01201   0.16666   0.48161   0.00000  Uiso   1.00
C355   C     0.32133   0.16667   0.51839   0.00000  Uiso   1.00
C356   C     0.13573   0.02126   0.46437   0.00000  Uiso   1.00
C357   C     0.19761   0.31208   0.53563   0.00000  Uiso   1.00
C358   C     0.13573   0.31172   0.46441   0.00000  Uiso   1.00
F359   F     0.10458   0.04187   0.43056   0.00000  Uiso   1.00
F360   F     0.22875   0.29147   0.56944   0.00000  Uiso   1.00
F361   F     0.10468   0.29075   0.43058   0.00000  Uiso   1.00
F362   F     0.22866   0.04259   0.56942   0.00000  Uiso   1.00
F363   F     0.23420   0.21705   0.38876   0.00000  Uiso   1.00
F364   F     0.09913   0.11629   0.61124   0.00000  Uiso   1.00
F365   F     0.23441   0.21680   0.62900   0.00000  Uiso   1.00
F366   F     0.09892   0.11653   0.37100   0.00000  Uiso   1.00
H367   H     0.32473   0.16668   0.44672   0.00000  Uiso   1.00
H368   H     0.00861   0.16665   0.55328   0.00000  Uiso   1.00
N369   N     0.16665   0.16666   0.61907   0.00000  Uiso   1.00
N370   N     0.16668   0.16668   0.38093   0.00000  Uiso   1.00
O371   O     0.16666   0.10558   0.53821   0.00000  Uiso   1.00
O372   O     0.16667   0.22775   0.46179   0.00000  Uiso   1.00
O373   O     0.16666   0.10559   0.46176   0.00000  Uiso   1.00
O374   O     0.16667   0.22774   0.53824   0.00000  Uiso   1.00
O375   O     0.09058   0.16666   0.52928   0.00000  Uiso   1.00
O376   O     0.24275   0.16667   0.47072   0.00000  Uiso   1.00
O377   O     0.09058   0.16667   0.45284   0.00000  Uiso   1.00
O378   O     0.24275   0.16666   0.54716   0.00000  Uiso   1.00
Zn379  Zn    0.16667   0.16666   0.55104   0.00000  Uiso   1.00
Zn380  Zn    0.16667   0.16667   0.44896   0.00000  Uiso   1.00
C381   C     0.49996   0.08672   0.49996   0.00000  Uiso   1.00
C382   C     0.53093   0.02161   0.53559   0.00000  Uiso   1.00
C383   C     0.50000   0.29073   0.50005   0.00000  Uiso   1.00
C384   C     0.50001   0.04260   0.49995   0.00000  Uiso   1.00
C385   C     0.53375   0.19178   0.36172   0.00000  Uiso   1.00
C386   C     0.46625   0.14155   0.63828   0.00000  Uiso   1.00
C387   C     0.53377   0.19173   0.64715   0.00000  Uiso   1.00
C388   C     0.46623   0.14160   0.35285   0.00000  Uiso   1.00
C389   C     0.50004   0.24662   0.50004   0.00000  Uiso   1.00
C390   C     0.40039   0.16665   0.48804   0.00000  Uiso   1.00
C391   C     0.59961   0.16668   0.51196   0.00000  Uiso   1.00
C392   C     0.34534   0.16666   0.48161   0.00000  Uiso   1.00
C393   C     0.65466   0.16667   0.51839   0.00000  Uiso   1.00
C394   C     0.46906   0.02126   0.46437   0.00000  Uiso   1.00
C395   C     0.53094   0.31208   0.53563   0.00000  Uiso   1.00
C396   C     0.46907   0.31172   0.46441   0.00000  Uiso   1.00
F397   F     0.43791   0.04187   0.43056   0.00000  Uiso   1.00
F398   F     0.56209   0.29147   0.56944   0.00000  Uiso   1.00
F399   F     0.43801   0.29075   0.43058   0.00000  Uiso   1.00
F400   F     0.56199   0.04259   0.56942   0.00000  Uiso   1.00
F401   F     0.56754   0.21705   0.38876   0.00000  Uiso   1.00
F402   F     0.43246   0.11629   0.61124   0.00000  Uiso   1.00
F403   F     0.56774   0.21680   0.62900   0.00000  Uiso   1.00
F404   F     0.43226   0.11653   0.37100   0.00000  Uiso   1.00
H405   H     0.65806   0.16668   0.44672   0.00000  Uiso   1.00
H406   H     0.34194   0.16665   0.55328   0.00000  Uiso   1.00
N407   N     0.49999   0.16666   0.61907   0.00000  Uiso   1.00
N408   N     0.50001   0.16668   0.38093   0.00000  Uiso   1.00
O409   O     0.50000   0.10558   0.53821   0.00000  Uiso   1.00
O410   O     0.50000   0.22775   0.46179   0.00000  Uiso   1.00
O411   O     0.50000   0.10559   0.46176   0.00000  Uiso   1.00
O412   O     0.50000   0.22774   0.53824   0.00000  Uiso   1.00
O413   O     0.42392   0.16666   0.52928   0.00000  Uiso   1.00
O414   O     0.57608   0.16667   0.47072   0.00000  Uiso   1.00
O415   O     0.42392   0.16667   0.45284   0.00000  Uiso   1.00
O416   O     0.57608   0.16666   0.54716   0.00000  Uiso   1.00
Zn417  Zn    0.50000   0.16666   0.55104   0.00000  Uiso   1.00
Zn418  Zn    0.50000   0.16667   0.44896   0.00000  Uiso   1.00
C419   C     0.83329   0.08672   0.49996   0.00000  Uiso   1.00
C420   C     0.86427   0.02161   0.53559   0.00000  Uiso   1.00
C421   C     0.83333   0.29073   0.50005   0.00000  Uiso   1.00
C422   C     0.83334   0.04260   0.49995   0.00000  Uiso   1.00
C423   C     0.86709   0.19178   0.36172   0.00000  Uiso   1.00
C424   C     0.79958   0.14155   0.63828   0.00000  Uiso   1.00
C425   C     0.86711   0.19173   0.64715   0.00000  Uiso   1.00
C426   C     0.79956   0.14160   0.35285   0.00000  Uiso   1.00
C427   C     0.83337   0.24662   0.50004   0.00000  Uiso   1.00
C428   C     0.73372   0.16665   0.48804   0.00000  Uiso   1.00
C429   C     0.93295   0.16668   0.51196   0.00000  Uiso   1.00
C430   C     0.67867   0.16666   0.48161   0.00000  Uiso   1.00
C431   C     0.98799   0.16667   0.51839   0.00000  Uiso   1.00
C432   C     0.80239   0.02126   0.46437   0.00000  Uiso   1.00
C433   C     0.86427   0.31208   0.53563   0.00000  Uiso   1.00
C434   C     0.80240   0.31172   0.46441   0.00000  Uiso   1.00
F435   F     0.77125   0.04187   0.43056   0.00000  Uiso   1.00
F436   F     0.89542   0.29147   0.56944   0.00000  Uiso   1.00
F437   F     0.77134   0.29075   0.43058   0.00000  Uiso   1.00
F438   F     0.89532   0.04259   0.56942   0.00000  Uiso   1.00
F439   F     0.90087   0.21705   0.38876   0.00000  Uiso   1.00
F440   F     0.76580   0.11629   0.61124   0.00000  Uiso   1.00
F441   F     0.90108   0.21680   0.62900   0.00000  Uiso   1.00
F442   F     0.76559   0.11653   0.37100   0.00000  Uiso   1.00
H443   H     0.99139   0.16668   0.44672   0.00000  Uiso   1.00
H444   H     0.67527   0.16665   0.55328   0.00000  Uiso   1.00
N445   N     0.83332   0.16666   0.61907   0.00000  Uiso   1.00
N446   N     0.83335   0.16668   0.38093   0.00000  Uiso   1.00
O447   O     0.83333   0.10558   0.53821   0.00000  Uiso   1.00
O448   O     0.83334   0.22775   0.46179   0.00000  Uiso   1.00
O449   O     0.83333   0.10559   0.46176   0.00000  Uiso   1.00
O450   O     0.83334   0.22774   0.53824   0.00000  Uiso   1.00
O451   O     0.75725   0.16666   0.52928   0.00000  Uiso   1.00
O452   O     0.90942   0.16667   0.47072   0.00000  Uiso   1.00
O453   O     0.75725   0.16667   0.45284   0.00000  Uiso   1.00
O454   O     0.90942   0.16666   0.54716   0.00000  Uiso   1.00
Zn455  Zn    0.83333   0.16666   0.55104   0.00000  Uiso   1.00
Zn456  Zn    0.83333   0.16667   0.44896   0.00000  Uiso   1.00
C457   C     0.16663   0.42005   0.49996   0.00000  Uiso   1.00
C458   C     0.19760   0.35495   0.53559   0.00000  Uiso   1.00
C459   C     0.16666   0.62407   0.50005   0.00000  Uiso   1.00
C460   C     0.16667   0.37593   0.49995   0.00000  Uiso   1.00
C461   C     0.20042   0.52511   0.36172   0.00000  Uiso   1.00
C462   C     0.13291   0.47489   0.63828   0.00000  Uiso   1.00
C463   C     0.20044   0.52507   0.64715   0.00000  Uiso   1.00
C464   C     0.13290   0.47493   0.35285   0.00000  Uiso   1.00
C465   C     0.16671   0.57995   0.50004   0.00000  Uiso   1.00
C466   C     0.06706   0.49998   0.48804   0.00000  Uiso   1.00
C467   C     0.26628   0.50002   0.51196   0.00000  Uiso   1.00
C468   C     0.01201   0.50000   0.48161   0.00000  Uiso   1.00
C469   C     0.32133   0.50000   0.51839   0.00000  Uiso   1.00
C470   C     0.13573   0.35459   0.46437   0.00000  Uiso   1.00
C471   C     0.19761   0.64541   0.53563   0.00000  Uiso   1.00
C472   C     0.13573   0.64505   0.46441   0.00000  Uiso   1.00
F473   F     0.10458   0.37520   0.43056   0.00000  Uiso   1.00
F474   F     0.22875   0.62480   0.56944   0.00000  Uiso   1.00
F475   F     0.10468   0.62408   0.43058   0.00000  Uiso   1.00
F476   F     0.22866   0.37592   0.56942   0.00000  Uiso   1.00
F477   F     0.23420   0.55038   0.38876   0.00000  Uiso   1.00
F478   F     0.09913   0.44962   0.61124   0.00000  Uiso   1.00
F479   F     0.23441   0.55013   0.62900   0.00000  Uiso   1.00
F480   F     0.09892   0.44987   0.37100   0.00000  Uiso   1.00
H481   H     0.32473   0.50002   0.44672   0.00000  Uiso   1.00
H482   H     0.00861   0.49998   0.55328   0.00000  Uiso   1.00
N483   N     0.16665   0.49999   0.61907   0.00000  Uiso   1.00
N484   N     0.16668   0.50001   0.38093   0.00000  Uiso   1.00
O485   O     0.16666   0.43892   0.53821   0.00000  Uiso   1.00
O486   O     0.16667   0.56108   0.46179   0.00000  Uiso   1.00
O487   O     0.16666   0.43893   0.46176   0.00000  Uiso   1.00
O488   O     0.16667   0.56107   0.53824   0.00000  Uiso   1.00
O489   O     0.09058   0.50000   0.52928   0.00000  Uiso   1.00
O490   O     0.24275   0.50000   0.47072   0.00000  Uiso   1.00
O491   O     0.09058   0.50000   0.45284   0.00000  Uiso   1.00
O492   O     0.24275   0.50000   0.54716   0.00000  Uiso   1.00
Zn493  Zn    0.16667   0.49999   0.55104   0.00000  Uiso   1.00
Zn494  Zn    0.16667   0.50001   0.44896   0.00000  Uiso   1.00
C495   C     0.49996   0.42005   0.49996   0.00000  Uiso   1.00
C496   C     0.53093   0.35495   0.53559   0.00000  Uiso   1.00
C497   C     0.50000   0.62407   0.50005   0.00000  Uiso   1.00
C498   C     0.50001   0.37593   0.49995   0.00000  Uiso   1.00
C499   C     0.53375   0.52511   0.36172   0.00000  Uiso   1.00
C500   C     0.46625   0.47489   0.63828   0.00000  Uiso   1.00
C501   C     0.53377   0.52507   0.64715   0.00000  Uiso   1.00
C502   C     0.46623   0.47493   0.35285   0.00000  Uiso   1.00
C503   C     0.50004   0.57995   0.50004   0.00000  Uiso   1.00
C504   C     0.40039   0.49998   0.48804   0.00000  Uiso   1.00
C505   C     0.59961   0.50002   0.51196   0.00000  Uiso   1.00
C506   C     0.34534   0.50000   0.48161   0.00000  Uiso   1.00
C507   C     0.65466   0.50000   0.51839   0.00000  Uiso   1.00
C508   C     0.46906   0.35459   0.46437   0.00000  Uiso   1.00
C509   C     0.53094   0.64541   0.53563   0.00000  Uiso   1.00
C510   C     0.46907   0.64505   0.46441   0.00000  Uiso   1.00
F511   F     0.43791   0.37520   0.43056   0.00000  Uiso   1.00
F512   F     0.56209   0.62480   0.56944   0.00000  Uiso   1.00
F513   F     0.43801   0.62408   0.43058   0.00000  Uiso   1.00
F514   F     0.56199   0.37592   0.56942   0.00000  Uiso   1.00
F515   F     0.56754   0.55038   0.38876   0.00000  Uiso   1.00
F516   F     0.43246   0.44962   0.61124   0.00000  Uiso   1.00
F517   F     0.56774   0.55013   0.62900   0.00000  Uiso   1.00
F518   F     0.43226   0.44987   0.37100   0.00000  Uiso   1.00
H519   H     0.65806   0.50002   0.44672   0.00000  Uiso   1.00
H520   H     0.34194   0.49998   0.55328   0.00000  Uiso   1.00
N521   N     0.49999   0.49999   0.61907   0.00000  Uiso   1.00
N522   N     0.50001   0.50001   0.38093   0.00000  Uiso   1.00
O523   O     0.50000   0.43892   0.53821   0.00000  Uiso   1.00
O524   O     0.50000   0.56108   0.46179   0.00000  Uiso   1.00
O525   O     0.50000   0.43893   0.46176   0.00000  Uiso   1.00
O526   O     0.50000   0.56107   0.53824   0.00000  Uiso   1.00
O527   O     0.42392   0.50000   0.52928   0.00000  Uiso   1.00
O528   O     0.57608   0.50000   0.47072   0.00000  Uiso   1.00
O529   O     0.42392   0.50000   0.45284   0.00000  Uiso   1.00
O530   O     0.57608   0.50000   0.54716   0.00000  Uiso   1.00
Zn531  Zn    0.50000   0.49999   0.55104   0.00000  Uiso   1.00
Zn532  Zn    0.50000   0.50001   0.44896   0.00000  Uiso   1.00
C533   C     0.83329   0.42005   0.49996   0.00000  Uiso   1.00
C534   C     0.86427   0.35495   0.53559   0.00000  Uiso   1.00
C535   C     0.83333   0.62407   0.50005   0.00000  Uiso   1.00
C536   C     0.83334   0.37593   0.49995   0.00000  Uiso   1.00
C537   C     0.86709   0.52511   0.36172   0.00000  Uiso   1.00
C538   C     0.79958   0.47489   0.63828   0.00000  Uiso   1.00
C539   C     0.86711   0.52507   0.64715   0.00000  Uiso   1.00
C540   C     0.79956   0.47493   0.35285   0.00000  Uiso   1.00
C541   C     0.83337   0.57995   0.50004   0.00000  Uiso   1.00
C542   C     0.73372   0.49998   0.48804   0.00000  Uiso   1.00
C543   C     0.93295   0.50002   0.51196   0.00000  Uiso   1.00
C544   C     0.67867   0.50000   0.48161   0.00000  Uiso   1.00
C545   C     0.98799   0.50000   0.51839   0.00000  Uiso   1.00
C546   C     0.80239   0.35459   0.46437   0.00000  Uiso   1.00
C547   C     0.86427   0.64541   0.53563   0.00000  Uiso   1.00
C548   C     0.80240   0.64505   0.46441   0.00000  Uiso   1.00
F549   F     0.77125   0.37520   0.43056   0.00000  Uiso   1.00
F550   F     0.89542   0.62480   0.56944   0.00000  Uiso   1.00
F551   F     0.77134   0.62408   0.43058   0.00000  Uiso   1.00
F552   F     0.89532   0.37592   0.56942   0.00000  Uiso   1.00
F553   F     0.90087   0.55038   0.38876   0.00000  Uiso   1.00
F554   F     0.76580   0.44962   0.61124   0.00000  Uiso   1.00
F555   F     0.90108   0.55013   0.62900   0.00000  Uiso   1.00
F556   F     0.76559   0.44987   0.37100   0.00000  Uiso   1.00
H557   H     0.99139   0.50002   0.44672   0.00000  Uiso   1.00
H558   H     0.67527   0.49998   0.55328   0.00000  Uiso   1.00
N559   N     0.83332   0.49999   0.61907   0.00000  Uiso   1.00
N560   N     0.83335   0.50001   0.38093   0.00000  Uiso   1.00
O561   O     0.83333   0.43892   0.53821   0.00000  Uiso   1.00
O562   O     0.83334   0.56108   0.46179   0.00000  Uiso   1.00
O563   O     0.83333   0.43893   0.46176   0.00000  Uiso   1.00
O564   O     0.83334   0.56107   0.53824   0.00000  Uiso   1.00
O565   O     0.75725   0.50000   0.52928   0.00000  Uiso   1.00
O566   O     0.90942   0.50000   0.47072   0.00000  Uiso   1.00
O567   O     0.75725   0.50000   0.45284   0.00000  Uiso   1.00
O568   O     0.90942   0.50000   0.54716   0.00000  Uiso   1.00
Zn569  Zn    0.83333   0.49999   0.55104   0.00000  Uiso   1.00
Zn570  Zn    0.83333   0.50001   0.44896   0.00000  Uiso   1.00
C571   C     0.16663   0.75338   0.49996   0.00000  Uiso   1.00
C572   C     0.19760   0.68828   0.53559   0.00000  Uiso   1.00
C573   C     0.16666   0.95740   0.50005   0.00000  Uiso   1.00
C574   C     0.16667   0.70926   0.49995   0.00000  Uiso   1.00
C575   C     0.20042   0.85845   0.36172   0.00000  Uiso   1.00
C576   C     0.13291   0.80822   0.63828   0.00000  Uiso   1.00
C577   C     0.20044   0.85840   0.64715   0.00000  Uiso   1.00
C578   C     0.13290   0.80827   0.35285   0.00000  Uiso   1.00
C579   C     0.16671   0.91328   0.50004   0.00000  Uiso   1.00
C580   C     0.06706   0.83332   0.48804   0.00000  Uiso   1.00
C581   C     0.26628   0.83335   0.51196   0.00000  Uiso   1.00
C582   C     0.01201   0.83333   0.48161   0.00000  Uiso   1.00
C583   C     0.32133   0.83333   0.51839   0.00000  Uiso   1.00
C584   C     0.13573   0.68792   0.46437   0.00000  Uiso   1.00
C585   C     0.19761   0.97874   0.53563   0.00000  Uiso   1.00
C586   C     0.13573   0.97839   0.46441   0.00000  Uiso   1.00
F587   F     0.10458   0.70853   0.43056   0.00000  Uiso   1.00
F588   F     0.22875   0.95813   0.56944   0.00000  Uiso   1.00
F589   F     0.10468   0.95741   0.43058   0.00000  Uiso   1.00
F590   F     0.22866   0.70925   0.56942   0.00000  Uiso   1.00
F591   F     0.23420   0.88371   0.38876   0.00000  Uiso   1.00
F592   F     0.09913   0.78295   0.61124   0.00000  Uiso   1.00
F593   F     0.23441   0.88347   0.62900   0.00000  Uiso   1.00
F594   F     0.09892   0.78320   0.37100   0.00000  Uiso   1.00
H595   H     0.32473   0.83335   0.44672   0.00000  Uiso   1.00
H596   H     0.00861   0.83332   0.55328   0.00000  Uiso   1.00
N597   N     0.16665   0.83332   0.61907   0.00000  Uiso   1.00
N598   N     0.16668   0.83334   0.38093   0.00000  Uiso   1.00
O599   O     0.16666   0.77225   0.53821   0.00000  Uiso   1.00
O600   O     0.16667   0.89442   0.46179   0.00000  Uiso   1.00
O601   O     0.16666   0.77226   0.46176   0.00000  Uiso   1.00
O602   O     0.16667   0.89441   0.53824   0.00000  Uiso   1.00
O603   O     0.09058   0.83333   0.52928   0.00000  Uiso   1.00
O604   O     0.24275   0.83334   0.47072   0.00000  Uiso   1.00
O605   O     0.09058   0.83334   0.45284   0.00000  Uiso   1.00
O606   O     0.24275   0.83333   0.54716   0.00000  Uiso   1.00
Zn607  Zn    0.16667   0.83333   0.55104   0.00000  Uiso   1.00
Zn608  Zn    0.16667   0.83334   0.44896   0.00000  Uiso   1.00
C609   C     0.49996   0.75338   0.49996   0.00000  Uiso   1.00
C610   C     0.53093   0.68828   0.53559   0.00000  Uiso   1.00
C611   C     0.50000   0.95740   0.50005   0.00000  Uiso   1.00
C612   C     0.50001   0.70926   0.49995   0.00000  Uiso   1.00
C613   C     0.53375   0.85845   0.36172   0.00000  Uiso   1.00
C614   C     0.46625   0.80822   0.63828   0.00000  Uiso   1.00
C615   C     0.53377   0.85840   0.64715   0.00000  Uiso   1.00
C616   C     0.46623   0.80827   0.35285   0.00000  Uiso   1.00
C617   C     0.50004   0.91328   0.50004   0.00000  Uiso   1.00
C618   C     0.40039   0.83332   0.48804   0.00000  Uiso   1.00
C619   C     0.59961   0.83335   0.51196   0.00000  Uiso   1.00
C620   C     0.34534   0.83333   0.48161   0.00000  Uiso   1.00
C621   C     0.65466   0.83333   0.51839   0.00000  Uiso   1.00
C622   C     0.46906   0.68792   0.46437   0.00000  Uiso   1.00
C623   C     0.53094   0.97874   0.53563   0.00000  Uiso   1.00
C624   C     0.46907   0.97839   0.46441   0.00000  Uiso   1.00
F625   F     0.43791   0.70853   0.43056   0.00000  Uiso   1.00
F626   F     0.56209   0.95813   0.56944   0.00000  Uiso   1.00
F627   F     0.43801   0.95741   0.43058   0.00000  Uiso   1.00
F628   F     0.56199   0.70925   0.56942   0.00000  Uiso   1.00
F629   F     0.56754   0.88371   0.38876   0.00000  Uiso   1.00
F630   F     0.43246   0.78295   0.61124   0.00000  Uiso   1.00
F631   F     0.56774   0.88347   0.62900   0.00000  Uiso   1.00
F632   F     0.43226   0.78320   0.37100   0.00000  Uiso   1.00
H633   H     0.65806   0.83335   0.44672   0.00000  Uiso   1.00
H634   H     0.34194   0.83332   0.55328   0.00000  Uiso   1.00
N635   N     0.49999   0.83332   0.61907   0.00000  Uiso   1.00
N636   N     0.50001   0.83334   0.38093   0.00000  Uiso   1.00
O637   O     0.50000   0.77225   0.53821   0.00000  Uiso   1.00
O638   O     0.50000   0.89442   0.46179   0.00000  Uiso   1.00
O639   O     0.50000   0.77226   0.46176   0.00000  Uiso   1.00
O640   O     0.50000   0.89441   0.53824   0.00000  Uiso   1.00
O641   O     0.42392   0.83333   0.52928   0.00000  Uiso   1.00
O642   O     0.57608   0.83334   0.47072   0.00000  Uiso   1.00
O643   O     0.42392   0.83334   0.45284   0.00000  Uiso   1.00
O644   O     0.57608   0.83333   0.54716   0.00000  Uiso   1.00
Zn645  Zn    0.50000   0.83333   0.55104   0.00000  Uiso   1.00
Zn646  Zn    0.50000   0.83334   0.44896   0.00000  Uiso   1.00
C647   C     0.83329   0.75338   0.49996   0.00000  Uiso   1.00
C648   C     0.86427   0.68828   0.53559   0.00000  Uiso   1.00
C649   C     0.83333   0.95740   0.50005   0.00000  Uiso   1.00
C650   C     0.83334   0.70926   0.49995   0.00000  Uiso   1.00
C651   C     0.86709   0.85845   0.36172   0.00000  Uiso   1.00
C652   C     0.79958   0.80822   0.63828   0.00000  Uiso   1.00
C653   C     0.86711   0.85840   0.64715   0.00000  Uiso   1.00
C654   C     0.79956   0.80827   0.35285   0.00000  Uiso   1.00
C655   C     0.83337   0.91328   0.50004   0.00000  Uiso   1.00
C656   C     0.73372   0.83332   0.48804   0.00000  Uiso   1.00
C657   C     0.93295   0.83335   0.51196   0.00000  Uiso   1.00
C658   C     0.67867   0.83333   0.48161   0.00000  Uiso   1.00
C659   C     0.98799   0.83333   0.51839   0.00000  Uiso   1.00
C660   C     0.80239   0.68792   0.46437   0.00000  Uiso   1.00
C661   C     0.86427   0.97874   0.53563   0.00000  Uiso   1.00
C662   C     0.80240   0.97839   0.46441   0.00000  Uiso   1.00
F663   F     0.77125   0.70853   0.43056   0.00000  Uiso   1.00
F664   F     0.89542   0.95813   0.56944   0.00000  Uiso   1.00
F665   F     0.77134   0.95741   0.43058   0.00000  Uiso   1.00
F666   F     0.89532   0.70925   0.56942   0.00000  Uiso   1.00
F667   F     0.90087   0.88371   0.38876   0.00000  Uiso   1.00
F668   F     0.76580   0.78295   0.61124   0.00000  Uiso   1.00
F669   F     0.90108   0.88347   0.62900   0.00000  Uiso   1.00
F670   F     0.76559   0.78320   0.37100   0.00000  Uiso   1.00
H671   H     0.99139   0.83335   0.44672   0.00000  Uiso   1.00
H672   H     0.67527   0.83332   0.55328   0.00000  Uiso   1.00
N673   N     0.83332   0.83332   0.61907   0.00000  Uiso   1.00
N674   N     0.83335   0.83334   0.38093   0.00000  Uiso   1.00
O675   O     0.83333   0.77225   0.53821   0.00000  Uiso   1.00
O676   O     0.83334   0.89442   0.46179   0.00000  Uiso   1.00
O677   O     0.83333   0.77226   0.46176   0.00000  Uiso   1.00
O678   O     0.83334   0.89441   0.53824   0.00000  Uiso   1.00
O679   O     0.75725   0.83333   0.52928   0.00000  Uiso   1.00
O680   O     0.90942   0.83334   0.47072   0.00000  Uiso   1.00
O681   O     0.75725   0.83334   0.45284   0.00000  Uiso   1.00
O682   O     0.90942   0.83333   0.54716   0.00000  Uiso   1.00
Zn683  Zn    0.83333   0.83333   0.55104   0.00000  Uiso   1.00
Zn684  Zn    0.83333   0.83334   0.44896   0.00000  Uiso   1.00
C685   C     0.16663   0.08672   0.83329   0.00000  Uiso   1.00
C686   C     0.19760   0.02161   0.86892   0.00000  Uiso   1.00
C687   C     0.16666   0.29073   0.83339   0.00000  Uiso   1.00
C688   C     0.16667   0.04260   0.83328   0.00000  Uiso   1.00
C689   C     0.20042   0.19178   0.69506   0.00000  Uiso   1.00
C690   C     0.13291   0.14155   0.97161   0.00000  Uiso   1.00
C691   C     0.20044   0.19173   0.98048   0.00000  Uiso   1.00
C692   C     0.13290   0.14160   0.68619   0.00000  Uiso   1.00
C693   C     0.16671   0.24662   0.83338   0.00000  Uiso   1.00
C694   C     0.06706   0.16665   0.82137   0.00000  Uiso   1.00
C695   C     0.26628   0.16668   0.84530   0.00000  Uiso   1.00
C696   C     0.01201   0.16666   0.81495   0.00000  Uiso   1.00
C697   C     0.32133   0.16667   0.85172   0.00000  Uiso   1.00
C698   C     0.13573   0.02126   0.79770   0.00000  Uiso   1.00
C699   C     0.19761   0.31208   0.86897   0.00000  Uiso   1.00
C700   C     0.13573   0.31172   0.79774   0.00000  Uiso   1.00
F701   F     0.10458   0.04187   0.76390   0.00000  Uiso   1.00
F702   F     0.22875   0.29147   0.90277   0.00000  Uiso   1.00
F703   F     0.10468   0.29075   0.76392   0.00000  Uiso   1.00
F704   F     0.22866   0.04259   0.90275   0.00000  Uiso   1.00
F705   F     0.23420   0.21705   0.72210   0.00000  Uiso   1.00
F706   F     0.09913   0.11629   0.94457   0.00000  Uiso   1.00
F707   F     0.23441   0.21680   0.96234   0.00000  Uiso   1.00
F708   F     0.09892   0.11653   0.70433   0.00000  Uiso   1.00
H709   H     0.32473   0.16668   0.78006   0.00000  Uiso   1.00
H710   H     0.00861   0.16665   0.88661   0.00000  Uiso   1.00
N711   N     0.16665   0.16666   0.95240   0.00000  Uiso   1.00
N712   N     0.16668   0.16668   0.71427   0.00000  Uiso   1.00
O713   O     0.16666   0.10558   0.87154   0.00000  Uiso   1.00
O714   O     0.16667   0.22775   0.79513   0.00000  Uiso   1.00
O715   O     0.16666   0.10559   0.79510   0.00000  Uiso   1.00
O716   O     0.16667   0.22774   0.87157   0.00000  Uiso   1.00
O717   O     0.09058   0.16666   0.86261   0.00000  Uiso   1.00
O718   O     0.24275   0.16667   0.80405   0.00000  Uiso   1.00
O719   O     0.09058   0.16667   0.78617   0.00000  Uiso   1.00
O720   O     0.24275   0.16666   0.88050   0.00000  Uiso   1.00
Zn721  Zn    0.16667   0.16666   0.88437   0.00000  Uiso   1.00
Zn722  Zn    0.16667   0.16667   0.78229   0.00000  Uiso   1.00
C723   C     0.49996   0.08672   0.83329   0.00000  Uiso   1.00
C724   C     0.53093   0.02161   0.86892   0.00000  Uiso   1.00
C725   C     0.50000   0.29073   0.83339   0.00000  Uiso   1.00
C726   C     0.50001   0.04260   0.83328   0.00000  Uiso   1.00
C727   C     0.53375   0.19178   0.69506   0.00000  Uiso   1.00
C728   C     0.46625   0.14155   0.97161   0.00000  Uiso   1.00
C729   C     0.53377   0.19173   0.98048   0.00000  Uiso   1.00
C730   C     0.46623   0.14160   0.68619   0.00000  Uiso   1.00
C731   C     0.50004   0.24662   0.83338   0.00000  Uiso   1.00
C732   C     0.40039   0.16665   0.82137   0.00000  Uiso   1.00
C733   C     0.59961   0.16668   0.84530   0.00000  Uiso   1.00
C734   C     0.34534   0.16666   0.81495   0.00000  Uiso   1.00
C735   C     0.65466   0.16667   0.85172   0.00000  Uiso   1.00
C736   C     0.46906   0.02126   0.79770   0.00000  Uiso   1.00
C737   C     0.53094   0.31208   0.86897   0.00000  Uiso   1.00
C738   C     0.46907   0.31172   0.79774   0.00000  Uiso   1.00
F739   F     0.43791   0.04187   0.76390   0.00000  Uiso   1.00
F740   F     0.56209   0.29147   0.90277   0.00000  Uiso   1.00
F741   F     0.43801   0.29075   0.76392   0.00000  Uiso   1.00
F742   F     0.56199   0.04259   0.90275   0.00000  Uiso   1.00
F743   F     0.56754   0.21705   0.72210   0.00000  Uiso   1.00
F744   F     0.43246   0.11629   0.94457   0.00000  Uiso   1.00
F745   F     0.56774   0.21680   0.96234   0.00000  Uiso   1.00
F746   F     0.43226   0.11653   0.70433   0.00000  Uiso   1.00
H747   H     0.65806   0.16668   0.78006   0.00000  Uiso   1.00
H748   H     0.34194   0.16665   0.88661   0.00000  Uiso   1.00
N749   N     0.49999   0.16666   0.95240   0.00000  Uiso   1.00
N750   N     0.50001   0.16668   0.71427   0.00000  Uiso   1.00
O751   O     0.50000   0.10558   0.87154   0.00000  Uiso   1.00
O752   O     0.50000   0.22775   0.79513   0.00000  Uiso   1.00
O753   O     0.50000   0.10559   0.79510   0.00000  Uiso   1.00
O754   O     0.50000   0.22774   0.87157   0.00000  Uiso   1.00
O755   O     0.42392   0.16666   0.86261   0.00000  Uiso   1.00
O756   O     0.57608   0.16667   0.80405   0.00000  Uiso   1.00
O757   O     0.42392   0.16667   0.78617   0.00000  Uiso   1.00
O758   O     0.57608   0.16666   0.88050   0.00000  Uiso   1.00
Zn759  Zn    0.50000   0.16666   0.88437   0.00000  Uiso   1.00
Zn760  Zn    0.50000   0.16667   0.78229   0.00000  Uiso   1.00
C761   C     0.83329   0.08672   0.83329   0.00000  Uiso   1.00
C762   C     0.86427   0.02161   0.86892   0.00000  Uiso   1.00
C763   C     0.83333   0.29073   0.83339   0.00000  Uiso   1.00
C764   C     0.83334   0.04260   0.83328   0.00000  Uiso   1.00
C765   C     0.86709   0.19178   0.69506   0.00000  Uiso   1.00
C766   C     0.79958   0.14155   0.97161   0.00000  Uiso   1.00
C767   C     0.86711   0.19173   0.98048   0.00000  Uiso   1.00
C768   C     0.79956   0.14160   0.68619   0.00000  Uiso   1.00
C769   C     0.83337   0.24662   0.83338   0.00000  Uiso   1.00
C770   C     0.73372   0.16665   0.82137   0.00000  Uiso   1.00
C771   C     0.93295   0.16668   0.84530   0.00000  Uiso   1.00
C772   C     0.67867   0.16666   0.81495   0.00000  Uiso   1.00
C773   C     0.98799   0.16667   0.85172   0.00000  Uiso   1.00
C774   C     0.80239   0.02126   0.79770   0.00000  Uiso   1.00
C775   C     0.86427   0.31208   0.86897   0.00000  Uiso   1.00
C776   C     0.80240   0.31172   0.79774   0.00000  Uiso   1.00
F777   F     0.77125   0.04187   0.76390   0.00000  Uiso   1.00
F778   F     0.89542   0.29147   0.90277   0.00000  Uiso   1.00
F779   F     0.77134   0.29075   0.76392   0.00000  Uiso   1.00
F780   F     0.89532   0.04259   0.90275   0.00000  Uiso   1.00
F781   F     0.90087   0.21705   0.72210   0.00000  Uiso   1.00
F782   F     0.76580   0.11629   0.94457   0.00000  Uiso   1.00
F783   F     0.90108   0.21680   0.96234   0.00000  Uiso   1.00
F784   F     0.76559   0.11653   0.70433   0.00000  Uiso   1.00
H785   H     0.99139   0.16668   0.78006   0.00000  Uiso   1.00
H786   H     0.67527   0.16665   0.88661   0.00000  Uiso   1.00
N787   N     0.83332   0.16666   0.95240   0.00000  Uiso   1.00
N788   N     0.83335   0.16668   0.71427   0.00000  Uiso   1.00
O789   O     0.83333   0.10558   0.87154   0.00000  Uiso   1.00
O790   O     0.83334   0.22775   0.79513   0.00000  Uiso   1.00
O791   O     0.83333   0.10559   0.79510   0.00000  Uiso   1.00
O792   O     0.83334   0.22774   0.87157   0.00000  Uiso   1.00
O793   O     0.75725   0.16666   0.86261   0.00000  Uiso   1.00
O794   O     0.90942   0.16667   0.80405   0.00000  Uiso   1.00
O795   O     0.75725   0.16667   0.78617   0.00000  Uiso   1.00
O796   O     0.90942   0.16666   0.88050   0.00000  Uiso   1.00
Zn797  Zn    0.83333   0.16666   0.88437   0.00000  Uiso   1.00
Zn798  Zn    0.83333   0.16667   0.78229   0.00000  Uiso   1.00
C799   C     0.16663   0.42005   0.83329   0.00000  Uiso   1.00
C800   C     0.19760   0.35495   0.86892   0.00000  Uiso   1.00
C801   C     0.16666   0.62407   0.83339   0.00000  Uiso   1.00
C802   C     0.16667   0.37593   0.83328   0.00000  Uiso   1.00
C803   C     0.20042   0.52511   0.69506   0.00000  Uiso   1.00
C804   C     0.13291   0.47489   0.97161   0.00000  Uiso   1.00
C805   C     0.20044   0.52507   0.98048   0.00000  Uiso   1.00
C806   C     0.13290   0.47493   0.68619   0.00000  Uiso   1.00
C807   C     0.16671   0.57995   0.83338   0.00000  Uiso   1.00
C808   C     0.06706   0.49998   0.82137   0.00000  Uiso   1.00
C809   C     0.26628   0.50002   0.84530   0.00000  Uiso   1.00
C810   C     0.01201   0.50000   0.81495   0.00000  Uiso   1.00
C811   C     0.32133   0.50000   0.85172   0.00000  Uiso   1.00
C812   C     0.13573   0.35459   0.79770   0.00000  Uiso   1.00
C813   C     0.19761   0.64541   0.86897   0.00000  Uiso   1.00
C814   C     0.13573   0.64505   0.79774   0.00000  Uiso   1.00
F815   F     0.10458   0.37520   0.76390   0.00000  Uiso   1.00
F816   F     0.22875   0.62480   0.90277   0.00000  Uiso   1.00
F817   F     0.10468   0.62408   0.76392   0.00000  Uiso   1.00
F818   F     0.22866   0.37592   0.90275   0.00000  Uiso   1.00
F819   F     0.23420   0.55038   0.72210   0.00000  Uiso   1.00
F820   F     0.09913   0.44962   0.94457   0.00000  Uiso   1.00
F821   F     0.23441   0.55013   0.96234   0.00000  Uiso   1.00
F822   F     0.09892   0.44987   0.70433   0.00000  Uiso   1.00
H823   H     0.32473   0.50002   0.78006   0.00000  Uiso   1.00
H824   H     0.00861   0.49998   0.88661   0.00000  Uiso   1.00
N825   N     0.16665   0.49999   0.95240   0.00000  Uiso   1.00
N826   N     0.16668   0.50001   0.71427   0.00000  Uiso   1.00
O827   O     0.16666   0.43892   0.87154   0.00000  Uiso   1.00
O828   O     0.16667   0.56108   0.79513   0.00000  Uiso   1.00
O829   O     0.16666   0.43893   0.79510   0.00000  Uiso   1.00
O830   O     0.16667   0.56107   0.87157   0.00000  Uiso   1.00
O831   O     0.09058   0.50000   0.86261   0.00000  Uiso   1.00
O832   O     0.24275   0.50000   0.80405   0.00000  Uiso   1.00
O833   O     0.09058   0.50000   0.78617   0.00000  Uiso   1.00
O834   O     0.24275   0.50000   0.88050   0.00000  Uiso   1.00
Zn835  Zn    0.16667   0.49999   0.88437   0.00000  Uiso   1.00
Zn836  Zn    0.16667   0.50001   0.78229   0.00000  Uiso   1.00
C837   C     0.49996   0.42005   0.83329   0.00000  Uiso   1.00
C838   C     0.53093   0.35495   0.86892   0.00000  Uiso   1.00
C839   C     0.50000   0.62407   0.83339   0.00000  Uiso   1.00
C840   C     0.50001   0.37593   0.83328   0.00000  Uiso   1.00
C841   C     0.53375   0.52511   0.69506   0.00000  Uiso   1.00
C842   C     0.46625   0.47489   0.97161   0.00000  Uiso   1.00
C843   C     0.53377   0.52507   0.98048   0.00000  Uiso   1.00
C844   C     0.46623   0.47493   0.68619   0.00000  Uiso   1.00
C845   C     0.50004   0.57995   0.83338   0.00000  Uiso   1.00
C846   C     0.40039   0.49998   0.82137   0.00000  Uiso   1.00
C847   C     0.59961   0.50002   0.84530   0.00000  Uiso   1.00
C848   C     0.34534   0.50000   0.81495   0.00000  Uiso   1.00
C849   C     0.65466   0.50000   0.85172   0.00000  Uiso   1.00
C850   C     0.46906   0.35459   0.79770   0.00000  Uiso   1.00
C851   C     0.53094   0.64541   0.86897   0.00000  Uiso   1.00
C852   C     0.46907   0.64505   0.79774   0.00000  Uiso   1.00
F853   F     0.43791   0.37520   0.76390   0.00000  Uiso   1.00
F854   F     0.56209   0.62480   0.90277   0.00000  Uiso   1.00
F855   F     0.43801   0.62408   0.76392   0.00000  Uiso   1.00
F856   F     0.56199   0.37592   0.90275   0.00000  Uiso   1.00
F857   F     0.56754   0.55038   0.72210   0.00000  Uiso   1.00
F858   F     0.43246   0.44962   0.94457   0.00000  Uiso   1.00
F859   F     0.56774   0.55013   0.96234   0.00000  Uiso   1.00
F860   F     0.43226   0.44987   0.70433   0.00000  Uiso   1.00
H861   H     0.65806   0.50002   0.78006   0.00000  Uiso   1.00
H862   H     0.34194   0.49998   0.88661   0.00000  Uiso   1.00
N863   N     0.49999   0.49999   0.95240   0.00000  Uiso   1.00
N864   N     0.50001   0.50001   0.71427   0.00000  Uiso   1.00
O865   O     0.50000   0.43892   0.87154   0.00000  Uiso   1.00
O866   O     0.50000   0.56108   0.79513   0.00000  Uiso   1.00
O867   O     0.50000   0.43893   0.79510   0.00000  Uiso   1.00
O868   O     0.50000   0.56107   0.87157   0.00000  Uiso   1.00
O869   O     0.42392   0.50000   0.86261   0.00000  Uiso   1.00
O870   O     0.57608   0.50000   0.80405   0.00000  Uiso   1.00
O871   O     0.42392   0.50000   0.78617   0.00000  Uiso   1.00
O872   O     0.57608   0.50000   0.88050   0.00000  Uiso   1.00
Zn873  Zn    0.50000   0.49999   0.88437   0.00000  Uiso   1.00
Zn874  Zn    0.50000   0.50001   0.78229   0.00000  Uiso   1.00
C875   C     0.83329   0.42005   0.83329   0.00000  Uiso   1.00
C876   C     0.86427   0.35495   0.86892   0.00000  Uiso   1.00
C877   C     0.83333   0.62407   0.83339   0.00000  Uiso   1.00
C878   C     0.83334   0.37593   0.83328   0.00000  Uiso   1.00
C879   C     0.86709   0.52511   0.69506   0.00000  Uiso   1.00
C880   C     0.79958   0.47489   0.97161   0.00000  Uiso   1.00
C881   C     0.86711   0.52507   0.98048   0.00000  Uiso   1.00
C882   C     0.79956   0.47493   0.68619   0.00000  Uiso   1.00
C883   C     0.83337   0.57995   0.83338   0.00000  Uiso   1.00
C884   C     0.73372   0.49998   0.82137   0.00000  Uiso   1.00
C885   C     0.93295   0.50002   0.84530   0.00000  Uiso   1.00
C886   C     0.67867   0.50000   0.81495   0.00000  Uiso   1.00
C887   C     0.98799   0.50000   0.85172   0.00000  Uiso   1.00
C888   C     0.80239   0.35459   0.79770   0.00000  Uiso   1.00
C889   C     0.86427   0.64541   0.86897   0.00000  Uiso   1.00
C890   C     0.80240   0.64505   0.79774   0.00000  Uiso   1.00
F891   F     0.77125   0.37520   0.76390   0.00000  Uiso   1.00
F892   F     0.89542   0.62480   0.90277   0.00000  Uiso   1.00
F893   F     0.77134   0.62408   0.76392   0.00000  Uiso   1.00
F894   F     0.89532   0.37592   0.90275   0.00000  Uiso   1.00
F895   F     0.90087   0.55038   0.72210   0.00000  Uiso   1.00
F896   F     0.76580   0.44962   0.94457   0.00000  Uiso   1.00
F897   F     0.90108   0.55013   0.96234   0.00000  Uiso   1.00
F898   F     0.76559   0.44987   0.70433   0.00000  Uiso   1.00
H899   H     0.99139   0.50002   0.78006   0.00000  Uiso   1.00
H900   H     0.67527   0.49998   0.88661   0.00000  Uiso   1.00
N901   N     0.83332   0.49999   0.95240   0.00000  Uiso   1.00
N902   N     0.83335   0.50001   0.71427   0.00000  Uiso   1.00
O903   O     0.83333   0.43892   0.87154   0.00000  Uiso   1.00
O904   O     0.83334   0.56108   0.79513   0.00000  Uiso   1.00
O905   O     0.83333   0.43893   0.79510   0.00000  Uiso   1.00
O906   O     0.83334   0.56107   0.87157   0.00000  Uiso   1.00
O907   O     0.75725   0.50000   0.86261   0.00000  Uiso   1.00
O908   O     0.90942   0.50000   0.80405   0.00000  Uiso   1.00
O909   O     0.75725   0.50000   0.78617   0.00000  Uiso   1.00
O910   O     0.90942   0.50000   0.88050   0.00000  Uiso   1.00
Zn911  Zn    0.83333   0.49999   0.88437   0.00000  Uiso   1.00
Zn912  Zn    0.83333   0.50001   0.78229   0.00000  Uiso   1.00
C913   C     0.16663   0.75338   0.83329   0.00000  Uiso   1.00
C914   C     0.19760   0.68828   0.86892   0.00000  Uiso   1.00
C915   C     0.16666   0.95740   0.83339   0.00000  Uiso   1.00
C916   C     0.16667   0.70926   0.83328   0.00000  Uiso   1.00
C917   C     0.20042   0.85845   0.69506   0.00000  Uiso   1.00
C918   C     0.13291   0.80822   0.97161   0.00000  Uiso   1.00
C919   C     0.20044   0.85840   0.98048   0.00000  Uiso   1.00
C920   C     0.13290   0.80827   0.68619   0.00000  Uiso   1.00
C921   C     0.16671   0.91328   0.83338   0.00000  Uiso   1.00
C922   C     0.06706   0.83332   0.82137   0.00000  Uiso   1.00
C923   C     0.26628   0.83335   0.84530   0.00000  Uiso   1.00
C924   C     0.01201   0.83333   0.81495   0.00000  Uiso   1.00
C925   C     0.32133   0.83333   0.85172   0.00000  Uiso   1.00
C926   C     0.13573   0.68792   0.79770   0.00000  Uiso   1.00
C927   C     0.19761   0.97874   0.86897   0.00000  Uiso   1.00
C928   C     0.13573   0.97839   0.79774   0.00000  Uiso   1.00
F929   F     0.10458   0.70853   0.76390   0.00000  Uiso   1.00
F930   F     0.22875   0.95813   0.90277   0.00000  Uiso   1.00
F931   F     0.10468   0.95741   0.76392   0.00000  Uiso   1.00
F932   F     0.22866   0.70925   0.90275   0.00000  Uiso   1.00
F933   F     0.23420   0.88371   0.72210   0.00000  Uiso   1.00
F934   F     0.09913   0.78295   0.94457   0.00000  Uiso   1.00
F935   F     0.23441   0.88347   0.96234   0.00000  Uiso   1.00
F936   F     0.09892   0.78320   0.70433   0.00000  Uiso   1.00
H937   H     0.32473   0.83335   0.78006   0.00000  Uiso   1.00
H938   H     0.00861   0.83332   0.88661   0.00000  Uiso   1.00
N939   N     0.16665   0.83332   0.95240   0.00000  Uiso   1.00
N940   N     0.16668   0.83334   0.71427   0.00000  Uiso   1.00
O941   O     0.16666   0.77225   0.87154   0.00000  Uiso   1.00
O942   O     0.16667   0.89442   0.79513   0.00000  Uiso   1.00
O943   O     0.16666   0.77226   0.79510   0.00000  Uiso   1.00
O944   O     0.16667   0.89441   0.87157   0.00000  Uiso   1.00
O945   O     0.09058   0.83333   0.86261   0.00000  Uiso   1.00
O946   O     0.24275   0.83334   0.80405   0.00000  Uiso   1.00
O947   O     0.09058   0.83334   0.78617   0.00000  Uiso   1.00
O948   O     0.24275   0.83333   0.88050   0.00000  Uiso   1.00
Zn949  Zn    0.16667   0.83333   0.88437   0.00000  Uiso   1.00
Zn950  Zn    0.16667   0.83334   0.78229   0.00000  Uiso   1.00
C951   C     0.49996   0.75338   0.83329   0.00000  Uiso   1.00
C952   C     0.53093   0.68828   0.86892   0.00000  Uiso   1.00
C953   C     0.50000   0.95740   0.83339   0.00000  Uiso   1.00
C954   C     0.50001   0.70926   0.83328   0.00000  Uiso   1.00
C955   C     0.53375   0.85845   0.69506   0.00000  Uiso   1.00
C956   C     0.46625   0.80822   0.97161   0.00000  Uiso   1.00
C957   C     0.53377   0.85840   0.98048   0.00000  Uiso   1.00
C958   C     0.46623   0.80827   0.68619   0.00000  Uiso   1.00
C959   C     0.50004   0.91328   0.83338   0.00000  Uiso   1.00
C960   C     0.40039   0.83332   0.82137   0.00000  Uiso   1.00
C961   C     0.59961   0.83335   0.84530   0.00000  Uiso   1.00
C962   C     0.34534   0.83333   0.81495   0.00000  Uiso   1.00
C963   C     0.65466   0.83333   0.85172   0.00000  Uiso   1.00
C964   C     0.46906   0.68792   0.79770   0.00000  Uiso   1.00
C965   C     0.53094   0.97874   0.86897   0.00000  Uiso   1.00
C966   C     0.46907   0.97839   0.79774   0.00000  Uiso   1.00
F967   F     0.43791   0.70853   0.76390   0.00000  Uiso   1.00
F968   F     0.56209   0.95813   0.90277   0.00000  Uiso   1.00
F969   F     0.43801   0.95741   0.76392   0.00000  Uiso   1.00
F970   F     0.56199   0.70925   0.90275   0.00000  Uiso   1.00
F971   F     0.56754   0.88371   0.72210   0.00000  Uiso   1.00
F972   F     0.43246   0.78295   0.94457   0.00000  Uiso   1.00
F973   F     0.56774   0.88347   0.96234   0.00000  Uiso   1.00
F974   F     0.43226   0.78320   0.70433   0.00000  Uiso   1.00
H975   H     0.65806   0.83335   0.78006   0.00000  Uiso   1.00
H976   H     0.34194   0.83332   0.88661   0.00000  Uiso   1.00
N977   N     0.49999   0.83332   0.95240   0.00000  Uiso   1.00
N978   N     0.50001   0.83334   0.71427   0.00000  Uiso   1.00
O979   O     0.50000   0.77225   0.87154   0.00000  Uiso   1.00
O980   O     0.50000   0.89442   0.79513   0.00000  Uiso   1.00
O981   O     0.50000   0.77226   0.79510   0.00000  Uiso   1.00
O982   O     0.50000   0.89441   0.87157   0.00000  Uiso   1.00
O983   O     0.42392   0.83333   0.86261   0.00000  Uiso   1.00
O984   O     0.57608   0.83334   0.80405   0.00000  Uiso   1.00
O985   O     0.42392   0.83334   0.78617   0.00000  Uiso   1.00
O986   O     0.57608   0.83333   0.88050   0.00000  Uiso   1.00
Zn987  Zn    0.50000   0.83333   0.88437   0.00000  Uiso   1.00
Zn988  Zn    0.50000   0.83334   0.78229   0.00000  Uiso   1.00
C989   C     0.83329   0.75338   0.83329   0.00000  Uiso   1.00
C990   C     0.86427   0.68828   0.86892   0.00000  Uiso   1.00
C991   C     0.83333   0.95740   0.83339   0.00000  Uiso   1.00
C992   C     0.83334   0.70926   0.83328   0.00000  Uiso   1.00
C993   C     0.86709   0.85845   0.69506   0.00000  Uiso   1.00
C994   C     0.79958   0.80822   0.97161   0.00000  Uiso   1.00
C995   C     0.86711   0.85840   0.98048   0.00000  Uiso   1.00
C996   C     0.79956   0.80827   0.68619   0.00000  Uiso   1.00
C997   C     0.83337   0.91328   0.83338   0.00000  Uiso   1.00
C998   C     0.73372   0.83332   0.82137   0.00000  Uiso   1.00
C999   C     0.93295   0.83335   0.84530   0.00000  Uiso   1.00
C1000  C     0.67867   0.83333   0.81495   0.00000  Uiso   1.00
C1001  C     0.98799   0.83333   0.85172   0.00000  Uiso   1.00
C1002  C     0.80239   0.68792   0.79770   0.00000  Uiso   1.00
C1003  C     0.86427   0.97874   0.86897   0.00000  Uiso   1.00
C1004  C     0.80240   0.97839   0.79774   0.00000  Uiso   1.00
F1005  F     0.77125   0.70853   0.76390   0.00000  Uiso   1.00
F1006  F     0.89542   0.95813   0.90277   0.00000  Uiso   1.00
F1007  F     0.77134   0.95741   0.76392   0.00000  Uiso   1.00
F1008  F     0.89532   0.70925   0.90275   0.00000  Uiso   1.00
F1009  F     0.90087   0.88371   0.72210   0.00000  Uiso   1.00
F1010  F     0.76580   0.78295   0.94457   0.00000  Uiso   1.00
F1011  F     0.90108   0.88347   0.96234   0.00000  Uiso   1.00
F1012  F     0.76559   0.78320   0.70433   0.00000  Uiso   1.00
H1013  H     0.99139   0.83335   0.78006   0.00000  Uiso   1.00
H1014  H     0.67527   0.83332   0.88661   0.00000  Uiso   1.00
N1015  N     0.83332   0.83332   0.95240   0.00000  Uiso   1.00
N1016  N     0.83335   0.83334   0.71427   0.00000  Uiso   1.00
O1017  O     0.83333   0.77225   0.87154   0.00000  Uiso   1.00
O1018  O     0.83334   0.89442   0.79513   0.00000  Uiso   1.00
O1019  O     0.83333   0.77226   0.79510   0.00000  Uiso   1.00
O1020  O     0.83334   0.89441   0.87157   0.00000  Uiso   1.00
O1021  O     0.75725   0.83333   0.86261   0.00000  Uiso   1.00
O1022  O     0.90942   0.83334   0.80405   0.00000  Uiso   1.00
O1023  O     0.75725   0.83334   0.78617   0.00000  Uiso   1.00
O1024  O     0.90942   0.83333   0.88050   0.00000  Uiso   1.00
Zn1025 Zn    0.83333   0.83333   0.88437   0.00000  Uiso   1.00
Zn1026 Zn    0.83333   0.83334   0.78229   0.00000  Uiso   1.00
loop_
_geom_bond_atom_site_label_1
_geom_bond_atom_site_label_2
_geom_bond_distance
_geom_bond_site_symmetry_2
_ccdc_geom_bond_type
C1     C4      1.413   .     S
C1     O29     1.282   .     A
C1     O31     1.283   .     A
C2     C4      1.398   .     A
C2     F20     1.359   .     S
C2     C243    1.373   1_545 S
C3     C9      1.413   .     S
C3     C15     1.398   .     A
C3     C16     1.398   .     A
C4     C14     1.398   .     A
C5     N28     1.367   .     A
C5     F21     1.355   .     S
C5     C691    1.418   1_554 S
C6     N27     1.367   .     A
C6     F22     1.355   .     S
C6     C350    1.418   .     S
C7     N27     1.367   .     A
C7     F23     1.355   .     S
C7     C347    1.418   .     S
C8     F24     1.355   .     S
C8     N28     1.367   .     A
C8     C690    1.418   1_554 S
C9     O30     1.282   .     A
C9     O32     1.283   .     A
C10    O35     1.282   .     A
C10    C12     1.403   .     S
C10    O33     1.279   .     A
C11    C13     1.403   .     S
C11    O36     1.282   .     A
C11    O34     1.279   .     A
C12    C89     1.330   1_455 S
C12    H101    1.088   1_455 S
C13    C50     1.330   .     S
C13    H64     1.088   .     S
C14    F17     1.359   .     S
C14    C244    1.373   1_545 S
C15    F18     1.359   .     S
C15    C116    1.373   .     S
C16    F19     1.359   .     S
C16    C128    1.373   .     S
H25    C50     1.088   .     S
H26    C89     1.088   1_455 S
N27    Zn37    2.013   .     S
N28    Zn38    2.013   .     S
O29    Zn37    1.992   .     S
O30    Zn38    1.992   .     S
O31    Zn38    1.993   .     S
O32    Zn37    1.993   .     S
O33    Zn37    1.970   .     S
O34    Zn38    1.970   .     S
O35    Zn38    1.982   .     S
O36    Zn37    1.982   .     S
C39    C42     1.413   .     S
C39    O67     1.282   .     A
C39    O69     1.283   .     A
C40    C42     1.398   .     A
C40    F58     1.359   .     S
C40    C281    1.373   1_545 S
C41    C47     1.413   .     S
C41    C53     1.398   .     A
C41    C54     1.398   .     A
C42    C52     1.398   .     A
C43    N66     1.367   .     A
C43    F59     1.355   .     S
C43    C729    1.418   1_554 S
C44    N65     1.367   .     A
C44    F60     1.355   .     S
C44    C388    1.418   .     S
C45    N65     1.367   .     A
C45    F61     1.355   .     S
C45    C385    1.418   .     S
C46    F62     1.355   .     S
C46    N66     1.367   .     A
C46    C728    1.418   1_554 S
C47    O68     1.282   .     A
C47    O70     1.283   .     A
C48    O73     1.282   .     A
C48    C50     1.403   .     S
C48    O71     1.279   .     A
C49    C51     1.403   .     S
C49    O74     1.282   .     A
C49    O72     1.279   .     A
C51    C88     1.330   .     S
C51    H102    1.088   .     S
C52    F55     1.359   .     S
C52    C282    1.373   1_545 S
C53    F56     1.359   .     S
C53    C154    1.373   .     S
C54    F57     1.359   .     S
C54    C166    1.373   .     S
H63    C88     1.088   .     S
N65    Zn75    2.013   .     S
N66    Zn76    2.013   .     S
O67    Zn75    1.992   .     S
O68    Zn76    1.992   .     S
O69    Zn76    1.993   .     S
O70    Zn75    1.993   .     S
O71    Zn75    1.970   .     S
O72    Zn76    1.970   .     S
O73    Zn76    1.982   .     S
O74    Zn75    1.982   .     S
C77    C80     1.413   .     S
C77    O105    1.282   .     A
C77    O107    1.283   .     A
C78    C80     1.398   .     A
C78    F96     1.359   .     S
C78    C319    1.373   1_545 S
C79    C85     1.413   .     S
C79    C91     1.398   .     A
C79    C92     1.398   .     A
C80    C90     1.398   .     A
C81    N104    1.367   .     A
C81    F97     1.355   .     S
C81    C767    1.418   1_554 S
C82    N103    1.367   .     A
C82    F98     1.355   .     S
C82    C426    1.418   .     S
C83    N103    1.367   .     A
C83    F99     1.355   .     S
C83    C423    1.418   .     S
C84    F100    1.355   .     S
C84    N104    1.367   .     A
C84    C766    1.418   1_554 S
C85    O106    1.282   .     A
C85    O108    1.283   .     A
C86    O111    1.282   .     A
C86    C88     1.403   .     S
C86    O109    1.279   .     A
C87    C89     1.403   .     S
C87    O112    1.282   .     A
C87    O110    1.279   .     A
C89    C12     1.330   1_655 S
C89    H26     1.088   1_655 S
C90    F93     1.359   .     S
C90    C320    1.373   1_545 S
C91    F94     1.359   .     S
C91    C192    1.373   .     S
C92    F95     1.359   .     S
C92    C204    1.373   .     S
H101   C12     1.088   1_655 S
N103   Zn113   2.013   .     S
N104   Zn114   2.013   .     S
O105   Zn113   1.992   .     S
O106   Zn114   1.992   .     S
O107   Zn114   1.993   .     S
O108   Zn113   1.993   .     S
O109   Zn113   1.970   .     S
O110   Zn114   1.970   .     S
O111   Zn114   1.982   .     S
O112   Zn113   1.982   .     S
C115   C118    1.413   .     S
C115   O143    1.282   .     A
C115   O145    1.283   .     A
C116   C118    1.398   .     A
C116   F134    1.359   .     S
C117   C123    1.413   .     S
C117   C129    1.398   .     A
C117   C130    1.398   .     A
C118   C128    1.398   .     A
C119   N142    1.367   .     A
C119   F135    1.355   .     S
C119   C805    1.418   1_554 S
C120   N141    1.367   .     A
C120   F136    1.355   .     S
C120   C464    1.418   .     S
C121   N141    1.367   .     A
C121   F137    1.355   .     S
C121   C461    1.418   .     S
C122   F138    1.355   .     S
C122   N142    1.367   .     A
C122   C804    1.418   1_554 S
C123   O144    1.282   .     A
C123   O146    1.283   .     A
C124   O149    1.282   .     A
C124   C126    1.403   .     S
C124   O147    1.279   .     A
C125   C127    1.403   .     S
C125   O150    1.282   .     A
C125   O148    1.279   .     A
C126   C203    1.330   1_455 S
C126   H215    1.088   1_455 S
C127   C164    1.330   .     S
C127   H178    1.088   .     S
C128   F131    1.359   .     S
C129   F132    1.359   .     S
C129   C230    1.373   .     S
C130   F133    1.359   .     S
C130   C242    1.373   .     S
H139   C164    1.088   .     S
H140   C203    1.088   1_455 S
N141   Zn151   2.013   .     S
N142   Zn152   2.013   .     S
O143   Zn151   1.992   .     S
O144   Zn152   1.992   .     S
O145   Zn152   1.993   .     S
O146   Zn151   1.993   .     S
O147   Zn151   1.970   .     S
O148   Zn152   1.970   .     S
O149   Zn152   1.982   .     S
O150   Zn151   1.982   .     S
C153   C156    1.413   .     S
C153   O181    1.282   .     A
C153   O183    1.283   .     A
C154   C156    1.398   .     A
C154   F172    1.359   .     S
C155   C161    1.413   .     S
C155   C167    1.398   .     A
C155   C168    1.398   .     A
C156   C166    1.398   .     A
C157   N180    1.367   .     A
C157   F173    1.355   .     S
C157   C843    1.418   1_554 S
C158   N179    1.367   .     A
C158   F174    1.355   .     S
C158   C502    1.418   .     S
C159   N179    1.367   .     A
C159   F175    1.355   .     S
C159   C499    1.418   .     S
C160   F176    1.355   .     S
C160   N180    1.367   .     A
C160   C842    1.418   1_554 S
C161   O182    1.282   .     A
C161   O184    1.283   .     A
C162   O187    1.282   .     A
C162   C164    1.403   .     S
C162   O185    1.279   .     A
C163   C165    1.403   .     S
C163   O188    1.282   .     A
C163   O186    1.279   .     A
C165   C202    1.330   .     S
C165   H216    1.088   .     S
C166   F169    1.359   .     S
C167   F170    1.359   .     S
C167   C268    1.373   .     S
C168   F171    1.359   .     S
C168   C280    1.373   .     S
H177   C202    1.088   .     S
N179   Zn189   2.013   .     S
N180   Zn190   2.013   .     S
O181   Zn189   1.992   .     S
O182   Zn190   1.992   .     S
O183   Zn190   1.993   .     S
O184   Zn189   1.993   .     S
O185   Zn189   1.970   .     S
O186   Zn190   1.970   .     S
O187   Zn190   1.982   .     S
O188   Zn189   1.982   .     S
C191   C194    1.413   .     S
C191   O219    1.282   .     A
C191   O221    1.283   .     A
C192   C194    1.398   .     A
C192   F210    1.359   .     S
C193   C199    1.413   .     S
C193   C205    1.398   .     A
C193   C206    1.398   .     A
C194   C204    1.398   .     A
C195   N218    1.367   .     A
C195   F211    1.355   .     S
C195   C881    1.418   1_554 S
C196   N217    1.367   .     A
C196   F212    1.355   .     S
C196   C540    1.418   .     S
C197   N217    1.367   .     A
C197   F213    1.355   .     S
C197   C537    1.418   .     S
C198   F214    1.355   .     S
C198   N218    1.367   .     A
C198   C880    1.418   1_554 S
C199   O220    1.282   .     A
C199   O222    1.283   .     A
C200   O225    1.282   .     A
C200   C202    1.403   .     S
C200   O223    1.279   .     A
C201   C203    1.403   .     S
C201   O226    1.282   .     A
C201   O224    1.279   .     A
C203   C126    1.330   1_655 S
C203   H140    1.088   1_655 S
C204   F207    1.359   .     S
C205   F208    1.359   .     S
C205   C306    1.373   .     S
C206   F209    1.359   .     S
C206   C318    1.373   .     S
H215   C126    1.088   1_655 S
N217   Zn227   2.013   .     S
N218   Zn228   2.013   .     S
O219   Zn227   1.992   .     S
O220   Zn228   1.992   .     S
O221   Zn228   1.993   .     S
O222   Zn227   1.993   .     S
O223   Zn227   1.970   .     S
O224   Zn228   1.970   .     S
O225   Zn228   1.982   .     S
O226   Zn227   1.982   .     S
C229   C232    1.413   .     S
C229   O257    1.282   .     A
C229   O259    1.283   .     A
C230   C232    1.398   .     A
C230   F248    1.359   .     S
C231   C237    1.413   .     S
C231   C243    1.398   .     A
C231   C244    1.398   .     A
C232   C242    1.398   .     A
C233   N256    1.367   .     A
C233   F249    1.355   .     S
C233   C919    1.418   1_554 S
C234   N255    1.367   .     A
C234   F250    1.355   .     S
C234   C578    1.418   .     S
C235   N255    1.367   .     A
C235   F251    1.355   .     S
C235   C575    1.418   .     S
C236   F252    1.355   .     S
C236   N256    1.367   .     A
C236   C918    1.418   1_554 S
C237   O258    1.282   .     A
C237   O260    1.283   .     A
C238   O263    1.282   .     A
C238   C240    1.403   .     S
C238   O261    1.279   .     A
C239   C241    1.403   .     S
C239   O264    1.282   .     A
C239   O262    1.279   .     A
C240   C317    1.330   1_455 S
C240   H329    1.088   1_455 S
C241   C278    1.330   .     S
C241   H292    1.088   .     S
C242   F245    1.359   .     S
C243   F246    1.359   .     S
C243   C2      1.373   1_565 S
C244   F247    1.359   .     S
C244   C14     1.373   1_565 S
H253   C278    1.088   .     S
H254   C317    1.088   1_455 S
N255   Zn265   2.013   .     S
N256   Zn266   2.013   .     S
O257   Zn265   1.992   .     S
O258   Zn266   1.992   .     S
O259   Zn266   1.993   .     S
O260   Zn265   1.993   .     S
O261   Zn265   1.970   .     S
O262   Zn266   1.970   .     S
O263   Zn266   1.982   .     S
O264   Zn265   1.982   .     S
C267   C270    1.413   .     S
C267   O295    1.282   .     A
C267   O297    1.283   .     A
C268   C270    1.398   .     A
C268   F286    1.359   .     S
C269   C275    1.413   .     S
C269   C281    1.398   .     A
C269   C282    1.398   .     A
C270   C280    1.398   .     A
C271   N294    1.367   .     A
C271   F287    1.355   .     S
C271   C957    1.418   1_554 S
C272   N293    1.367   .     A
C272   F288    1.355   .     S
C272   C616    1.418   .     S
C273   N293    1.367   .     A
C273   F289    1.355   .     S
C273   C613    1.418   .     S
C274   F290    1.355   .     S
C274   N294    1.367   .     A
C274   C956    1.418   1_554 S
C275   O296    1.282   .     A
C275   O298    1.283   .     A
C276   O301    1.282   .     A
C276   C278    1.403   .     S
C276   O299    1.279   .     A
C277   C279    1.403   .     S
C277   O302    1.282   .     A
C277   O300    1.279   .     A
C279   C316    1.330   .     S
C279   H330    1.088   .     S
C280   F283    1.359   .     S
C281   F284    1.359   .     S
C281   C40     1.373   1_565 S
C282   F285    1.359   .     S
C282   C52     1.373   1_565 S
H291   C316    1.088   .     S
N293   Zn303   2.013   .     S
N294   Zn304   2.013   .     S
O295   Zn303   1.992   .     S
O296   Zn304   1.992   .     S
O297   Zn304   1.993   .     S
O298   Zn303   1.993   .     S
O299   Zn303   1.970   .     S
O300   Zn304   1.970   .     S
O301   Zn304   1.982   .     S
O302   Zn303   1.982   .     S
C305   C308    1.413   .     S
C305   O333    1.282   .     A
C305   O335    1.283   .     A
C306   C308    1.398   .     A
C306   F324    1.359   .     S
C307   C313    1.413   .     S
C307   C319    1.398   .     A
C307   C320    1.398   .     A
C308   C318    1.398   .     A
C309   N332    1.367   .     A
C309   F325    1.355   .     S
C309   C995    1.418   1_554 S
C310   N331    1.367   .     A
C310   F326    1.355   .     S
C310   C654    1.418   .     S
C311   N331    1.367   .     A
C311   F327    1.355   .     S
C311   C651    1.418   .     S
C312   F328    1.355   .     S
C312   N332    1.367   .     A
C312   C994    1.418   1_554 S
C313   O334    1.282   .     A
C313   O336    1.283   .     A
C314   O339    1.282   .     A
C314   C316    1.403   .     S
C314   O337    1.279   .     A
C315   C317    1.403   .     S
C315   O340    1.282   .     A
C315   O338    1.279   .     A
C317   C240    1.330   1_655 S
C317   H254    1.088   1_655 S
C318   F321    1.359   .     S
C319   F322    1.359   .     S
C319   C78     1.373   1_565 S
C320   F323    1.359   .     S
C320   C90     1.373   1_565 S
H329   C240    1.088   1_655 S
N331   Zn341   2.013   .     S
N332   Zn342   2.013   .     S
O333   Zn341   1.992   .     S
O334   Zn342   1.992   .     S
O335   Zn342   1.993   .     S
O336   Zn341   1.993   .     S
O337   Zn341   1.970   .     S
O338   Zn342   1.970   .     S
O339   Zn342   1.982   .     S
O340   Zn341   1.982   .     S
C343   C346    1.413   .     S
C343   O371    1.282   .     A
C343   O373    1.283   .     A
C344   C346    1.398   .     A
C344   F362    1.359   .     S
C344   C585    1.373   1_545 S
C345   C351    1.413   .     S
C345   C357    1.398   .     A
C345   C358    1.398   .     A
C346   C356    1.398   .     A
C347   N370    1.367   .     A
C347   F363    1.355   .     S
C348   N369    1.367   .     A
C348   F364    1.355   .     S
C348   C692    1.418   .     S
C349   N369    1.367   .     A
C349   F365    1.355   .     S
C349   C689    1.418   .     S
C350   F366    1.355   .     S
C350   N370    1.367   .     A
C351   O372    1.282   .     A
C351   O374    1.283   .     A
C352   O377    1.282   .     A
C352   C354    1.403   .     S
C352   O375    1.279   .     A
C353   C355    1.403   .     S
C353   O378    1.282   .     A
C353   O376    1.279   .     A
C354   C431    1.330   1_455 S
C354   H443    1.088   1_455 S
C355   C392    1.330   .     S
C355   H406    1.088   .     S
C356   F359    1.359   .     S
C356   C586    1.373   1_545 S
C357   F360    1.359   .     S
C357   C458    1.373   .     S
C358   F361    1.359   .     S
C358   C470    1.373   .     S
H367   C392    1.088   .     S
H368   C431    1.088   1_455 S
N369   Zn379   2.013   .     S
N370   Zn380   2.013   .     S
O371   Zn379   1.992   .     S
O372   Zn380   1.992   .     S
O373   Zn380   1.993   .     S
O374   Zn379   1.993   .     S
O375   Zn379   1.970   .     S
O376   Zn380   1.970   .     S
O377   Zn380   1.982   .     S
O378   Zn379   1.982   .     S
C381   C384    1.413   .     S
C381   O409    1.282   .     A
C381   O411    1.283   .     A
C382   C384    1.398   .     A
C382   F400    1.359   .     S
C382   C623    1.373   1_545 S
C383   C389    1.413   .     S
C383   C395    1.398   .     A
C383   C396    1.398   .     A
C384   C394    1.398   .     A
C385   N408    1.367   .     A
C385   F401    1.355   .     S
C386   N407    1.367   .     A
C386   F402    1.355   .     S
C386   C730    1.418   .     S
C387   N407    1.367   .     A
C387   F403    1.355   .     S
C387   C727    1.418   .     S
C388   F404    1.355   .     S
C388   N408    1.367   .     A
C389   O410    1.282   .     A
C389   O412    1.283   .     A
C390   O415    1.282   .     A
C390   C392    1.403   .     S
C390   O413    1.279   .     A
C391   C393    1.403   .     S
C391   O416    1.282   .     A
C391   O414    1.279   .     A
C393   C430    1.330   .     S
C393   H444    1.088   .     S
C394   F397    1.359   .     S
C394   C624    1.373   1_545 S
C395   F398    1.359   .     S
C395   C496    1.373   .     S
C396   F399    1.359   .     S
C396   C508    1.373   .     S
H405   C430    1.088   .     S
N407   Zn417   2.013   .     S
N408   Zn418   2.013   .     S
O409   Zn417   1.992   .     S
O410   Zn418   1.992   .     S
O411   Zn418   1.993   .     S
O412   Zn417   1.993   .     S
O413   Zn417   1.970   .     S
O414   Zn418   1.970   .     S
O415   Zn418   1.982   .     S
O416   Zn417   1.982   .     S
C419   C422    1.413   .     S
C419   O447    1.282   .     A
C419   O449    1.283   .     A
C420   C422    1.398   .     A
C420   F438    1.359   .     S
C420   C661    1.373   1_545 S
C421   C427    1.413   .     S
C421   C433    1.398   .     A
C421   C434    1.398   .     A
C422   C432    1.398   .     A
C423   N446    1.367   .     A
C423   F439    1.355   .     S
C424   N445    1.367   .     A
C424   F440    1.355   .     S
C424   C768    1.418   .     S
C425   N445    1.367   .     A
C425   F441    1.355   .     S
C425   C765    1.418   .     S
C426   F442    1.355   .     S
C426   N446    1.367   .     A
C427   O448    1.282   .     A
C427   O450    1.283   .     A
C428   O453    1.282   .     A
C428   C430    1.403   .     S
C428   O451    1.279   .     A
C429   C431    1.403   .     S
C429   O454    1.282   .     A
C429   O452    1.279   .     A
C431   C354    1.330   1_655 S
C431   H368    1.088   1_655 S
C432   F435    1.359   .     S
C432   C662    1.373   1_545 S
C433   F436    1.359   .     S
C433   C534    1.373   .     S
C434   F437    1.359   .     S
C434   C546    1.373   .     S
H443   C354    1.088   1_655 S
N445   Zn455   2.013   .     S
N446   Zn456   2.013   .     S
O447   Zn455   1.992   .     S
O448   Zn456   1.992   .     S
O449   Zn456   1.993   .     S
O450   Zn455   1.993   .     S
O451   Zn455   1.970   .     S
O452   Zn456   1.970   .     S
O453   Zn456   1.982   .     S
O454   Zn455   1.982   .     S
C457   C460    1.413   .     S
C457   O485    1.282   .     A
C457   O487    1.283   .     A
C458   C460    1.398   .     A
C458   F476    1.359   .     S
C459   C465    1.413   .     S
C459   C471    1.398   .     A
C459   C472    1.398   .     A
C460   C470    1.398   .     A
C461   N484    1.367   .     A
C461   F477    1.355   .     S
C462   N483    1.367   .     A
C462   F478    1.355   .     S
C462   C806    1.418   .     S
C463   N483    1.367   .     A
C463   F479    1.355   .     S
C463   C803    1.418   .     S
C464   F480    1.355   .     S
C464   N484    1.367   .     A
C465   O486    1.282   .     A
C465   O488    1.283   .     A
C466   O491    1.282   .     A
C466   C468    1.403   .     S
C466   O489    1.279   .     A
C467   C469    1.403   .     S
C467   O492    1.282   .     A
C467   O490    1.279   .     A
C468   C545    1.330   1_455 S
C468   H557    1.088   1_455 S
C469   C506    1.330   .     S
C469   H520    1.088   .     S
C470   F473    1.359   .     S
C471   F474    1.359   .     S
C471   C572    1.373   .     S
C472   F475    1.359   .     S
C472   C584    1.373   .     S
H481   C506    1.088   .     S
H482   C545    1.088   1_455 S
N483   Zn493   2.013   .     S
N484   Zn494   2.013   .     S
O485   Zn493   1.992   .     S
O486   Zn494   1.992   .     S
O487   Zn494   1.993   .     S
O488   Zn493   1.993   .     S
O489   Zn493   1.970   .     S
O490   Zn494   1.970   .     S
O491   Zn494   1.982   .     S
O492   Zn493   1.982   .     S
C495   C498    1.413   .     S
C495   O523    1.282   .     A
C495   O525    1.283   .     A
C496   C498    1.398   .     A
C496   F514    1.359   .     S
C497   C503    1.413   .     S
C497   C509    1.398   .     A
C497   C510    1.398   .     A
C498   C508    1.398   .     A
C499   N522    1.367   .     A
C499   F515    1.355   .     S
C500   N521    1.367   .     A
C500   F516    1.355   .     S
C500   C844    1.418   .     S
C501   N521    1.367   .     A
C501   F517    1.355   .     S
C501   C841    1.418   .     S
C502   F518    1.355   .     S
C502   N522    1.367   .     A
C503   O524    1.282   .     A
C503   O526    1.283   .     A
C504   O529    1.282   .     A
C504   C506    1.403   .     S
C504   O527    1.279   .     A
C505   C507    1.403   .     S
C505   O530    1.282   .     A
C505   O528    1.279   .     A
C507   C544    1.330   .     S
C507   H558    1.088   .     S
C508   F511    1.359   .     S
C509   F512    1.359   .     S
C509   C610    1.373   .     S
C510   F513    1.359   .     S
C510   C622    1.373   .     S
H519   C544    1.088   .     S
N521   Zn531   2.013   .     S
N522   Zn532   2.013   .     S
O523   Zn531   1.992   .     S
O524   Zn532   1.992   .     S
O525   Zn532   1.993   .     S
O526   Zn531   1.993   .     S
O527   Zn531   1.970   .     S
O528   Zn532   1.970   .     S
O529   Zn532   1.982   .     S
O530   Zn531   1.982   .     S
C533   C536    1.413   .     S
C533   O561    1.282   .     A
C533   O563    1.283   .     A
C534   C536    1.398   .     A
C534   F552    1.359   .     S
C535   C541    1.413   .     S
C535   C547    1.398   .     A
C535   C548    1.398   .     A
C536   C546    1.398   .     A
C537   N560    1.367   .     A
C537   F553    1.355   .     S
C538   N559    1.367   .     A
C538   F554    1.355   .     S
C538   C882    1.418   .     S
C539   N559    1.367   .     A
C539   F555    1.355   .     S
C539   C879    1.418   .     S
C540   F556    1.355   .     S
C540   N560    1.367   .     A
C541   O562    1.282   .     A
C541   O564    1.283   .     A
C542   O567    1.282   .     A
C542   C544    1.403   .     S
C542   O565    1.279   .     A
C543   C545    1.403   .     S
C543   O568    1.282   .     A
C543   O566    1.279   .     A
C545   C468    1.330   1_655 S
C545   H482    1.088   1_655 S
C546   F549    1.359   .     S
C547   F550    1.359   .     S
C547   C648    1.373   .     S
C548   F551    1.359   .     S
C548   C660    1.373   .     S
H557   C468    1.088   1_655 S
N559   Zn569   2.013   .     S
N560   Zn570   2.013   .     S
O561   Zn569   1.992   .     S
O562   Zn570   1.992   .     S
O563   Zn570   1.993   .     S
O564   Zn569   1.993   .     S
O565   Zn569   1.970   .     S
O566   Zn570   1.970   .     S
O567   Zn570   1.982   .     S
O568   Zn569   1.982   .     S
C571   C574    1.413   .     S
C571   O599    1.282   .     A
C571   O601    1.283   .     A
C572   C574    1.398   .     A
C572   F590    1.359   .     S
C573   C579    1.413   .     S
C573   C585    1.398   .     A
C573   C586    1.398   .     A
C574   C584    1.398   .     A
C575   N598    1.367   .     A
C575   F591    1.355   .     S
C576   N597    1.367   .     A
C576   F592    1.355   .     S
C576   C920    1.418   .     S
C577   N597    1.367   .     A
C577   F593    1.355   .     S
C577   C917    1.418   .     S
C578   F594    1.355   .     S
C578   N598    1.367   .     A
C579   O600    1.282   .     A
C579   O602    1.283   .     A
C580   O605    1.282   .     A
C580   C582    1.403   .     S
C580   O603    1.279   .     A
C581   C583    1.403   .     S
C581   O606    1.282   .     A
C581   O604    1.279   .     A
C582   C659    1.330   1_455 S
C582   H671    1.088   1_455 S
C583   C620    1.330   .     S
C583   H634    1.088   .     S
C584   F587    1.359   .     S
C585   F588    1.359   .     S
C585   C344    1.373   1_565 S
C586   F589    1.359   .     S
C586   C356    1.373   1_565 S
H595   C620    1.088   .     S
H596   C659    1.088   1_455 S
N597   Zn607   2.013   .     S
N598   Zn608   2.013   .     S
O599   Zn607   1.992   .     S
O600   Zn608   1.992   .     S
O601   Zn608   1.993   .     S
O602   Zn607   1.993   .     S
O603   Zn607   1.970   .     S
O604   Zn608   1.970   .     S
O605   Zn608   1.982   .     S
O606   Zn607   1.982   .     S
C609   C612    1.413   .     S
C609   O637    1.282   .     A
C609   O639    1.283   .     A
C610   C612    1.398   .     A
C610   F628    1.359   .     S
C611   C617    1.413   .     S
C611   C623    1.398   .     A
C611   C624    1.398   .     A
C612   C622    1.398   .     A
C613   N636    1.367   .     A
C613   F629    1.355   .     S
C614   N635    1.367   .     A
C614   F630    1.355   .     S
C614   C958    1.418   .     S
C615   N635    1.367   .     A
C615   F631    1.355   .     S
C615   C955    1.418   .     S
C616   F632    1.355   .     S
C616   N636    1.367   .     A
C617   O638    1.282   .     A
C617   O640    1.283   .     A
C618   O643    1.282   .     A
C618   C620    1.403   .     S
C618   O641    1.279   .     A
C619   C621    1.403   .     S
C619   O644    1.282   .     A
C619   O642    1.279   .     A
C621   C658    1.330   .     S
C621   H672    1.088   .     S
C622   F625    1.359   .     S
C623   F626    1.359   .     S
C623   C382    1.373   1_565 S
C624   F627    1.359   .     S
C624   C394    1.373   1_565 S
H633   C658    1.088   .     S
N635   Zn645   2.013   .     S
N636   Zn646   2.013   .     S
O637   Zn645   1.992   .     S
O638   Zn646   1.992   .     S
O639   Zn646   1.993   .     S
O640   Zn645   1.993   .     S
O641   Zn645   1.970   .     S
O642   Zn646   1.970   .     S
O643   Zn646   1.982   .     S
O644   Zn645   1.982   .     S
C647   C650    1.413   .     S
C647   O675    1.282   .     A
C647   O677    1.283   .     A
C648   C650    1.398   .     A
C648   F666    1.359   .     S
C649   C655    1.413   .     S
C649   C661    1.398   .     A
C649   C662    1.398   .     A
C650   C660    1.398   .     A
C651   N674    1.367   .     A
C651   F667    1.355   .     S
C652   N673    1.367   .     A
C652   F668    1.355   .     S
C652   C996    1.418   .     S
C653   N673    1.367   .     A
C653   F669    1.355   .     S
C653   C993    1.418   .     S
C654   F670    1.355   .     S
C654   N674    1.367   .     A
C655   O676    1.282   .     A
C655   O678    1.283   .     A
C656   O681    1.282   .     A
C656   C658    1.403   .     S
C656   O679    1.279   .     A
C657   C659    1.403   .     S
C657   O682    1.282   .     A
C657   O680    1.279   .     A
C659   C582    1.330   1_655 S
C659   H596    1.088   1_655 S
C660   F663    1.359   .     S
C661   F664    1.359   .     S
C661   C420    1.373   1_565 S
C662   F665    1.359   .     S
C662   C432    1.373   1_565 S
H671   C582    1.088   1_655 S
N673   Zn683   2.013   .     S
N674   Zn684   2.013   .     S
O675   Zn683   1.992   .     S
O676   Zn684   1.992   .     S
O677   Zn684   1.993   .     S
O678   Zn683   1.993   .     S
O679   Zn683   1.970   .     S
O680   Zn684   1.970   .     S
O681   Zn684   1.982   .     S
O682   Zn683   1.982   .     S
C685   C688    1.413   .     S
C685   O713    1.282   .     A
C685   O715    1.283   .     A
C686   C688    1.398   .     A
C686   F704    1.359   .     S
C686   C927    1.373   1_545 S
C687   C693    1.413   .     S
C687   C699    1.398   .     A
C687   C700    1.398   .     A
C688   C698    1.398   .     A
C689   N712    1.367   .     A
C689   F705    1.355   .     S
C690   N711    1.367   .     A
C690   F706    1.355   .     S
C690   C8      1.418   1_556 S
C691   N711    1.367   .     A
C691   F707    1.355   .     S
C691   C5      1.418   1_556 S
C692   F708    1.355   .     S
C692   N712    1.367   .     A
C693   O714    1.282   .     A
C693   O716    1.283   .     A
C694   O719    1.282   .     A
C694   C696    1.403   .     S
C694   O717    1.279   .     A
C695   C697    1.403   .     S
C695   O720    1.282   .     A
C695   O718    1.279   .     A
C696   C773    1.330   1_455 S
C696   H785    1.088   1_455 S
C697   C734    1.330   .     S
C697   H748    1.088   .     S
C698   F701    1.359   .     S
C698   C928    1.373   1_545 S
C699   F702    1.359   .     S
C699   C800    1.373   .     S
C700   F703    1.359   .     S
C700   C812    1.373   .     S
H709   C734    1.088   .     S
H710   C773    1.088   1_455 S
N711   Zn721   2.013   .     S
N712   Zn722   2.013   .     S
O713   Zn721   1.992   .     S
O714   Zn722   1.992   .     S
O715   Zn722   1.993   .     S
O716   Zn721   1.993   .     S
O717   Zn721   1.970   .     S
O718   Zn722   1.970   .     S
O719   Zn722   1.982   .     S
O720   Zn721   1.982   .     S
C723   C726    1.413   .     S
C723   O751    1.282   .     A
C723   O753    1.283   .     A
C724   C726    1.398   .     A
C724   F742    1.359   .     S
C724   C965    1.373   1_545 S
C725   C731    1.413   .     S
C725   C737    1.398   .     A
C725   C738    1.398   .     A
C726   C736    1.398   .     A
C727   N750    1.367   .     A
C727   F743    1.355   .     S
C728   N749    1.367   .     A
C728   F744    1.355   .     S
C728   C46     1.418   1_556 S
C729   N749    1.367   .     A
C729   F745    1.355   .     S
C729   C43     1.418   1_556 S
C730   F746    1.355   .     S
C730   N750    1.367   .     A
C731   O752    1.282   .     A
C731   O754    1.283   .     A
C732   O757    1.282   .     A
C732   C734    1.403   .     S
C732   O755    1.279   .     A
C733   C735    1.403   .     S
C733   O758    1.282   .     A
C733   O756    1.279   .     A
C735   C772    1.330   .     S
C735   H786    1.088   .     S
C736   F739    1.359   .     S
C736   C966    1.373   1_545 S
C737   F740    1.359   .     S
C737   C838    1.373   .     S
C738   F741    1.359   .     S
C738   C850    1.373   .     S
H747   C772    1.088   .     S
N749   Zn759   2.013   .     S
N750   Zn760   2.013   .     S
O751   Zn759   1.992   .     S
O752   Zn760   1.992   .     S
O753   Zn760   1.993   .     S
O754   Zn759   1.993   .     S
O755   Zn759   1.970   .     S
O756   Zn760   1.970   .     S
O757   Zn760   1.982   .     S
O758   Zn759   1.982   .     S
C761   C764    1.413   .     S
C761   O789    1.282   .     A
C761   O791    1.283   .     A
C762   C764    1.398   .     A
C762   F780    1.359   .     S
C762   C1003   1.373   1_545 S
C763   C769    1.413   .     S
C763   C775    1.398   .     A
C763   C776    1.398   .     A
C764   C774    1.398   .     A
C765   N788    1.367   .     A
C765   F781    1.355   .     S
C766   N787    1.367   .     A
C766   F782    1.355   .     S
C766   C84     1.418   1_556 S
C767   N787    1.367   .     A
C767   F783    1.355   .     S
C767   C81     1.418   1_556 S
C768   F784    1.355   .     S
C768   N788    1.367   .     A
C769   O790    1.282   .     A
C769   O792    1.283   .     A
C770   O795    1.282   .     A
C770   C772    1.403   .     S
C770   O793    1.279   .     A
C771   C773    1.403   .     S
C771   O796    1.282   .     A
C771   O794    1.279   .     A
C773   C696    1.330   1_655 S
C773   H710    1.088   1_655 S
C774   F777    1.359   .     S
C774   C1004   1.373   1_545 S
C775   F778    1.359   .     S
C775   C876    1.373   .     S
C776   F779    1.359   .     S
C776   C888    1.373   .     S
H785   C696    1.088   1_655 S
N787   Zn797   2.013   .     S
N788   Zn798   2.013   .     S
O789   Zn797   1.992   .     S
O790   Zn798   1.992   .     S
O791   Zn798   1.993   .     S
O792   Zn797   1.993   .     S
O793   Zn797   1.970   .     S
O794   Zn798   1.970   .     S
O795   Zn798   1.982   .     S
O796   Zn797   1.982   .     S
C799   C802    1.413   .     S
C799   O827    1.282   .     A
C799   O829    1.283   .     A
C800   C802    1.398   .     A
C800   F818    1.359   .     S
C801   C807    1.413   .     S
C801   C813    1.398   .     A
C801   C814    1.398   .     A
C802   C812    1.398   .     A
C803   N826    1.367   .     A
C803   F819    1.355   .     S
C804   N825    1.367   .     A
C804   F820    1.355   .     S
C804   C122    1.418   1_556 S
C805   N825    1.367   .     A
C805   F821    1.355   .     S
C805   C119    1.418   1_556 S
C806   F822    1.355   .     S
C806   N826    1.367   .     A
C807   O828    1.282   .     A
C807   O830    1.283   .     A
C808   O833    1.282   .     A
C808   C810    1.403   .     S
C808   O831    1.279   .     A
C809   C811    1.403   .     S
C809   O834    1.282   .     A
C809   O832    1.279   .     A
C810   C887    1.330   1_455 S
C810   H899    1.088   1_455 S
C811   C848    1.330   .     S
C811   H862    1.088   .     S
C812   F815    1.359   .     S
C813   F816    1.359   .     S
C813   C914    1.373   .     S
C814   F817    1.359   .     S
C814   C926    1.373   .     S
H823   C848    1.088   .     S
H824   C887    1.088   1_455 S
N825   Zn835   2.013   .     S
N826   Zn836   2.013   .     S
O827   Zn835   1.992   .     S
O828   Zn836   1.992   .     S
O829   Zn836   1.993   .     S
O830   Zn835   1.993   .     S
O831   Zn835   1.970   .     S
O832   Zn836   1.970   .     S
O833   Zn836   1.982   .     S
O834   Zn835   1.982   .     S
C837   C840    1.413   .     S
C837   O865    1.282   .     A
C837   O867    1.283   .     A
C838   C840    1.398   .     A
C838   F856    1.359   .     S
C839   C845    1.413   .     S
C839   C851    1.398   .     A
C839   C852    1.398   .     A
C840   C850    1.398   .     A
C841   N864    1.367   .     A
C841   F857    1.355   .     S
C842   N863    1.367   .     A
C842   F858    1.355   .     S
C842   C160    1.418   1_556 S
C843   N863    1.367   .     A
C843   F859    1.355   .     S
C843   C157    1.418   1_556 S
C844   F860    1.355   .     S
C844   N864    1.367   .     A
C845   O866    1.282   .     A
C845   O868    1.283   .     A
C846   O871    1.282   .     A
C846   C848    1.403   .     S
C846   O869    1.279   .     A
C847   C849    1.403   .     S
C847   O872    1.282   .     A
C847   O870    1.279   .     A
C849   C886    1.330   .     S
C849   H900    1.088   .     S
C850   F853    1.359   .     S
C851   F854    1.359   .     S
C851   C952    1.373   .     S
C852   F855    1.359   .     S
C852   C964    1.373   .     S
H861   C886    1.088   .     S
N863   Zn873   2.013   .     S
N864   Zn874   2.013   .     S
O865   Zn873   1.992   .     S
O866   Zn874   1.992   .     S
O867   Zn874   1.993   .     S
O868   Zn873   1.993   .     S
O869   Zn873   1.970   .     S
O870   Zn874   1.970   .     S
O871   Zn874   1.982   .     S
O872   Zn873   1.982   .     S
C875   C878    1.413   .     S
C875   O903    1.282   .     A
C875   O905    1.283   .     A
C876   C878    1.398   .     A
C876   F894    1.359   .     S
C877   C883    1.413   .     S
C877   C889    1.398   .     A
C877   C890    1.398   .     A
C878   C888    1.398   .     A
C879   N902    1.367   .     A
C879   F895    1.355   .     S
C880   N901    1.367   .     A
C880   F896    1.355   .     S
C880   C198    1.418   1_556 S
C881   N901    1.367   .     A
C881   F897    1.355   .     S
C881   C195    1.418   1_556 S
C882   F898    1.355   .     S
C882   N902    1.367   .     A
C883   O904    1.282   .     A
C883   O906    1.283   .     A
C884   O909    1.282   .     A
C884   C886    1.403   .     S
C884   O907    1.279   .     A
C885   C887    1.403   .     S
C885   O910    1.282   .     A
C885   O908    1.279   .     A
C887   C810    1.330   1_655 S
C887   H824    1.088   1_655 S
C888   F891    1.359   .     S
C889   F892    1.359   .     S
C889   C990    1.373   .     S
C890   F893    1.359   .     S
C890   C1002   1.373   .     S
H899   C810    1.088   1_655 S
N901   Zn911   2.013   .     S
N902   Zn912   2.013   .     S
O903   Zn911   1.992   .     S
O904   Zn912   1.992   .     S
O905   Zn912   1.993   .     S
O906   Zn911   1.993   .     S
O907   Zn911   1.970   .     S
O908   Zn912   1.970   .     S
O909   Zn912   1.982   .     S
O910   Zn911   1.982   .     S
C913   C916    1.413   .     S
C913   O941    1.282   .     A
C913   O943    1.283   .     A
C914   C916    1.398   .     A
C914   F932    1.359   .     S
C915   C921    1.413   .     S
C915   C927    1.398   .     A
C915   C928    1.398   .     A
C916   C926    1.398   .     A
C917   N940    1.367   .     A
C917   F933    1.355   .     S
C918   N939    1.367   .     A
C918   F934    1.355   .     S
C918   C236    1.418   1_556 S
C919   N939    1.367   .     A
C919   F935    1.355   .     S
C919   C233    1.418   1_556 S
C920   F936    1.355   .     S
C920   N940    1.367   .     A
C921   O942    1.282   .     A
C921   O944    1.283   .     A
C922   O947    1.282   .     A
C922   C924    1.403   .     S
C922   O945    1.279   .     A
C923   C925    1.403   .     S
C923   O948    1.282   .     A
C923   O946    1.279   .     A
C924   C1001   1.330   1_455 S
C924   H1013   1.088   1_455 S
C925   C962    1.330   .     S
C925   H976    1.088   .     S
C926   F929    1.359   .     S
C927   F930    1.359   .     S
C927   C686    1.373   1_565 S
C928   F931    1.359   .     S
C928   C698    1.373   1_565 S
H937   C962    1.088   .     S
H938   C1001   1.088   1_455 S
N939   Zn949   2.013   .     S
N940   Zn950   2.013   .     S
O941   Zn949   1.992   .     S
O942   Zn950   1.992   .     S
O943   Zn950   1.993   .     S
O944   Zn949   1.993   .     S
O945   Zn949   1.970   .     S
O946   Zn950   1.970   .     S
O947   Zn950   1.982   .     S
O948   Zn949   1.982   .     S
C951   C954    1.413   .     S
C951   O979    1.282   .     A
C951   O981    1.283   .     A
C952   C954    1.398   .     A
C952   F970    1.359   .     S
C953   C959    1.413   .     S
C953   C965    1.398   .     A
C953   C966    1.398   .     A
C954   C964    1.398   .     A
C955   N978    1.367   .     A
C955   F971    1.355   .     S
C956   N977    1.367   .     A
C956   F972    1.355   .     S
C956   C274    1.418   1_556 S
C957   N977    1.367   .     A
C957   F973    1.355   .     S
C957   C271    1.418   1_556 S
C958   F974    1.355   .     S
C958   N978    1.367   .     A
C959   O980    1.282   .     A
C959   O982    1.283   .     A
C960   O985    1.282   .     A
C960   C962    1.403   .     S
C960   O983    1.279   .     A
C961   C963    1.403   .     S
C961   O986    1.282   .     A
C961   O984    1.279   .     A
C963   C1000   1.330   .     S
C963   H1014   1.088   .     S
C964   F967    1.359   .     S
C965   F968    1.359   .     S
C965   C724    1.373   1_565 S
C966   F969    1.359   .     S
C966   C736    1.373   1_565 S
H975   C1000   1.088   .     S
N977   Zn987   2.013   .     S
N978   Zn988   2.013   .     S
O979   Zn987   1.992   .     S
O980   Zn988   1.992   .     S
O981   Zn988   1.993   .     S
O982   Zn987   1.993   .     S
O983   Zn987   1.970   .     S
O984   Zn988   1.970   .     S
O985   Zn988   1.982   .     S
O986   Zn987   1.982   .     S
C989   C992    1.413   .     S
C989   O1017   1.282   .     A
C989   O1019   1.283   .     A
C990   C992    1.398   .     A
C990   F1008   1.359   .     S
C991   C997    1.413   .     S
C991   C1003   1.398   .     A
C991   C1004   1.398   .     A
C992   C1002   1.398   .     A
C993   N1016   1.367   .     A
C993   F1009   1.355   .     S
C994   N1015   1.367   .     A
C994   F1010   1.355   .     S
C994   C312    1.418   1_556 S
C995   N1015   1.367   .     A
C995   F1011   1.355   .     S
C995   C309    1.418   1_556 S
C996   F1012   1.355   .     S
C996   N1016   1.367   .     A
C997   O1018   1.282   .     A
C997   O1020   1.283   .     A
C998   O1023   1.282   .     A
C998   C1000   1.403   .     S
C998   O1021   1.279   .     A
C999   C1001   1.403   .     S
C999   O1024   1.282   .     A
C999   O1022   1.279   .     A
C1001  C924    1.330   1_655 S
C1001  H938    1.088   1_655 S
C1002  F1005   1.359   .     S
C1003  F1006   1.359   .     S
C1003  C762    1.373   1_565 S
C1004  F1007   1.359   .     S
C1004  C774    1.373   1_565 S
H1013  C924    1.088   1_655 S
N1015  Zn1025  2.013   .     S
N1016  Zn1026  2.013   .     S
O1017  Zn1025  1.992   .     S
O1018  Zn1026  1.992   .     S
O1019  Zn1026  1.993   .     S
O1020  Zn1025  1.993   .     S
O1021  Zn1025  1.970   .     S
O1022  Zn1026  1.970   .     S
O1023  Zn1026  1.982   .     S
O1024  Zn1025  1.982   .     S
