data_str_m3_o10_o18_pcu_sym.18
_audit_creation_date              2020-01-03
_audit_creation_method            'Materials Studio'
_symmetry_space_group_name_H-M    'P1'
_symmetry_Int_Tables_number       1
_symmetry_cell_setting            triclinic
loop_
_symmetry_equiv_pos_as_xyz
  x,y,z
_cell_length_a                    23.8284
_cell_length_b                    25.5315
_cell_length_c                    27.2750
_cell_angle_alpha                 96.0493
_cell_angle_beta                  92.3830
_cell_angle_gamma                 92.4248
loop_
_atom_site_label
_atom_site_type_symbol
_atom_site_fract_x
_atom_site_fract_y
_atom_site_fract_z
_atom_site_U_iso_or_equiv
_atom_site_adp_type
_atom_site_occupancy
O1     O     0.29719   0.24631   0.25309   0.00000  Uiso   1.00
O2     O     0.03614   0.08702   0.24690   0.00000  Uiso   1.00
O3     O     0.05822   0.23702   0.24501   0.00000  Uiso   1.00
O4     O     0.27512   0.09632   0.25498   0.00000  Uiso   1.00
C5     C     0.01386   0.26459   0.24822   0.00000  Uiso   1.00
C6     C     0.31948   0.06875   0.25178   0.00000  Uiso   1.00
O7     O     0.30328   0.17397   0.32247   0.00000  Uiso   1.00
O8     O     0.03005   0.15937   0.17753   0.00000  Uiso   1.00
O9     O     0.06431   0.16467   0.31439   0.00000  Uiso   1.00
O10    O     0.26902   0.16866   0.18561   0.00000  Uiso   1.00
C11    C     0.02037   0.17073   0.34155   0.00000  Uiso   1.00
C12    C     0.31297   0.16260   0.15845   0.00000  Uiso   1.00
Zn13   Zn    0.27033   0.17287   0.25539   0.00000  Uiso   1.00
Zn14   Zn    0.06300   0.16046   0.24460   0.00000  Uiso   1.00
C15    C     0.02950   0.17622   0.39549   0.00000  Uiso   1.00
C16    C     0.30384   0.15712   0.10451   0.00000  Uiso   1.00
C17    C     0.02027   0.22572   0.47526   0.00000  Uiso   1.00
C18    C     0.31309   0.10764   0.02473   0.00000  Uiso   1.00
C19    C     0.33057   0.20832   0.42807   0.00000  Uiso   1.00
C20    C     0.00278   0.12504   0.07192   0.00000  Uiso   1.00
C21    C     0.07843   0.15539   0.41336   0.00000  Uiso   1.00
C22    C     0.25490   0.17794   0.08663   0.00000  Uiso   1.00
C23    C     0.10127   0.17163   0.46082   0.00000  Uiso   1.00
C24    C     0.23208   0.16172   0.03917   0.00000  Uiso   1.00
C25    C     0.07311   0.21002   0.49055   0.00000  Uiso   1.00
C26    C     0.26025   0.12333   0.00943   0.00000  Uiso   1.00
C27    C     0.15361   0.15403   0.47774   0.00000  Uiso   1.00
C28    C     0.17975   0.17932   0.02225   0.00000  Uiso   1.00
C29    C     0.15256   0.22109   0.04854   0.00000  Uiso   1.00
C30    C     0.18081   0.11226   0.45144   0.00000  Uiso   1.00
C31    C     0.09905   0.23429   0.03410   0.00000  Uiso   1.00
C32    C     0.23432   0.09907   0.46588   0.00000  Uiso   1.00
H33    H     0.07883   0.26528   0.05613   0.00000  Uiso   1.00
H34    H     0.25455   0.06810   0.44384   0.00000  Uiso   1.00
H35    H     0.23249   0.20314   0.11243   0.00000  Uiso   1.00
H36    H     0.10081   0.13017   0.38758   0.00000  Uiso   1.00
H37    H     0.33082   0.25263   0.49969   0.00000  Uiso   1.00
H38    H     0.00256   0.08074   0.00030   0.00000  Uiso   1.00
H39    H     0.17140   0.24461   0.08058   0.00000  Uiso   1.00
H40    H     0.16199   0.08876   0.41938   0.00000  Uiso   1.00
C41    C     0.01560   0.31649   0.23672   0.00000  Uiso   1.00
C42    C     0.31774   0.01684   0.26327   0.00000  Uiso   1.00
N43    N     0.14695   0.15216   0.23739   0.00000  Uiso   1.00
N44    N     0.18638   0.18117   0.26260   0.00000  Uiso   1.00
N45    N     0.05754   0.10869   0.08593   0.00000  Uiso   1.00
O46    O     0.09541   0.14378   0.10529   0.00000  Uiso   1.00
O47    O     0.07383   0.06276   0.06820   0.00000  Uiso   1.00
N48    N     0.27581   0.22467   0.41407   0.00000  Uiso   1.00
O49    O     0.25953   0.27060   0.43180   0.00000  Uiso   1.00
O50    O     0.23793   0.18959   0.39471   0.00000  Uiso   1.00
I51    I     0.04035   0.32551   0.16371   0.00000  Uiso   1.00
I52    I     0.29298   0.00782   0.33629   0.00000  Uiso   1.00
I53    I     0.16897   0.08862   0.18956   0.00000  Uiso   1.00
I54    I     0.16436   0.24472   0.31043   0.00000  Uiso   1.00
O55    O     0.63052   0.24631   0.25309   0.00000  Uiso   1.00
O56    O     0.36948   0.08702   0.24690   0.00000  Uiso   1.00
O57    O     0.39155   0.23702   0.24501   0.00000  Uiso   1.00
O58    O     0.60845   0.09632   0.25498   0.00000  Uiso   1.00
C59    C     0.34719   0.26459   0.24822   0.00000  Uiso   1.00
C60    C     0.65281   0.06875   0.25178   0.00000  Uiso   1.00
O61    O     0.63662   0.17397   0.32247   0.00000  Uiso   1.00
O62    O     0.36338   0.15937   0.17753   0.00000  Uiso   1.00
O63    O     0.39764   0.16467   0.31439   0.00000  Uiso   1.00
O64    O     0.60236   0.16866   0.18561   0.00000  Uiso   1.00
C65    C     0.35370   0.17073   0.34155   0.00000  Uiso   1.00
C66    C     0.64630   0.16260   0.15845   0.00000  Uiso   1.00
Zn67   Zn    0.60366   0.17287   0.25539   0.00000  Uiso   1.00
Zn68   Zn    0.39634   0.16046   0.24460   0.00000  Uiso   1.00
C69    C     0.36283   0.17622   0.39549   0.00000  Uiso   1.00
C70    C     0.63717   0.15712   0.10451   0.00000  Uiso   1.00
C71    C     0.35360   0.22572   0.47526   0.00000  Uiso   1.00
C72    C     0.64643   0.10764   0.02473   0.00000  Uiso   1.00
C73    C     0.66391   0.20832   0.42807   0.00000  Uiso   1.00
C74    C     0.33611   0.12504   0.07192   0.00000  Uiso   1.00
C75    C     0.41176   0.15539   0.41336   0.00000  Uiso   1.00
C76    C     0.58823   0.17794   0.08663   0.00000  Uiso   1.00
C77    C     0.43461   0.17163   0.46082   0.00000  Uiso   1.00
C78    C     0.56541   0.16172   0.03917   0.00000  Uiso   1.00
C79    C     0.40645   0.21002   0.49055   0.00000  Uiso   1.00
C80    C     0.59358   0.12333   0.00943   0.00000  Uiso   1.00
C81    C     0.48694   0.15403   0.47774   0.00000  Uiso   1.00
C82    C     0.51308   0.17932   0.02225   0.00000  Uiso   1.00
C83    C     0.48589   0.22109   0.04854   0.00000  Uiso   1.00
C84    C     0.51414   0.11226   0.45144   0.00000  Uiso   1.00
C85    C     0.43238   0.23429   0.03410   0.00000  Uiso   1.00
C86    C     0.56766   0.09907   0.46588   0.00000  Uiso   1.00
H87    H     0.41216   0.26528   0.05613   0.00000  Uiso   1.00
H88    H     0.58788   0.06810   0.44384   0.00000  Uiso   1.00
H89    H     0.56583   0.20314   0.11243   0.00000  Uiso   1.00
H90    H     0.43415   0.13017   0.38758   0.00000  Uiso   1.00
H91    H     0.66415   0.25263   0.49969   0.00000  Uiso   1.00
H92    H     0.33589   0.08074   0.00030   0.00000  Uiso   1.00
H93    H     0.50473   0.24461   0.08058   0.00000  Uiso   1.00
H94    H     0.49532   0.08876   0.41938   0.00000  Uiso   1.00
C95    C     0.34893   0.31649   0.23672   0.00000  Uiso   1.00
C96    C     0.65107   0.01684   0.26327   0.00000  Uiso   1.00
N97    N     0.48029   0.15216   0.23739   0.00000  Uiso   1.00
N98    N     0.51971   0.18117   0.26260   0.00000  Uiso   1.00
N99    N     0.39087   0.10869   0.08593   0.00000  Uiso   1.00
O100   O     0.42875   0.14378   0.10529   0.00000  Uiso   1.00
O101   O     0.40716   0.06276   0.06820   0.00000  Uiso   1.00
N102   N     0.60915   0.22467   0.41407   0.00000  Uiso   1.00
O103   O     0.59286   0.27060   0.43180   0.00000  Uiso   1.00
O104   O     0.57127   0.18959   0.39471   0.00000  Uiso   1.00
I105   I     0.37369   0.32551   0.16371   0.00000  Uiso   1.00
I106   I     0.62631   0.00782   0.33629   0.00000  Uiso   1.00
I107   I     0.50230   0.08862   0.18956   0.00000  Uiso   1.00
I108   I     0.49770   0.24472   0.31043   0.00000  Uiso   1.00
O109   O     0.96386   0.24631   0.25309   0.00000  Uiso   1.00
O110   O     0.70281   0.08702   0.24690   0.00000  Uiso   1.00
O111   O     0.72488   0.23702   0.24501   0.00000  Uiso   1.00
O112   O     0.94178   0.09632   0.25498   0.00000  Uiso   1.00
C113   C     0.68052   0.26459   0.24822   0.00000  Uiso   1.00
C114   C     0.98614   0.06875   0.25178   0.00000  Uiso   1.00
O115   O     0.96995   0.17397   0.32247   0.00000  Uiso   1.00
O116   O     0.69672   0.15937   0.17753   0.00000  Uiso   1.00
O117   O     0.73098   0.16467   0.31439   0.00000  Uiso   1.00
O118   O     0.93569   0.16866   0.18561   0.00000  Uiso   1.00
C119   C     0.68703   0.17073   0.34155   0.00000  Uiso   1.00
C120   C     0.97963   0.16260   0.15845   0.00000  Uiso   1.00
Zn121  Zn    0.93700   0.17287   0.25539   0.00000  Uiso   1.00
Zn122  Zn    0.72967   0.16046   0.24460   0.00000  Uiso   1.00
C123   C     0.69617   0.17622   0.39549   0.00000  Uiso   1.00
C124   C     0.97050   0.15712   0.10451   0.00000  Uiso   1.00
C125   C     0.68693   0.22572   0.47526   0.00000  Uiso   1.00
C126   C     0.97976   0.10764   0.02473   0.00000  Uiso   1.00
C127   C     0.99724   0.20832   0.42807   0.00000  Uiso   1.00
C128   C     0.66944   0.12504   0.07192   0.00000  Uiso   1.00
C129   C     0.74510   0.15539   0.41336   0.00000  Uiso   1.00
C130   C     0.92157   0.17794   0.08663   0.00000  Uiso   1.00
C131   C     0.76794   0.17163   0.46082   0.00000  Uiso   1.00
C132   C     0.89874   0.16172   0.03917   0.00000  Uiso   1.00
C133   C     0.73978   0.21002   0.49055   0.00000  Uiso   1.00
C134   C     0.92691   0.12333   0.00943   0.00000  Uiso   1.00
C135   C     0.82028   0.15403   0.47774   0.00000  Uiso   1.00
C136   C     0.84641   0.17932   0.02225   0.00000  Uiso   1.00
C137   C     0.81922   0.22109   0.04854   0.00000  Uiso   1.00
C138   C     0.84748   0.11226   0.45144   0.00000  Uiso   1.00
C139   C     0.76572   0.23429   0.03410   0.00000  Uiso   1.00
C140   C     0.90099   0.09907   0.46588   0.00000  Uiso   1.00
H141   H     0.74550   0.26528   0.05613   0.00000  Uiso   1.00
H142   H     0.92122   0.06810   0.44384   0.00000  Uiso   1.00
H143   H     0.89916   0.20314   0.11243   0.00000  Uiso   1.00
H144   H     0.76748   0.13017   0.38758   0.00000  Uiso   1.00
H145   H     0.99748   0.25263   0.49969   0.00000  Uiso   1.00
H146   H     0.66922   0.08074   0.00030   0.00000  Uiso   1.00
H147   H     0.83806   0.24461   0.08058   0.00000  Uiso   1.00
H148   H     0.82865   0.08876   0.41938   0.00000  Uiso   1.00
C149   C     0.68226   0.31649   0.23672   0.00000  Uiso   1.00
C150   C     0.98440   0.01684   0.26327   0.00000  Uiso   1.00
N151   N     0.81362   0.15216   0.23739   0.00000  Uiso   1.00
N152   N     0.85305   0.18117   0.26260   0.00000  Uiso   1.00
N153   N     0.72420   0.10869   0.08593   0.00000  Uiso   1.00
O154   O     0.76208   0.14378   0.10529   0.00000  Uiso   1.00
O155   O     0.74050   0.06276   0.06820   0.00000  Uiso   1.00
N156   N     0.94248   0.22467   0.41407   0.00000  Uiso   1.00
O157   O     0.92620   0.27060   0.43180   0.00000  Uiso   1.00
O158   O     0.90460   0.18959   0.39471   0.00000  Uiso   1.00
I159   I     0.70702   0.32551   0.16371   0.00000  Uiso   1.00
I160   I     0.95965   0.00782   0.33629   0.00000  Uiso   1.00
I161   I     0.83564   0.08862   0.18956   0.00000  Uiso   1.00
I162   I     0.83103   0.24472   0.31043   0.00000  Uiso   1.00
O163   O     0.29719   0.57964   0.25309   0.00000  Uiso   1.00
O164   O     0.03614   0.42036   0.24690   0.00000  Uiso   1.00
O165   O     0.05822   0.57035   0.24501   0.00000  Uiso   1.00
O166   O     0.27512   0.42965   0.25498   0.00000  Uiso   1.00
C167   C     0.01386   0.59792   0.24822   0.00000  Uiso   1.00
C168   C     0.31948   0.40208   0.25178   0.00000  Uiso   1.00
O169   O     0.30328   0.50730   0.32247   0.00000  Uiso   1.00
O170   O     0.03005   0.49270   0.17753   0.00000  Uiso   1.00
O171   O     0.06431   0.49801   0.31439   0.00000  Uiso   1.00
O172   O     0.26902   0.50199   0.18561   0.00000  Uiso   1.00
C173   C     0.02037   0.50407   0.34155   0.00000  Uiso   1.00
C174   C     0.31297   0.49593   0.15845   0.00000  Uiso   1.00
Zn175  Zn    0.27033   0.50621   0.25539   0.00000  Uiso   1.00
Zn176  Zn    0.06300   0.49379   0.24460   0.00000  Uiso   1.00
C177   C     0.02950   0.50955   0.39549   0.00000  Uiso   1.00
C178   C     0.30384   0.49045   0.10451   0.00000  Uiso   1.00
C179   C     0.02027   0.55905   0.47526   0.00000  Uiso   1.00
C180   C     0.31309   0.44097   0.02473   0.00000  Uiso   1.00
C181   C     0.33057   0.54165   0.42807   0.00000  Uiso   1.00
C182   C     0.00278   0.45837   0.07192   0.00000  Uiso   1.00
C183   C     0.07843   0.48872   0.41336   0.00000  Uiso   1.00
C184   C     0.25490   0.51127   0.08663   0.00000  Uiso   1.00
C185   C     0.10127   0.50496   0.46082   0.00000  Uiso   1.00
C186   C     0.23208   0.49505   0.03917   0.00000  Uiso   1.00
C187   C     0.07311   0.54336   0.49055   0.00000  Uiso   1.00
C188   C     0.26025   0.45666   0.00943   0.00000  Uiso   1.00
C189   C     0.15361   0.48736   0.47774   0.00000  Uiso   1.00
C190   C     0.17975   0.51265   0.02225   0.00000  Uiso   1.00
C191   C     0.15256   0.55443   0.04854   0.00000  Uiso   1.00
C192   C     0.18081   0.44560   0.45144   0.00000  Uiso   1.00
C193   C     0.09905   0.56763   0.03410   0.00000  Uiso   1.00
C194   C     0.23432   0.43240   0.46588   0.00000  Uiso   1.00
H195   H     0.07883   0.59861   0.05613   0.00000  Uiso   1.00
H196   H     0.25455   0.40143   0.44384   0.00000  Uiso   1.00
H197   H     0.23249   0.53647   0.11243   0.00000  Uiso   1.00
H198   H     0.10081   0.46350   0.38758   0.00000  Uiso   1.00
H199   H     0.33082   0.58596   0.49969   0.00000  Uiso   1.00
H200   H     0.00256   0.41408   0.00030   0.00000  Uiso   1.00
H201   H     0.17140   0.57794   0.08058   0.00000  Uiso   1.00
H202   H     0.16199   0.42209   0.41938   0.00000  Uiso   1.00
C203   C     0.01560   0.64983   0.23672   0.00000  Uiso   1.00
C204   C     0.31774   0.35017   0.26327   0.00000  Uiso   1.00
N205   N     0.14695   0.48550   0.23739   0.00000  Uiso   1.00
N206   N     0.18638   0.51450   0.26260   0.00000  Uiso   1.00
N207   N     0.05754   0.44202   0.08593   0.00000  Uiso   1.00
O208   O     0.09541   0.47711   0.10529   0.00000  Uiso   1.00
O209   O     0.07383   0.39610   0.06820   0.00000  Uiso   1.00
N210   N     0.27581   0.55801   0.41407   0.00000  Uiso   1.00
O211   O     0.25953   0.60393   0.43180   0.00000  Uiso   1.00
O212   O     0.23793   0.52292   0.39471   0.00000  Uiso   1.00
I213   I     0.04035   0.65885   0.16371   0.00000  Uiso   1.00
I214   I     0.29298   0.34115   0.33629   0.00000  Uiso   1.00
I215   I     0.16897   0.42195   0.18956   0.00000  Uiso   1.00
I216   I     0.16436   0.57805   0.31043   0.00000  Uiso   1.00
O217   O     0.63052   0.57964   0.25309   0.00000  Uiso   1.00
O218   O     0.36948   0.42036   0.24690   0.00000  Uiso   1.00
O219   O     0.39155   0.57035   0.24501   0.00000  Uiso   1.00
O220   O     0.60845   0.42965   0.25498   0.00000  Uiso   1.00
C221   C     0.34719   0.59792   0.24822   0.00000  Uiso   1.00
C222   C     0.65281   0.40208   0.25178   0.00000  Uiso   1.00
O223   O     0.63662   0.50730   0.32247   0.00000  Uiso   1.00
O224   O     0.36338   0.49270   0.17753   0.00000  Uiso   1.00
O225   O     0.39764   0.49801   0.31439   0.00000  Uiso   1.00
O226   O     0.60236   0.50199   0.18561   0.00000  Uiso   1.00
C227   C     0.35370   0.50407   0.34155   0.00000  Uiso   1.00
C228   C     0.64630   0.49593   0.15845   0.00000  Uiso   1.00
Zn229  Zn    0.60366   0.50621   0.25539   0.00000  Uiso   1.00
Zn230  Zn    0.39634   0.49379   0.24460   0.00000  Uiso   1.00
C231   C     0.36283   0.50955   0.39549   0.00000  Uiso   1.00
C232   C     0.63717   0.49045   0.10451   0.00000  Uiso   1.00
C233   C     0.35360   0.55905   0.47526   0.00000  Uiso   1.00
C234   C     0.64643   0.44097   0.02473   0.00000  Uiso   1.00
C235   C     0.66391   0.54165   0.42807   0.00000  Uiso   1.00
C236   C     0.33611   0.45837   0.07192   0.00000  Uiso   1.00
C237   C     0.41176   0.48872   0.41336   0.00000  Uiso   1.00
C238   C     0.58823   0.51127   0.08663   0.00000  Uiso   1.00
C239   C     0.43461   0.50496   0.46082   0.00000  Uiso   1.00
C240   C     0.56541   0.49505   0.03917   0.00000  Uiso   1.00
C241   C     0.40645   0.54336   0.49055   0.00000  Uiso   1.00
C242   C     0.59358   0.45666   0.00943   0.00000  Uiso   1.00
C243   C     0.48694   0.48736   0.47774   0.00000  Uiso   1.00
C244   C     0.51308   0.51265   0.02225   0.00000  Uiso   1.00
C245   C     0.48589   0.55443   0.04854   0.00000  Uiso   1.00
C246   C     0.51414   0.44560   0.45144   0.00000  Uiso   1.00
C247   C     0.43238   0.56763   0.03410   0.00000  Uiso   1.00
C248   C     0.56766   0.43240   0.46588   0.00000  Uiso   1.00
H249   H     0.41216   0.59861   0.05613   0.00000  Uiso   1.00
H250   H     0.58788   0.40143   0.44384   0.00000  Uiso   1.00
H251   H     0.56583   0.53647   0.11243   0.00000  Uiso   1.00
H252   H     0.43415   0.46350   0.38758   0.00000  Uiso   1.00
H253   H     0.66415   0.58596   0.49969   0.00000  Uiso   1.00
H254   H     0.33589   0.41408   0.00030   0.00000  Uiso   1.00
H255   H     0.50473   0.57794   0.08058   0.00000  Uiso   1.00
H256   H     0.49532   0.42209   0.41938   0.00000  Uiso   1.00
C257   C     0.34893   0.64983   0.23672   0.00000  Uiso   1.00
C258   C     0.65107   0.35017   0.26327   0.00000  Uiso   1.00
N259   N     0.48029   0.48550   0.23739   0.00000  Uiso   1.00
N260   N     0.51971   0.51450   0.26260   0.00000  Uiso   1.00
N261   N     0.39087   0.44202   0.08593   0.00000  Uiso   1.00
O262   O     0.42875   0.47711   0.10529   0.00000  Uiso   1.00
O263   O     0.40716   0.39610   0.06820   0.00000  Uiso   1.00
N264   N     0.60915   0.55801   0.41407   0.00000  Uiso   1.00
O265   O     0.59286   0.60393   0.43180   0.00000  Uiso   1.00
O266   O     0.57127   0.52292   0.39471   0.00000  Uiso   1.00
I267   I     0.37369   0.65885   0.16371   0.00000  Uiso   1.00
I268   I     0.62631   0.34115   0.33629   0.00000  Uiso   1.00
I269   I     0.50230   0.42195   0.18956   0.00000  Uiso   1.00
I270   I     0.49770   0.57805   0.31043   0.00000  Uiso   1.00
O271   O     0.96386   0.57964   0.25309   0.00000  Uiso   1.00
O272   O     0.70281   0.42036   0.24690   0.00000  Uiso   1.00
O273   O     0.72488   0.57035   0.24501   0.00000  Uiso   1.00
O274   O     0.94178   0.42965   0.25498   0.00000  Uiso   1.00
C275   C     0.68052   0.59792   0.24822   0.00000  Uiso   1.00
C276   C     0.98614   0.40208   0.25178   0.00000  Uiso   1.00
O277   O     0.96995   0.50730   0.32247   0.00000  Uiso   1.00
O278   O     0.69672   0.49270   0.17753   0.00000  Uiso   1.00
O279   O     0.73098   0.49801   0.31439   0.00000  Uiso   1.00
O280   O     0.93569   0.50199   0.18561   0.00000  Uiso   1.00
C281   C     0.68703   0.50407   0.34155   0.00000  Uiso   1.00
C282   C     0.97963   0.49593   0.15845   0.00000  Uiso   1.00
Zn283  Zn    0.93700   0.50621   0.25539   0.00000  Uiso   1.00
Zn284  Zn    0.72967   0.49379   0.24460   0.00000  Uiso   1.00
C285   C     0.69617   0.50955   0.39549   0.00000  Uiso   1.00
C286   C     0.97050   0.49045   0.10451   0.00000  Uiso   1.00
C287   C     0.68693   0.55905   0.47526   0.00000  Uiso   1.00
C288   C     0.97976   0.44097   0.02473   0.00000  Uiso   1.00
C289   C     0.99724   0.54165   0.42807   0.00000  Uiso   1.00
C290   C     0.66944   0.45837   0.07192   0.00000  Uiso   1.00
C291   C     0.74510   0.48872   0.41336   0.00000  Uiso   1.00
C292   C     0.92157   0.51127   0.08663   0.00000  Uiso   1.00
C293   C     0.76794   0.50496   0.46082   0.00000  Uiso   1.00
C294   C     0.89874   0.49505   0.03917   0.00000  Uiso   1.00
C295   C     0.73978   0.54336   0.49055   0.00000  Uiso   1.00
C296   C     0.92691   0.45666   0.00943   0.00000  Uiso   1.00
C297   C     0.82028   0.48736   0.47774   0.00000  Uiso   1.00
C298   C     0.84641   0.51265   0.02225   0.00000  Uiso   1.00
C299   C     0.81922   0.55443   0.04854   0.00000  Uiso   1.00
C300   C     0.84748   0.44560   0.45144   0.00000  Uiso   1.00
C301   C     0.76572   0.56763   0.03410   0.00000  Uiso   1.00
C302   C     0.90099   0.43240   0.46588   0.00000  Uiso   1.00
H303   H     0.74550   0.59861   0.05613   0.00000  Uiso   1.00
H304   H     0.92122   0.40143   0.44384   0.00000  Uiso   1.00
H305   H     0.89916   0.53647   0.11243   0.00000  Uiso   1.00
H306   H     0.76748   0.46350   0.38758   0.00000  Uiso   1.00
H307   H     0.99748   0.58596   0.49969   0.00000  Uiso   1.00
H308   H     0.66922   0.41408   0.00030   0.00000  Uiso   1.00
H309   H     0.83806   0.57794   0.08058   0.00000  Uiso   1.00
H310   H     0.82865   0.42209   0.41938   0.00000  Uiso   1.00
C311   C     0.68226   0.64983   0.23672   0.00000  Uiso   1.00
C312   C     0.98440   0.35017   0.26327   0.00000  Uiso   1.00
N313   N     0.81362   0.48550   0.23739   0.00000  Uiso   1.00
N314   N     0.85305   0.51450   0.26260   0.00000  Uiso   1.00
N315   N     0.72420   0.44202   0.08593   0.00000  Uiso   1.00
O316   O     0.76208   0.47711   0.10529   0.00000  Uiso   1.00
O317   O     0.74050   0.39610   0.06820   0.00000  Uiso   1.00
N318   N     0.94248   0.55801   0.41407   0.00000  Uiso   1.00
O319   O     0.92620   0.60393   0.43180   0.00000  Uiso   1.00
O320   O     0.90460   0.52292   0.39471   0.00000  Uiso   1.00
I321   I     0.70702   0.65885   0.16371   0.00000  Uiso   1.00
I322   I     0.95965   0.34115   0.33629   0.00000  Uiso   1.00
I323   I     0.83564   0.42195   0.18956   0.00000  Uiso   1.00
I324   I     0.83103   0.57805   0.31043   0.00000  Uiso   1.00
O325   O     0.29719   0.91298   0.25309   0.00000  Uiso   1.00
O326   O     0.03614   0.75369   0.24690   0.00000  Uiso   1.00
O327   O     0.05822   0.90368   0.24501   0.00000  Uiso   1.00
O328   O     0.27512   0.76298   0.25498   0.00000  Uiso   1.00
C329   C     0.01386   0.93125   0.24822   0.00000  Uiso   1.00
C330   C     0.31948   0.73541   0.25178   0.00000  Uiso   1.00
O331   O     0.30328   0.84063   0.32247   0.00000  Uiso   1.00
O332   O     0.03005   0.82603   0.17753   0.00000  Uiso   1.00
O333   O     0.06431   0.83134   0.31439   0.00000  Uiso   1.00
O334   O     0.26902   0.83533   0.18561   0.00000  Uiso   1.00
C335   C     0.02037   0.83740   0.34155   0.00000  Uiso   1.00
C336   C     0.31297   0.82927   0.15845   0.00000  Uiso   1.00
Zn337  Zn    0.27033   0.83954   0.25539   0.00000  Uiso   1.00
Zn338  Zn    0.06300   0.82713   0.24460   0.00000  Uiso   1.00
C339   C     0.02950   0.84289   0.39549   0.00000  Uiso   1.00
C340   C     0.30384   0.82378   0.10451   0.00000  Uiso   1.00
C341   C     0.02027   0.89239   0.47526   0.00000  Uiso   1.00
C342   C     0.31309   0.77431   0.02473   0.00000  Uiso   1.00
C343   C     0.33057   0.87498   0.42807   0.00000  Uiso   1.00
C344   C     0.00278   0.79170   0.07192   0.00000  Uiso   1.00
C345   C     0.07843   0.82206   0.41336   0.00000  Uiso   1.00
C346   C     0.25490   0.84460   0.08663   0.00000  Uiso   1.00
C347   C     0.10127   0.83829   0.46082   0.00000  Uiso   1.00
C348   C     0.23208   0.82838   0.03917   0.00000  Uiso   1.00
C349   C     0.07311   0.87669   0.49055   0.00000  Uiso   1.00
C350   C     0.26025   0.79000   0.00943   0.00000  Uiso   1.00
C351   C     0.15361   0.82070   0.47774   0.00000  Uiso   1.00
C352   C     0.17975   0.84598   0.02225   0.00000  Uiso   1.00
C353   C     0.15256   0.88776   0.04854   0.00000  Uiso   1.00
C354   C     0.18081   0.77893   0.45144   0.00000  Uiso   1.00
C355   C     0.09905   0.90096   0.03410   0.00000  Uiso   1.00
C356   C     0.23432   0.76574   0.46588   0.00000  Uiso   1.00
H357   H     0.07883   0.93195   0.05613   0.00000  Uiso   1.00
H358   H     0.25455   0.73476   0.44384   0.00000  Uiso   1.00
H359   H     0.23249   0.86981   0.11243   0.00000  Uiso   1.00
H360   H     0.10081   0.79683   0.38758   0.00000  Uiso   1.00
H361   H     0.33082   0.91929   0.49969   0.00000  Uiso   1.00
H362   H     0.00256   0.74741   0.00030   0.00000  Uiso   1.00
H363   H     0.17140   0.91127   0.08058   0.00000  Uiso   1.00
H364   H     0.16199   0.75542   0.41938   0.00000  Uiso   1.00
C365   C     0.01560   0.98316   0.23672   0.00000  Uiso   1.00
C366   C     0.31774   0.68351   0.26327   0.00000  Uiso   1.00
N367   N     0.14695   0.81883   0.23739   0.00000  Uiso   1.00
N368   N     0.18638   0.84784   0.26260   0.00000  Uiso   1.00
N369   N     0.05754   0.77535   0.08593   0.00000  Uiso   1.00
O370   O     0.09541   0.81045   0.10529   0.00000  Uiso   1.00
O371   O     0.07383   0.72943   0.06820   0.00000  Uiso   1.00
N372   N     0.27581   0.89134   0.41407   0.00000  Uiso   1.00
O373   O     0.25953   0.93727   0.43180   0.00000  Uiso   1.00
O374   O     0.23793   0.85626   0.39471   0.00000  Uiso   1.00
I375   I     0.04035   0.99218   0.16371   0.00000  Uiso   1.00
I376   I     0.29298   0.67449   0.33629   0.00000  Uiso   1.00
I377   I     0.16897   0.75529   0.18956   0.00000  Uiso   1.00
I378   I     0.16436   0.91138   0.31043   0.00000  Uiso   1.00
O379   O     0.63052   0.91298   0.25309   0.00000  Uiso   1.00
O380   O     0.36948   0.75369   0.24690   0.00000  Uiso   1.00
O381   O     0.39155   0.90368   0.24501   0.00000  Uiso   1.00
O382   O     0.60845   0.76298   0.25498   0.00000  Uiso   1.00
C383   C     0.34719   0.93125   0.24822   0.00000  Uiso   1.00
C384   C     0.65281   0.73541   0.25178   0.00000  Uiso   1.00
O385   O     0.63662   0.84063   0.32247   0.00000  Uiso   1.00
O386   O     0.36338   0.82603   0.17753   0.00000  Uiso   1.00
O387   O     0.39764   0.83134   0.31439   0.00000  Uiso   1.00
O388   O     0.60236   0.83533   0.18561   0.00000  Uiso   1.00
C389   C     0.35370   0.83740   0.34155   0.00000  Uiso   1.00
C390   C     0.64630   0.82927   0.15845   0.00000  Uiso   1.00
Zn391  Zn    0.60366   0.83954   0.25539   0.00000  Uiso   1.00
Zn392  Zn    0.39634   0.82713   0.24460   0.00000  Uiso   1.00
C393   C     0.36283   0.84289   0.39549   0.00000  Uiso   1.00
C394   C     0.63717   0.82378   0.10451   0.00000  Uiso   1.00
C395   C     0.35360   0.89239   0.47526   0.00000  Uiso   1.00
C396   C     0.64643   0.77431   0.02473   0.00000  Uiso   1.00
C397   C     0.66391   0.87498   0.42807   0.00000  Uiso   1.00
C398   C     0.33611   0.79170   0.07192   0.00000  Uiso   1.00
C399   C     0.41176   0.82206   0.41336   0.00000  Uiso   1.00
C400   C     0.58823   0.84460   0.08663   0.00000  Uiso   1.00
C401   C     0.43461   0.83829   0.46082   0.00000  Uiso   1.00
C402   C     0.56541   0.82838   0.03917   0.00000  Uiso   1.00
C403   C     0.40645   0.87669   0.49055   0.00000  Uiso   1.00
C404   C     0.59358   0.79000   0.00943   0.00000  Uiso   1.00
C405   C     0.48694   0.82070   0.47774   0.00000  Uiso   1.00
C406   C     0.51308   0.84598   0.02225   0.00000  Uiso   1.00
C407   C     0.48589   0.88776   0.04854   0.00000  Uiso   1.00
C408   C     0.51414   0.77893   0.45144   0.00000  Uiso   1.00
C409   C     0.43238   0.90096   0.03410   0.00000  Uiso   1.00
C410   C     0.56766   0.76574   0.46588   0.00000  Uiso   1.00
H411   H     0.41216   0.93195   0.05613   0.00000  Uiso   1.00
H412   H     0.58788   0.73476   0.44384   0.00000  Uiso   1.00
H413   H     0.56583   0.86981   0.11243   0.00000  Uiso   1.00
H414   H     0.43415   0.79683   0.38758   0.00000  Uiso   1.00
H415   H     0.66415   0.91929   0.49969   0.00000  Uiso   1.00
H416   H     0.33589   0.74741   0.00030   0.00000  Uiso   1.00
H417   H     0.50473   0.91127   0.08058   0.00000  Uiso   1.00
H418   H     0.49532   0.75542   0.41938   0.00000  Uiso   1.00
C419   C     0.34893   0.98316   0.23672   0.00000  Uiso   1.00
C420   C     0.65107   0.68351   0.26327   0.00000  Uiso   1.00
N421   N     0.48029   0.81883   0.23739   0.00000  Uiso   1.00
N422   N     0.51971   0.84784   0.26260   0.00000  Uiso   1.00
N423   N     0.39087   0.77535   0.08593   0.00000  Uiso   1.00
O424   O     0.42875   0.81045   0.10529   0.00000  Uiso   1.00
O425   O     0.40716   0.72943   0.06820   0.00000  Uiso   1.00
N426   N     0.60915   0.89134   0.41407   0.00000  Uiso   1.00
O427   O     0.59286   0.93727   0.43180   0.00000  Uiso   1.00
O428   O     0.57127   0.85626   0.39471   0.00000  Uiso   1.00
I429   I     0.37369   0.99218   0.16371   0.00000  Uiso   1.00
I430   I     0.62631   0.67449   0.33629   0.00000  Uiso   1.00
I431   I     0.50230   0.75529   0.18956   0.00000  Uiso   1.00
I432   I     0.49770   0.91138   0.31043   0.00000  Uiso   1.00
O433   O     0.96386   0.91298   0.25309   0.00000  Uiso   1.00
O434   O     0.70281   0.75369   0.24690   0.00000  Uiso   1.00
O435   O     0.72488   0.90368   0.24501   0.00000  Uiso   1.00
O436   O     0.94178   0.76298   0.25498   0.00000  Uiso   1.00
C437   C     0.68052   0.93125   0.24822   0.00000  Uiso   1.00
C438   C     0.98614   0.73541   0.25178   0.00000  Uiso   1.00
O439   O     0.96995   0.84063   0.32247   0.00000  Uiso   1.00
O440   O     0.69672   0.82603   0.17753   0.00000  Uiso   1.00
O441   O     0.73098   0.83134   0.31439   0.00000  Uiso   1.00
O442   O     0.93569   0.83533   0.18561   0.00000  Uiso   1.00
C443   C     0.68703   0.83740   0.34155   0.00000  Uiso   1.00
C444   C     0.97963   0.82927   0.15845   0.00000  Uiso   1.00
Zn445  Zn    0.93700   0.83954   0.25539   0.00000  Uiso   1.00
Zn446  Zn    0.72967   0.82713   0.24460   0.00000  Uiso   1.00
C447   C     0.69617   0.84289   0.39549   0.00000  Uiso   1.00
C448   C     0.97050   0.82378   0.10451   0.00000  Uiso   1.00
C449   C     0.68693   0.89239   0.47526   0.00000  Uiso   1.00
C450   C     0.97976   0.77431   0.02473   0.00000  Uiso   1.00
C451   C     0.99724   0.87498   0.42807   0.00000  Uiso   1.00
C452   C     0.66944   0.79170   0.07192   0.00000  Uiso   1.00
C453   C     0.74510   0.82206   0.41336   0.00000  Uiso   1.00
C454   C     0.92157   0.84460   0.08663   0.00000  Uiso   1.00
C455   C     0.76794   0.83829   0.46082   0.00000  Uiso   1.00
C456   C     0.89874   0.82838   0.03917   0.00000  Uiso   1.00
C457   C     0.73978   0.87669   0.49055   0.00000  Uiso   1.00
C458   C     0.92691   0.79000   0.00943   0.00000  Uiso   1.00
C459   C     0.82028   0.82070   0.47774   0.00000  Uiso   1.00
C460   C     0.84641   0.84598   0.02225   0.00000  Uiso   1.00
C461   C     0.81922   0.88776   0.04854   0.00000  Uiso   1.00
C462   C     0.84748   0.77893   0.45144   0.00000  Uiso   1.00
C463   C     0.76572   0.90096   0.03410   0.00000  Uiso   1.00
C464   C     0.90099   0.76574   0.46588   0.00000  Uiso   1.00
H465   H     0.74550   0.93195   0.05613   0.00000  Uiso   1.00
H466   H     0.92122   0.73476   0.44384   0.00000  Uiso   1.00
H467   H     0.89916   0.86981   0.11243   0.00000  Uiso   1.00
H468   H     0.76748   0.79683   0.38758   0.00000  Uiso   1.00
H469   H     0.99748   0.91929   0.49969   0.00000  Uiso   1.00
H470   H     0.66922   0.74741   0.00030   0.00000  Uiso   1.00
H471   H     0.83806   0.91127   0.08058   0.00000  Uiso   1.00
H472   H     0.82865   0.75542   0.41938   0.00000  Uiso   1.00
C473   C     0.68226   0.98316   0.23672   0.00000  Uiso   1.00
C474   C     0.98440   0.68351   0.26327   0.00000  Uiso   1.00
N475   N     0.81362   0.81883   0.23739   0.00000  Uiso   1.00
N476   N     0.85305   0.84784   0.26260   0.00000  Uiso   1.00
N477   N     0.72420   0.77535   0.08593   0.00000  Uiso   1.00
O478   O     0.76208   0.81045   0.10529   0.00000  Uiso   1.00
O479   O     0.74050   0.72943   0.06820   0.00000  Uiso   1.00
N480   N     0.94248   0.89134   0.41407   0.00000  Uiso   1.00
O481   O     0.92620   0.93727   0.43180   0.00000  Uiso   1.00
O482   O     0.90460   0.85626   0.39471   0.00000  Uiso   1.00
I483   I     0.70702   0.99218   0.16371   0.00000  Uiso   1.00
I484   I     0.95965   0.67449   0.33629   0.00000  Uiso   1.00
I485   I     0.83564   0.75529   0.18956   0.00000  Uiso   1.00
I486   I     0.83103   0.91138   0.31043   0.00000  Uiso   1.00
O487   O     0.29719   0.24631   0.75309   0.00000  Uiso   1.00
O488   O     0.03614   0.08702   0.74690   0.00000  Uiso   1.00
O489   O     0.05822   0.23702   0.74501   0.00000  Uiso   1.00
O490   O     0.27512   0.09632   0.75498   0.00000  Uiso   1.00
C491   C     0.01386   0.26459   0.74822   0.00000  Uiso   1.00
C492   C     0.31948   0.06875   0.75178   0.00000  Uiso   1.00
O493   O     0.30328   0.17397   0.82247   0.00000  Uiso   1.00
O494   O     0.03005   0.15937   0.67753   0.00000  Uiso   1.00
O495   O     0.06431   0.16467   0.81439   0.00000  Uiso   1.00
O496   O     0.26902   0.16866   0.68561   0.00000  Uiso   1.00
C497   C     0.02037   0.17073   0.84155   0.00000  Uiso   1.00
C498   C     0.31297   0.16260   0.65845   0.00000  Uiso   1.00
Zn499  Zn    0.27033   0.17287   0.75539   0.00000  Uiso   1.00
Zn500  Zn    0.06300   0.16046   0.74460   0.00000  Uiso   1.00
C501   C     0.02950   0.17622   0.89549   0.00000  Uiso   1.00
C502   C     0.30384   0.15712   0.60451   0.00000  Uiso   1.00
C503   C     0.02027   0.22572   0.97526   0.00000  Uiso   1.00
C504   C     0.31309   0.10764   0.52473   0.00000  Uiso   1.00
C505   C     0.33057   0.20832   0.92807   0.00000  Uiso   1.00
C506   C     0.00278   0.12504   0.57192   0.00000  Uiso   1.00
C507   C     0.07843   0.15539   0.91336   0.00000  Uiso   1.00
C508   C     0.25490   0.17794   0.58663   0.00000  Uiso   1.00
C509   C     0.10127   0.17163   0.96082   0.00000  Uiso   1.00
C510   C     0.23208   0.16172   0.53917   0.00000  Uiso   1.00
C511   C     0.07311   0.21002   0.99055   0.00000  Uiso   1.00
C512   C     0.26025   0.12333   0.50943   0.00000  Uiso   1.00
C513   C     0.15361   0.15403   0.97774   0.00000  Uiso   1.00
C514   C     0.17975   0.17932   0.52225   0.00000  Uiso   1.00
C515   C     0.15256   0.22109   0.54854   0.00000  Uiso   1.00
C516   C     0.18081   0.11226   0.95144   0.00000  Uiso   1.00
C517   C     0.09905   0.23429   0.53410   0.00000  Uiso   1.00
C518   C     0.23432   0.09907   0.96588   0.00000  Uiso   1.00
H519   H     0.07883   0.26528   0.55613   0.00000  Uiso   1.00
H520   H     0.25455   0.06810   0.94384   0.00000  Uiso   1.00
H521   H     0.23249   0.20314   0.61243   0.00000  Uiso   1.00
H522   H     0.10081   0.13017   0.88758   0.00000  Uiso   1.00
H523   H     0.33082   0.25263   0.99969   0.00000  Uiso   1.00
H524   H     0.00256   0.08074   0.50030   0.00000  Uiso   1.00
H525   H     0.17140   0.24461   0.58058   0.00000  Uiso   1.00
H526   H     0.16199   0.08876   0.91938   0.00000  Uiso   1.00
C527   C     0.01560   0.31649   0.73672   0.00000  Uiso   1.00
C528   C     0.31774   0.01684   0.76327   0.00000  Uiso   1.00
N529   N     0.14695   0.15216   0.73739   0.00000  Uiso   1.00
N530   N     0.18638   0.18117   0.76260   0.00000  Uiso   1.00
N531   N     0.05754   0.10869   0.58593   0.00000  Uiso   1.00
O532   O     0.09541   0.14378   0.60529   0.00000  Uiso   1.00
O533   O     0.07383   0.06276   0.56820   0.00000  Uiso   1.00
N534   N     0.27581   0.22467   0.91407   0.00000  Uiso   1.00
O535   O     0.25953   0.27060   0.93180   0.00000  Uiso   1.00
O536   O     0.23793   0.18959   0.89471   0.00000  Uiso   1.00
I537   I     0.04035   0.32551   0.66371   0.00000  Uiso   1.00
I538   I     0.29298   0.00782   0.83629   0.00000  Uiso   1.00
I539   I     0.16897   0.08862   0.68956   0.00000  Uiso   1.00
I540   I     0.16436   0.24472   0.81043   0.00000  Uiso   1.00
O541   O     0.63052   0.24631   0.75309   0.00000  Uiso   1.00
O542   O     0.36948   0.08702   0.74690   0.00000  Uiso   1.00
O543   O     0.39155   0.23702   0.74501   0.00000  Uiso   1.00
O544   O     0.60845   0.09632   0.75498   0.00000  Uiso   1.00
C545   C     0.34719   0.26459   0.74822   0.00000  Uiso   1.00
C546   C     0.65281   0.06875   0.75178   0.00000  Uiso   1.00
O547   O     0.63662   0.17397   0.82247   0.00000  Uiso   1.00
O548   O     0.36338   0.15937   0.67753   0.00000  Uiso   1.00
O549   O     0.39764   0.16467   0.81439   0.00000  Uiso   1.00
O550   O     0.60236   0.16866   0.68561   0.00000  Uiso   1.00
C551   C     0.35370   0.17073   0.84155   0.00000  Uiso   1.00
C552   C     0.64630   0.16260   0.65845   0.00000  Uiso   1.00
Zn553  Zn    0.60366   0.17287   0.75539   0.00000  Uiso   1.00
Zn554  Zn    0.39634   0.16046   0.74460   0.00000  Uiso   1.00
C555   C     0.36283   0.17622   0.89549   0.00000  Uiso   1.00
C556   C     0.63717   0.15712   0.60451   0.00000  Uiso   1.00
C557   C     0.35360   0.22572   0.97526   0.00000  Uiso   1.00
C558   C     0.64643   0.10764   0.52473   0.00000  Uiso   1.00
C559   C     0.66391   0.20832   0.92807   0.00000  Uiso   1.00
C560   C     0.33611   0.12504   0.57192   0.00000  Uiso   1.00
C561   C     0.41176   0.15539   0.91336   0.00000  Uiso   1.00
C562   C     0.58823   0.17794   0.58663   0.00000  Uiso   1.00
C563   C     0.43461   0.17163   0.96082   0.00000  Uiso   1.00
C564   C     0.56541   0.16172   0.53917   0.00000  Uiso   1.00
C565   C     0.40645   0.21002   0.99055   0.00000  Uiso   1.00
C566   C     0.59358   0.12333   0.50943   0.00000  Uiso   1.00
C567   C     0.48694   0.15403   0.97774   0.00000  Uiso   1.00
C568   C     0.51308   0.17932   0.52225   0.00000  Uiso   1.00
C569   C     0.48589   0.22109   0.54854   0.00000  Uiso   1.00
C570   C     0.51414   0.11226   0.95144   0.00000  Uiso   1.00
C571   C     0.43238   0.23429   0.53410   0.00000  Uiso   1.00
C572   C     0.56766   0.09907   0.96588   0.00000  Uiso   1.00
H573   H     0.41216   0.26528   0.55613   0.00000  Uiso   1.00
H574   H     0.58788   0.06810   0.94384   0.00000  Uiso   1.00
H575   H     0.56583   0.20314   0.61243   0.00000  Uiso   1.00
H576   H     0.43415   0.13017   0.88758   0.00000  Uiso   1.00
H577   H     0.66415   0.25263   0.99969   0.00000  Uiso   1.00
H578   H     0.33589   0.08074   0.50030   0.00000  Uiso   1.00
H579   H     0.50473   0.24461   0.58058   0.00000  Uiso   1.00
H580   H     0.49532   0.08876   0.91938   0.00000  Uiso   1.00
C581   C     0.34893   0.31649   0.73672   0.00000  Uiso   1.00
C582   C     0.65107   0.01684   0.76327   0.00000  Uiso   1.00
N583   N     0.48029   0.15216   0.73739   0.00000  Uiso   1.00
N584   N     0.51971   0.18117   0.76260   0.00000  Uiso   1.00
N585   N     0.39087   0.10869   0.58593   0.00000  Uiso   1.00
O586   O     0.42875   0.14378   0.60529   0.00000  Uiso   1.00
O587   O     0.40716   0.06276   0.56820   0.00000  Uiso   1.00
N588   N     0.60915   0.22467   0.91407   0.00000  Uiso   1.00
O589   O     0.59286   0.27060   0.93180   0.00000  Uiso   1.00
O590   O     0.57127   0.18959   0.89471   0.00000  Uiso   1.00
I591   I     0.37369   0.32551   0.66371   0.00000  Uiso   1.00
I592   I     0.62631   0.00782   0.83629   0.00000  Uiso   1.00
I593   I     0.50230   0.08862   0.68956   0.00000  Uiso   1.00
I594   I     0.49770   0.24472   0.81043   0.00000  Uiso   1.00
O595   O     0.96386   0.24631   0.75309   0.00000  Uiso   1.00
O596   O     0.70281   0.08702   0.74690   0.00000  Uiso   1.00
O597   O     0.72488   0.23702   0.74501   0.00000  Uiso   1.00
O598   O     0.94178   0.09632   0.75498   0.00000  Uiso   1.00
C599   C     0.68052   0.26459   0.74822   0.00000  Uiso   1.00
C600   C     0.98614   0.06875   0.75178   0.00000  Uiso   1.00
O601   O     0.96995   0.17397   0.82247   0.00000  Uiso   1.00
O602   O     0.69672   0.15937   0.67753   0.00000  Uiso   1.00
O603   O     0.73098   0.16467   0.81439   0.00000  Uiso   1.00
O604   O     0.93569   0.16866   0.68561   0.00000  Uiso   1.00
C605   C     0.68703   0.17073   0.84155   0.00000  Uiso   1.00
C606   C     0.97963   0.16260   0.65845   0.00000  Uiso   1.00
Zn607  Zn    0.93700   0.17287   0.75539   0.00000  Uiso   1.00
Zn608  Zn    0.72967   0.16046   0.74460   0.00000  Uiso   1.00
C609   C     0.69617   0.17622   0.89549   0.00000  Uiso   1.00
C610   C     0.97050   0.15712   0.60451   0.00000  Uiso   1.00
C611   C     0.68693   0.22572   0.97526   0.00000  Uiso   1.00
C612   C     0.97976   0.10764   0.52473   0.00000  Uiso   1.00
C613   C     0.99724   0.20832   0.92807   0.00000  Uiso   1.00
C614   C     0.66944   0.12504   0.57192   0.00000  Uiso   1.00
C615   C     0.74510   0.15539   0.91336   0.00000  Uiso   1.00
C616   C     0.92157   0.17794   0.58663   0.00000  Uiso   1.00
C617   C     0.76794   0.17163   0.96082   0.00000  Uiso   1.00
C618   C     0.89874   0.16172   0.53917   0.00000  Uiso   1.00
C619   C     0.73978   0.21002   0.99055   0.00000  Uiso   1.00
C620   C     0.92691   0.12333   0.50943   0.00000  Uiso   1.00
C621   C     0.82028   0.15403   0.97774   0.00000  Uiso   1.00
C622   C     0.84641   0.17932   0.52225   0.00000  Uiso   1.00
C623   C     0.81922   0.22109   0.54854   0.00000  Uiso   1.00
C624   C     0.84748   0.11226   0.95144   0.00000  Uiso   1.00
C625   C     0.76572   0.23429   0.53410   0.00000  Uiso   1.00
C626   C     0.90099   0.09907   0.96588   0.00000  Uiso   1.00
H627   H     0.74550   0.26528   0.55613   0.00000  Uiso   1.00
H628   H     0.92122   0.06810   0.94384   0.00000  Uiso   1.00
H629   H     0.89916   0.20314   0.61243   0.00000  Uiso   1.00
H630   H     0.76748   0.13017   0.88758   0.00000  Uiso   1.00
H631   H     0.99748   0.25263   0.99969   0.00000  Uiso   1.00
H632   H     0.66922   0.08074   0.50030   0.00000  Uiso   1.00
H633   H     0.83806   0.24461   0.58058   0.00000  Uiso   1.00
H634   H     0.82865   0.08876   0.91938   0.00000  Uiso   1.00
C635   C     0.68226   0.31649   0.73672   0.00000  Uiso   1.00
C636   C     0.98440   0.01684   0.76327   0.00000  Uiso   1.00
N637   N     0.81362   0.15216   0.73739   0.00000  Uiso   1.00
N638   N     0.85305   0.18117   0.76260   0.00000  Uiso   1.00
N639   N     0.72420   0.10869   0.58593   0.00000  Uiso   1.00
O640   O     0.76208   0.14378   0.60529   0.00000  Uiso   1.00
O641   O     0.74050   0.06276   0.56820   0.00000  Uiso   1.00
N642   N     0.94248   0.22467   0.91407   0.00000  Uiso   1.00
O643   O     0.92620   0.27060   0.93180   0.00000  Uiso   1.00
O644   O     0.90460   0.18959   0.89471   0.00000  Uiso   1.00
I645   I     0.70702   0.32551   0.66371   0.00000  Uiso   1.00
I646   I     0.95965   0.00782   0.83629   0.00000  Uiso   1.00
I647   I     0.83564   0.08862   0.68956   0.00000  Uiso   1.00
I648   I     0.83103   0.24472   0.81043   0.00000  Uiso   1.00
O649   O     0.29719   0.57964   0.75309   0.00000  Uiso   1.00
O650   O     0.03614   0.42036   0.74690   0.00000  Uiso   1.00
O651   O     0.05822   0.57035   0.74501   0.00000  Uiso   1.00
O652   O     0.27512   0.42965   0.75498   0.00000  Uiso   1.00
C653   C     0.01386   0.59792   0.74822   0.00000  Uiso   1.00
C654   C     0.31948   0.40208   0.75178   0.00000  Uiso   1.00
O655   O     0.30328   0.50730   0.82247   0.00000  Uiso   1.00
O656   O     0.03005   0.49270   0.67753   0.00000  Uiso   1.00
O657   O     0.06431   0.49801   0.81439   0.00000  Uiso   1.00
O658   O     0.26902   0.50199   0.68561   0.00000  Uiso   1.00
C659   C     0.02037   0.50407   0.84155   0.00000  Uiso   1.00
C660   C     0.31297   0.49593   0.65845   0.00000  Uiso   1.00
Zn661  Zn    0.27033   0.50621   0.75539   0.00000  Uiso   1.00
Zn662  Zn    0.06300   0.49379   0.74460   0.00000  Uiso   1.00
C663   C     0.02950   0.50955   0.89549   0.00000  Uiso   1.00
C664   C     0.30384   0.49045   0.60451   0.00000  Uiso   1.00
C665   C     0.02027   0.55905   0.97526   0.00000  Uiso   1.00
C666   C     0.31309   0.44097   0.52473   0.00000  Uiso   1.00
C667   C     0.33057   0.54165   0.92807   0.00000  Uiso   1.00
C668   C     0.00278   0.45837   0.57192   0.00000  Uiso   1.00
C669   C     0.07843   0.48872   0.91336   0.00000  Uiso   1.00
C670   C     0.25490   0.51127   0.58663   0.00000  Uiso   1.00
C671   C     0.10127   0.50496   0.96082   0.00000  Uiso   1.00
C672   C     0.23208   0.49505   0.53917   0.00000  Uiso   1.00
C673   C     0.07311   0.54336   0.99055   0.00000  Uiso   1.00
C674   C     0.26025   0.45666   0.50943   0.00000  Uiso   1.00
C675   C     0.15361   0.48736   0.97774   0.00000  Uiso   1.00
C676   C     0.17975   0.51265   0.52225   0.00000  Uiso   1.00
C677   C     0.15256   0.55443   0.54854   0.00000  Uiso   1.00
C678   C     0.18081   0.44560   0.95144   0.00000  Uiso   1.00
C679   C     0.09905   0.56763   0.53410   0.00000  Uiso   1.00
C680   C     0.23432   0.43240   0.96588   0.00000  Uiso   1.00
H681   H     0.07883   0.59861   0.55613   0.00000  Uiso   1.00
H682   H     0.25455   0.40143   0.94384   0.00000  Uiso   1.00
H683   H     0.23249   0.53647   0.61243   0.00000  Uiso   1.00
H684   H     0.10081   0.46350   0.88758   0.00000  Uiso   1.00
H685   H     0.33082   0.58596   0.99969   0.00000  Uiso   1.00
H686   H     0.00256   0.41408   0.50030   0.00000  Uiso   1.00
H687   H     0.17140   0.57794   0.58058   0.00000  Uiso   1.00
H688   H     0.16199   0.42209   0.91938   0.00000  Uiso   1.00
C689   C     0.01560   0.64983   0.73672   0.00000  Uiso   1.00
C690   C     0.31774   0.35017   0.76327   0.00000  Uiso   1.00
N691   N     0.14695   0.48550   0.73739   0.00000  Uiso   1.00
N692   N     0.18638   0.51450   0.76260   0.00000  Uiso   1.00
N693   N     0.05754   0.44202   0.58593   0.00000  Uiso   1.00
O694   O     0.09541   0.47711   0.60529   0.00000  Uiso   1.00
O695   O     0.07383   0.39610   0.56820   0.00000  Uiso   1.00
N696   N     0.27581   0.55801   0.91407   0.00000  Uiso   1.00
O697   O     0.25953   0.60393   0.93180   0.00000  Uiso   1.00
O698   O     0.23793   0.52292   0.89471   0.00000  Uiso   1.00
I699   I     0.04035   0.65885   0.66371   0.00000  Uiso   1.00
I700   I     0.29298   0.34115   0.83629   0.00000  Uiso   1.00
I701   I     0.16897   0.42195   0.68956   0.00000  Uiso   1.00
I702   I     0.16436   0.57805   0.81043   0.00000  Uiso   1.00
O703   O     0.63052   0.57964   0.75309   0.00000  Uiso   1.00
O704   O     0.36948   0.42036   0.74690   0.00000  Uiso   1.00
O705   O     0.39155   0.57035   0.74501   0.00000  Uiso   1.00
O706   O     0.60845   0.42965   0.75498   0.00000  Uiso   1.00
C707   C     0.34719   0.59792   0.74822   0.00000  Uiso   1.00
C708   C     0.65281   0.40208   0.75178   0.00000  Uiso   1.00
O709   O     0.63662   0.50730   0.82247   0.00000  Uiso   1.00
O710   O     0.36338   0.49270   0.67753   0.00000  Uiso   1.00
O711   O     0.39764   0.49801   0.81439   0.00000  Uiso   1.00
O712   O     0.60236   0.50199   0.68561   0.00000  Uiso   1.00
C713   C     0.35370   0.50407   0.84155   0.00000  Uiso   1.00
C714   C     0.64630   0.49593   0.65845   0.00000  Uiso   1.00
Zn715  Zn    0.60366   0.50621   0.75539   0.00000  Uiso   1.00
Zn716  Zn    0.39634   0.49379   0.74460   0.00000  Uiso   1.00
C717   C     0.36283   0.50955   0.89549   0.00000  Uiso   1.00
C718   C     0.63717   0.49045   0.60451   0.00000  Uiso   1.00
C719   C     0.35360   0.55905   0.97526   0.00000  Uiso   1.00
C720   C     0.64643   0.44097   0.52473   0.00000  Uiso   1.00
C721   C     0.66391   0.54165   0.92807   0.00000  Uiso   1.00
C722   C     0.33611   0.45837   0.57192   0.00000  Uiso   1.00
C723   C     0.41176   0.48872   0.91336   0.00000  Uiso   1.00
C724   C     0.58823   0.51127   0.58663   0.00000  Uiso   1.00
C725   C     0.43461   0.50496   0.96082   0.00000  Uiso   1.00
C726   C     0.56541   0.49505   0.53917   0.00000  Uiso   1.00
C727   C     0.40645   0.54336   0.99055   0.00000  Uiso   1.00
C728   C     0.59358   0.45666   0.50943   0.00000  Uiso   1.00
C729   C     0.48694   0.48736   0.97774   0.00000  Uiso   1.00
C730   C     0.51308   0.51265   0.52225   0.00000  Uiso   1.00
C731   C     0.48589   0.55443   0.54854   0.00000  Uiso   1.00
C732   C     0.51414   0.44560   0.95144   0.00000  Uiso   1.00
C733   C     0.43238   0.56763   0.53410   0.00000  Uiso   1.00
C734   C     0.56766   0.43240   0.96588   0.00000  Uiso   1.00
H735   H     0.41216   0.59861   0.55613   0.00000  Uiso   1.00
H736   H     0.58788   0.40143   0.94384   0.00000  Uiso   1.00
H737   H     0.56583   0.53647   0.61243   0.00000  Uiso   1.00
H738   H     0.43415   0.46350   0.88758   0.00000  Uiso   1.00
H739   H     0.66415   0.58596   0.99969   0.00000  Uiso   1.00
H740   H     0.33589   0.41408   0.50030   0.00000  Uiso   1.00
H741   H     0.50473   0.57794   0.58058   0.00000  Uiso   1.00
H742   H     0.49532   0.42209   0.91938   0.00000  Uiso   1.00
C743   C     0.34893   0.64983   0.73672   0.00000  Uiso   1.00
C744   C     0.65107   0.35017   0.76327   0.00000  Uiso   1.00
N745   N     0.48029   0.48550   0.73739   0.00000  Uiso   1.00
N746   N     0.51971   0.51450   0.76260   0.00000  Uiso   1.00
N747   N     0.39087   0.44202   0.58593   0.00000  Uiso   1.00
O748   O     0.42875   0.47711   0.60529   0.00000  Uiso   1.00
O749   O     0.40716   0.39610   0.56820   0.00000  Uiso   1.00
N750   N     0.60915   0.55801   0.91407   0.00000  Uiso   1.00
O751   O     0.59286   0.60393   0.93180   0.00000  Uiso   1.00
O752   O     0.57127   0.52292   0.89471   0.00000  Uiso   1.00
I753   I     0.37369   0.65885   0.66371   0.00000  Uiso   1.00
I754   I     0.62631   0.34115   0.83629   0.00000  Uiso   1.00
I755   I     0.50230   0.42195   0.68956   0.00000  Uiso   1.00
I756   I     0.49770   0.57805   0.81043   0.00000  Uiso   1.00
O757   O     0.96386   0.57964   0.75309   0.00000  Uiso   1.00
O758   O     0.70281   0.42036   0.74690   0.00000  Uiso   1.00
O759   O     0.72488   0.57035   0.74501   0.00000  Uiso   1.00
O760   O     0.94178   0.42965   0.75498   0.00000  Uiso   1.00
C761   C     0.68052   0.59792   0.74822   0.00000  Uiso   1.00
C762   C     0.98614   0.40208   0.75178   0.00000  Uiso   1.00
O763   O     0.96995   0.50730   0.82247   0.00000  Uiso   1.00
O764   O     0.69672   0.49270   0.67753   0.00000  Uiso   1.00
O765   O     0.73098   0.49801   0.81439   0.00000  Uiso   1.00
O766   O     0.93569   0.50199   0.68561   0.00000  Uiso   1.00
C767   C     0.68703   0.50407   0.84155   0.00000  Uiso   1.00
C768   C     0.97963   0.49593   0.65845   0.00000  Uiso   1.00
Zn769  Zn    0.93700   0.50621   0.75539   0.00000  Uiso   1.00
Zn770  Zn    0.72967   0.49379   0.74460   0.00000  Uiso   1.00
C771   C     0.69617   0.50955   0.89549   0.00000  Uiso   1.00
C772   C     0.97050   0.49045   0.60451   0.00000  Uiso   1.00
C773   C     0.68693   0.55905   0.97526   0.00000  Uiso   1.00
C774   C     0.97976   0.44097   0.52473   0.00000  Uiso   1.00
C775   C     0.99724   0.54165   0.92807   0.00000  Uiso   1.00
C776   C     0.66944   0.45837   0.57192   0.00000  Uiso   1.00
C777   C     0.74510   0.48872   0.91336   0.00000  Uiso   1.00
C778   C     0.92157   0.51127   0.58663   0.00000  Uiso   1.00
C779   C     0.76794   0.50496   0.96082   0.00000  Uiso   1.00
C780   C     0.89874   0.49505   0.53917   0.00000  Uiso   1.00
C781   C     0.73978   0.54336   0.99055   0.00000  Uiso   1.00
C782   C     0.92691   0.45666   0.50943   0.00000  Uiso   1.00
C783   C     0.82028   0.48736   0.97774   0.00000  Uiso   1.00
C784   C     0.84641   0.51265   0.52225   0.00000  Uiso   1.00
C785   C     0.81922   0.55443   0.54854   0.00000  Uiso   1.00
C786   C     0.84748   0.44560   0.95144   0.00000  Uiso   1.00
C787   C     0.76572   0.56763   0.53410   0.00000  Uiso   1.00
C788   C     0.90099   0.43240   0.96588   0.00000  Uiso   1.00
H789   H     0.74550   0.59861   0.55613   0.00000  Uiso   1.00
H790   H     0.92122   0.40143   0.94384   0.00000  Uiso   1.00
H791   H     0.89916   0.53647   0.61243   0.00000  Uiso   1.00
H792   H     0.76748   0.46350   0.88758   0.00000  Uiso   1.00
H793   H     0.99748   0.58596   0.99969   0.00000  Uiso   1.00
H794   H     0.66922   0.41408   0.50030   0.00000  Uiso   1.00
H795   H     0.83806   0.57794   0.58058   0.00000  Uiso   1.00
H796   H     0.82865   0.42209   0.91938   0.00000  Uiso   1.00
C797   C     0.68226   0.64983   0.73672   0.00000  Uiso   1.00
C798   C     0.98440   0.35017   0.76327   0.00000  Uiso   1.00
N799   N     0.81362   0.48550   0.73739   0.00000  Uiso   1.00
N800   N     0.85305   0.51450   0.76260   0.00000  Uiso   1.00
N801   N     0.72420   0.44202   0.58593   0.00000  Uiso   1.00
O802   O     0.76208   0.47711   0.60529   0.00000  Uiso   1.00
O803   O     0.74050   0.39610   0.56820   0.00000  Uiso   1.00
N804   N     0.94248   0.55801   0.91407   0.00000  Uiso   1.00
O805   O     0.92620   0.60393   0.93180   0.00000  Uiso   1.00
O806   O     0.90460   0.52292   0.89471   0.00000  Uiso   1.00
I807   I     0.70702   0.65885   0.66371   0.00000  Uiso   1.00
I808   I     0.95965   0.34115   0.83629   0.00000  Uiso   1.00
I809   I     0.83564   0.42195   0.68956   0.00000  Uiso   1.00
I810   I     0.83103   0.57805   0.81043   0.00000  Uiso   1.00
O811   O     0.29719   0.91298   0.75309   0.00000  Uiso   1.00
O812   O     0.03614   0.75369   0.74690   0.00000  Uiso   1.00
O813   O     0.05822   0.90368   0.74501   0.00000  Uiso   1.00
O814   O     0.27512   0.76298   0.75498   0.00000  Uiso   1.00
C815   C     0.01386   0.93125   0.74822   0.00000  Uiso   1.00
C816   C     0.31948   0.73541   0.75178   0.00000  Uiso   1.00
O817   O     0.30328   0.84063   0.82247   0.00000  Uiso   1.00
O818   O     0.03005   0.82603   0.67753   0.00000  Uiso   1.00
O819   O     0.06431   0.83134   0.81439   0.00000  Uiso   1.00
O820   O     0.26902   0.83533   0.68561   0.00000  Uiso   1.00
C821   C     0.02037   0.83740   0.84155   0.00000  Uiso   1.00
C822   C     0.31297   0.82927   0.65845   0.00000  Uiso   1.00
Zn823  Zn    0.27033   0.83954   0.75539   0.00000  Uiso   1.00
Zn824  Zn    0.06300   0.82713   0.74460   0.00000  Uiso   1.00
C825   C     0.02950   0.84289   0.89549   0.00000  Uiso   1.00
C826   C     0.30384   0.82378   0.60451   0.00000  Uiso   1.00
C827   C     0.02027   0.89239   0.97526   0.00000  Uiso   1.00
C828   C     0.31309   0.77431   0.52473   0.00000  Uiso   1.00
C829   C     0.33057   0.87498   0.92807   0.00000  Uiso   1.00
C830   C     0.00278   0.79170   0.57192   0.00000  Uiso   1.00
C831   C     0.07843   0.82206   0.91336   0.00000  Uiso   1.00
C832   C     0.25490   0.84460   0.58663   0.00000  Uiso   1.00
C833   C     0.10127   0.83829   0.96082   0.00000  Uiso   1.00
C834   C     0.23208   0.82838   0.53917   0.00000  Uiso   1.00
C835   C     0.07311   0.87669   0.99055   0.00000  Uiso   1.00
C836   C     0.26025   0.79000   0.50943   0.00000  Uiso   1.00
C837   C     0.15361   0.82070   0.97774   0.00000  Uiso   1.00
C838   C     0.17975   0.84598   0.52225   0.00000  Uiso   1.00
C839   C     0.15256   0.88776   0.54854   0.00000  Uiso   1.00
C840   C     0.18081   0.77893   0.95144   0.00000  Uiso   1.00
C841   C     0.09905   0.90096   0.53410   0.00000  Uiso   1.00
C842   C     0.23432   0.76574   0.96588   0.00000  Uiso   1.00
H843   H     0.07883   0.93195   0.55613   0.00000  Uiso   1.00
H844   H     0.25455   0.73476   0.94384   0.00000  Uiso   1.00
H845   H     0.23249   0.86981   0.61243   0.00000  Uiso   1.00
H846   H     0.10081   0.79683   0.88758   0.00000  Uiso   1.00
H847   H     0.33082   0.91929   0.99969   0.00000  Uiso   1.00
H848   H     0.00256   0.74741   0.50030   0.00000  Uiso   1.00
H849   H     0.17140   0.91127   0.58058   0.00000  Uiso   1.00
H850   H     0.16199   0.75542   0.91938   0.00000  Uiso   1.00
C851   C     0.01560   0.98316   0.73672   0.00000  Uiso   1.00
C852   C     0.31774   0.68351   0.76327   0.00000  Uiso   1.00
N853   N     0.14695   0.81883   0.73739   0.00000  Uiso   1.00
N854   N     0.18638   0.84784   0.76260   0.00000  Uiso   1.00
N855   N     0.05754   0.77535   0.58593   0.00000  Uiso   1.00
O856   O     0.09541   0.81045   0.60529   0.00000  Uiso   1.00
O857   O     0.07383   0.72943   0.56820   0.00000  Uiso   1.00
N858   N     0.27581   0.89134   0.91407   0.00000  Uiso   1.00
O859   O     0.25953   0.93727   0.93180   0.00000  Uiso   1.00
O860   O     0.23793   0.85626   0.89471   0.00000  Uiso   1.00
I861   I     0.04035   0.99218   0.66371   0.00000  Uiso   1.00
I862   I     0.29298   0.67449   0.83629   0.00000  Uiso   1.00
I863   I     0.16897   0.75529   0.68956   0.00000  Uiso   1.00
I864   I     0.16436   0.91138   0.81043   0.00000  Uiso   1.00
O865   O     0.63052   0.91298   0.75309   0.00000  Uiso   1.00
O866   O     0.36948   0.75369   0.74690   0.00000  Uiso   1.00
O867   O     0.39155   0.90368   0.74501   0.00000  Uiso   1.00
O868   O     0.60845   0.76298   0.75498   0.00000  Uiso   1.00
C869   C     0.34719   0.93125   0.74822   0.00000  Uiso   1.00
C870   C     0.65281   0.73541   0.75178   0.00000  Uiso   1.00
O871   O     0.63662   0.84063   0.82247   0.00000  Uiso   1.00
O872   O     0.36338   0.82603   0.67753   0.00000  Uiso   1.00
O873   O     0.39764   0.83134   0.81439   0.00000  Uiso   1.00
O874   O     0.60236   0.83533   0.68561   0.00000  Uiso   1.00
C875   C     0.35370   0.83740   0.84155   0.00000  Uiso   1.00
C876   C     0.64630   0.82927   0.65845   0.00000  Uiso   1.00
Zn877  Zn    0.60366   0.83954   0.75539   0.00000  Uiso   1.00
Zn878  Zn    0.39634   0.82713   0.74460   0.00000  Uiso   1.00
C879   C     0.36283   0.84289   0.89549   0.00000  Uiso   1.00
C880   C     0.63717   0.82378   0.60451   0.00000  Uiso   1.00
C881   C     0.35360   0.89239   0.97526   0.00000  Uiso   1.00
C882   C     0.64643   0.77431   0.52473   0.00000  Uiso   1.00
C883   C     0.66391   0.87498   0.92807   0.00000  Uiso   1.00
C884   C     0.33611   0.79170   0.57192   0.00000  Uiso   1.00
C885   C     0.41176   0.82206   0.91336   0.00000  Uiso   1.00
C886   C     0.58823   0.84460   0.58663   0.00000  Uiso   1.00
C887   C     0.43461   0.83829   0.96082   0.00000  Uiso   1.00
C888   C     0.56541   0.82838   0.53917   0.00000  Uiso   1.00
C889   C     0.40645   0.87669   0.99055   0.00000  Uiso   1.00
C890   C     0.59358   0.79000   0.50943   0.00000  Uiso   1.00
C891   C     0.48694   0.82070   0.97774   0.00000  Uiso   1.00
C892   C     0.51308   0.84598   0.52225   0.00000  Uiso   1.00
C893   C     0.48589   0.88776   0.54854   0.00000  Uiso   1.00
C894   C     0.51414   0.77893   0.95144   0.00000  Uiso   1.00
C895   C     0.43238   0.90096   0.53410   0.00000  Uiso   1.00
C896   C     0.56766   0.76574   0.96588   0.00000  Uiso   1.00
H897   H     0.41216   0.93195   0.55613   0.00000  Uiso   1.00
H898   H     0.58788   0.73476   0.94384   0.00000  Uiso   1.00
H899   H     0.56583   0.86981   0.61243   0.00000  Uiso   1.00
H900   H     0.43415   0.79683   0.88758   0.00000  Uiso   1.00
H901   H     0.66415   0.91929   0.99969   0.00000  Uiso   1.00
H902   H     0.33589   0.74741   0.50030   0.00000  Uiso   1.00
H903   H     0.50473   0.91127   0.58058   0.00000  Uiso   1.00
H904   H     0.49532   0.75542   0.91938   0.00000  Uiso   1.00
C905   C     0.34893   0.98316   0.73672   0.00000  Uiso   1.00
C906   C     0.65107   0.68351   0.76327   0.00000  Uiso   1.00
N907   N     0.48029   0.81883   0.73739   0.00000  Uiso   1.00
N908   N     0.51971   0.84784   0.76260   0.00000  Uiso   1.00
N909   N     0.39087   0.77535   0.58593   0.00000  Uiso   1.00
O910   O     0.42875   0.81045   0.60529   0.00000  Uiso   1.00
O911   O     0.40716   0.72943   0.56820   0.00000  Uiso   1.00
N912   N     0.60915   0.89134   0.91407   0.00000  Uiso   1.00
O913   O     0.59286   0.93727   0.93180   0.00000  Uiso   1.00
O914   O     0.57127   0.85626   0.89471   0.00000  Uiso   1.00
I915   I     0.37369   0.99218   0.66371   0.00000  Uiso   1.00
I916   I     0.62631   0.67449   0.83629   0.00000  Uiso   1.00
I917   I     0.50230   0.75529   0.68956   0.00000  Uiso   1.00
I918   I     0.49770   0.91138   0.81043   0.00000  Uiso   1.00
O919   O     0.96386   0.91298   0.75309   0.00000  Uiso   1.00
O920   O     0.70281   0.75369   0.74690   0.00000  Uiso   1.00
O921   O     0.72488   0.90368   0.74501   0.00000  Uiso   1.00
O922   O     0.94178   0.76298   0.75498   0.00000  Uiso   1.00
C923   C     0.68052   0.93125   0.74822   0.00000  Uiso   1.00
C924   C     0.98614   0.73541   0.75178   0.00000  Uiso   1.00
O925   O     0.96995   0.84063   0.82247   0.00000  Uiso   1.00
O926   O     0.69672   0.82603   0.67753   0.00000  Uiso   1.00
O927   O     0.73098   0.83134   0.81439   0.00000  Uiso   1.00
O928   O     0.93569   0.83533   0.68561   0.00000  Uiso   1.00
C929   C     0.68703   0.83740   0.84155   0.00000  Uiso   1.00
C930   C     0.97963   0.82927   0.65845   0.00000  Uiso   1.00
Zn931  Zn    0.93700   0.83954   0.75539   0.00000  Uiso   1.00
Zn932  Zn    0.72967   0.82713   0.74460   0.00000  Uiso   1.00
C933   C     0.69617   0.84289   0.89549   0.00000  Uiso   1.00
C934   C     0.97050   0.82378   0.60451   0.00000  Uiso   1.00
C935   C     0.68693   0.89239   0.97526   0.00000  Uiso   1.00
C936   C     0.97976   0.77431   0.52473   0.00000  Uiso   1.00
C937   C     0.99724   0.87498   0.92807   0.00000  Uiso   1.00
C938   C     0.66944   0.79170   0.57192   0.00000  Uiso   1.00
C939   C     0.74510   0.82206   0.91336   0.00000  Uiso   1.00
C940   C     0.92157   0.84460   0.58663   0.00000  Uiso   1.00
C941   C     0.76794   0.83829   0.96082   0.00000  Uiso   1.00
C942   C     0.89874   0.82838   0.53917   0.00000  Uiso   1.00
C943   C     0.73978   0.87669   0.99055   0.00000  Uiso   1.00
C944   C     0.92691   0.79000   0.50943   0.00000  Uiso   1.00
C945   C     0.82028   0.82070   0.97774   0.00000  Uiso   1.00
C946   C     0.84641   0.84598   0.52225   0.00000  Uiso   1.00
C947   C     0.81922   0.88776   0.54854   0.00000  Uiso   1.00
C948   C     0.84748   0.77893   0.95144   0.00000  Uiso   1.00
C949   C     0.76572   0.90096   0.53410   0.00000  Uiso   1.00
C950   C     0.90099   0.76574   0.96588   0.00000  Uiso   1.00
H951   H     0.74550   0.93195   0.55613   0.00000  Uiso   1.00
H952   H     0.92122   0.73476   0.94384   0.00000  Uiso   1.00
H953   H     0.89916   0.86981   0.61243   0.00000  Uiso   1.00
H954   H     0.76748   0.79683   0.88758   0.00000  Uiso   1.00
H955   H     0.99748   0.91929   0.99969   0.00000  Uiso   1.00
H956   H     0.66922   0.74741   0.50030   0.00000  Uiso   1.00
H957   H     0.83806   0.91127   0.58058   0.00000  Uiso   1.00
H958   H     0.82865   0.75542   0.91938   0.00000  Uiso   1.00
C959   C     0.68226   0.98316   0.73672   0.00000  Uiso   1.00
C960   C     0.98440   0.68351   0.76327   0.00000  Uiso   1.00
N961   N     0.81362   0.81883   0.73739   0.00000  Uiso   1.00
N962   N     0.85305   0.84784   0.76260   0.00000  Uiso   1.00
N963   N     0.72420   0.77535   0.58593   0.00000  Uiso   1.00
O964   O     0.76208   0.81045   0.60529   0.00000  Uiso   1.00
O965   O     0.74050   0.72943   0.56820   0.00000  Uiso   1.00
N966   N     0.94248   0.89134   0.91407   0.00000  Uiso   1.00
O967   O     0.92620   0.93727   0.93180   0.00000  Uiso   1.00
O968   O     0.90460   0.85626   0.89471   0.00000  Uiso   1.00
I969   I     0.70702   0.99218   0.66371   0.00000  Uiso   1.00
I970   I     0.95965   0.67449   0.83629   0.00000  Uiso   1.00
I971   I     0.83564   0.75529   0.68956   0.00000  Uiso   1.00
I972   I     0.83103   0.91138   0.81043   0.00000  Uiso   1.00
loop_
_geom_bond_atom_site_label_1
_geom_bond_atom_site_label_2
_geom_bond_distance
_geom_bond_site_symmetry_2
_ccdc_geom_bond_type
O1     Zn13    1.964   .     S
O1     C59     1.278   .     S
O2     Zn14    1.964   .     S
O2     C114    1.278   1_455 S
O3     Zn14    1.962   .     S
O3     C5      1.295   .     A
O4     C6      1.295   .     A
O4     Zn13    1.962   .     S
C5     C41     1.393   .     S
C5     O109    1.278   1_455 S
C6     C42     1.393   .     S
C6     O56     1.278   .     S
O7     Zn13    1.958   .     S
O7     C65     1.299   .     S
O8     Zn14    1.958   .     S
O8     C120    1.299   1_455 S
O9     Zn14    1.894   .     S
O9     C11     1.313   .     A
O10    C12     1.313   .     A
O10    Zn13    1.894   .     S
C11    C15     1.469   .     S
C11    O115    1.299   1_455 S
C12    C16     1.469   .     S
C12    O62     1.299   .     S
Zn13   N44     2.036   .     S
Zn14   N43     2.036   .     S
C15    C21     1.393   .     A
C15    C127    1.417   1_455 S
C16    C22     1.393   .     A
C16    C74     1.417   .     S
C17    C25     1.398   .     A
C17    C127    1.398   1_455 S
C17    H145    1.084   1_455 S
C18    C26     1.398   .     A
C18    C74     1.398   .     S
C18    H92     1.084   .     S
C19    N48     1.436   .     S
C19    C69     1.417   .     S
C19    C71     1.398   .     S
C20    N45     1.436   .     S
C20    C124    1.417   1_455 S
C20    C126    1.398   1_455 S
C21    H36     1.076   .     S
C21    C23     1.397   .     A
C22    H35     1.076   .     S
C22    C24     1.397   .     A
C23    C27     1.419   .     A
C23    C25     1.415   .     A
C24    C28     1.419   .     A
C24    C26     1.415   .     A
C25    C517    1.389   .     S
C26    C518    1.389   1_554 S
C27    C30     1.417   .     A
C27    C514    1.420   .     S
C28    C29     1.417   .     A
C28    C513    1.420   1_554 S
C29    H39     1.077   .     S
C29    C31     1.385   .     A
C30    H40     1.077   .     S
C30    C32     1.385   .     A
C31    H33     1.084   .     S
C31    C511    1.389   1_554 S
C32    H34     1.084   .     S
C32    C512    1.389   .     S
H37    C71     1.084   .     S
H38    C126    1.084   1_455 S
C41    I51     2.133   .     S
C41    C312    1.336   1_455 S
C42    I52     2.133   .     S
C42    C419    1.336   1_545 S
N43    N44     1.298   .     D
N43    I53     2.072   .     S
N44    I54     2.072   .     S
N45    O46     1.299   .     A
N45    O47     1.301   .     A
N48    O50     1.299   .     A
N48    O49     1.301   .     A
O55    Zn67    1.964   .     S
O55    C113    1.278   .     S
O56    Zn68    1.964   .     S
O57    Zn68    1.962   .     S
O57    C59     1.295   .     A
O58    C60     1.295   .     A
O58    Zn67    1.962   .     S
C59    C95     1.393   .     S
C60    C96     1.393   .     S
C60    O110    1.278   .     S
O61    Zn67    1.958   .     S
O61    C119    1.299   .     S
O62    Zn68    1.958   .     S
O63    Zn68    1.894   .     S
O63    C65     1.313   .     A
O64    C66     1.313   .     A
O64    Zn67    1.894   .     S
C65    C69     1.469   .     S
C66    C70     1.469   .     S
C66    O116    1.299   .     S
Zn67   N98     2.036   .     S
Zn68   N97     2.036   .     S
C69    C75     1.393   .     A
C70    C76     1.393   .     A
C70    C128    1.417   .     S
C71    C79     1.398   .     A
C72    C80     1.398   .     A
C72    C128    1.398   .     S
C72    H146    1.084   .     S
C73    N102    1.436   .     S
C73    C123    1.417   .     S
C73    C125    1.398   .     S
C74    N99     1.436   .     S
C75    H90     1.076   .     S
C75    C77     1.397   .     A
C76    H89     1.076   .     S
C76    C78     1.397   .     A
C77    C81     1.419   .     A
C77    C79     1.415   .     A
C78    C82     1.419   .     A
C78    C80     1.415   .     A
C79    C571    1.389   .     S
C80    C572    1.389   1_554 S
C81    C84     1.417   .     A
C81    C568    1.420   .     S
C82    C83     1.417   .     A
C82    C567    1.420   1_554 S
C83    H93     1.077   .     S
C83    C85     1.385   .     A
C84    H94     1.077   .     S
C84    C86     1.385   .     A
C85    H87     1.084   .     S
C85    C565    1.389   1_554 S
C86    H88     1.084   .     S
C86    C566    1.389   .     S
H91    C125    1.084   .     S
C95    I105    2.133   .     S
C95    C204    1.336   .     S
C96    I106    2.133   .     S
C96    C473    1.336   1_545 S
N97    N98     1.298   .     D
N97    I107    2.072   .     S
N98    I108    2.072   .     S
N99    O100    1.299   .     A
N99    O101    1.301   .     A
N102   O104    1.299   .     A
N102   O103    1.301   .     A
O109   Zn121   1.964   .     S
O109   C5      1.278   1_655 S
O110   Zn122   1.964   .     S
O111   Zn122   1.962   .     S
O111   C113    1.295   .     A
O112   C114    1.295   .     A
O112   Zn121   1.962   .     S
C113   C149    1.393   .     S
C114   C150    1.393   .     S
C114   O2      1.278   1_655 S
O115   Zn121   1.958   .     S
O115   C11     1.299   1_655 S
O116   Zn122   1.958   .     S
O117   Zn122   1.894   .     S
O117   C119    1.313   .     A
O118   C120    1.313   .     A
O118   Zn121   1.894   .     S
C119   C123    1.469   .     S
C120   C124    1.469   .     S
C120   O8      1.299   1_655 S
Zn121  N152    2.036   .     S
Zn122  N151    2.036   .     S
C123   C129    1.393   .     A
C124   C130    1.393   .     A
C124   C20     1.417   1_655 S
C125   C133    1.398   .     A
C126   C134    1.398   .     A
C126   C20     1.398   1_655 S
C126   H38     1.084   1_655 S
C127   N156    1.436   .     S
C127   C15     1.417   1_655 S
C127   C17     1.398   1_655 S
C128   N153    1.436   .     S
C129   H144    1.076   .     S
C129   C131    1.397   .     A
C130   H143    1.076   .     S
C130   C132    1.397   .     A
C131   C135    1.419   .     A
C131   C133    1.415   .     A
C132   C136    1.419   .     A
C132   C134    1.415   .     A
C133   C625    1.389   .     S
C134   C626    1.389   1_554 S
C135   C138    1.417   .     A
C135   C622    1.420   .     S
C136   C137    1.417   .     A
C136   C621    1.420   1_554 S
C137   H147    1.077   .     S
C137   C139    1.385   .     A
C138   H148    1.077   .     S
C138   C140    1.385   .     A
C139   H141    1.084   .     S
C139   C619    1.389   1_554 S
C140   H142    1.084   .     S
C140   C620    1.389   .     S
H145   C17     1.084   1_655 S
C149   I159    2.133   .     S
C149   C258    1.336   .     S
C150   I160    2.133   .     S
C150   C365    1.336   1_645 S
N151   N152    1.298   .     D
N151   I161    2.072   .     S
N152   I162    2.072   .     S
N153   O154    1.299   .     A
N153   O155    1.301   .     A
N156   O158    1.299   .     A
N156   O157    1.301   .     A
O163   Zn175   1.964   .     S
O163   C221    1.278   .     S
O164   Zn176   1.964   .     S
O164   C276    1.278   1_455 S
O165   Zn176   1.962   .     S
O165   C167    1.295   .     A
O166   C168    1.295   .     A
O166   Zn175   1.962   .     S
C167   C203    1.393   .     S
C167   O271    1.278   1_455 S
C168   C204    1.393   .     S
C168   O218    1.278   .     S
O169   Zn175   1.958   .     S
O169   C227    1.299   .     S
O170   Zn176   1.958   .     S
O170   C282    1.299   1_455 S
O171   Zn176   1.894   .     S
O171   C173    1.313   .     A
O172   C174    1.313   .     A
O172   Zn175   1.894   .     S
C173   C177    1.469   .     S
C173   O277    1.299   1_455 S
C174   C178    1.469   .     S
C174   O224    1.299   .     S
Zn175  N206    2.036   .     S
Zn176  N205    2.036   .     S
C177   C183    1.393   .     A
C177   C289    1.417   1_455 S
C178   C184    1.393   .     A
C178   C236    1.417   .     S
C179   C187    1.398   .     A
C179   C289    1.398   1_455 S
C179   H307    1.084   1_455 S
C180   C188    1.398   .     A
C180   C236    1.398   .     S
C180   H254    1.084   .     S
C181   N210    1.436   .     S
C181   C231    1.417   .     S
C181   C233    1.398   .     S
C182   N207    1.436   .     S
C182   C286    1.417   1_455 S
C182   C288    1.398   1_455 S
C183   H198    1.076   .     S
C183   C185    1.397   .     A
C184   H197    1.076   .     S
C184   C186    1.397   .     A
C185   C189    1.419   .     A
C185   C187    1.415   .     A
C186   C190    1.419   .     A
C186   C188    1.415   .     A
C187   C679    1.389   .     S
C188   C680    1.389   1_554 S
C189   C192    1.417   .     A
C189   C676    1.420   .     S
C190   C191    1.417   .     A
C190   C675    1.420   1_554 S
C191   H201    1.077   .     S
C191   C193    1.385   .     A
C192   H202    1.077   .     S
C192   C194    1.385   .     A
C193   H195    1.084   .     S
C193   C673    1.389   1_554 S
C194   H196    1.084   .     S
C194   C674    1.389   .     S
H199   C233    1.084   .     S
H200   C288    1.084   1_455 S
C203   I213    2.133   .     S
C203   C474    1.336   1_455 S
C204   I214    2.133   .     S
N205   N206    1.298   .     D
N205   I215    2.072   .     S
N206   I216    2.072   .     S
N207   O208    1.299   .     A
N207   O209    1.301   .     A
N210   O212    1.299   .     A
N210   O211    1.301   .     A
O217   Zn229   1.964   .     S
O217   C275    1.278   .     S
O218   Zn230   1.964   .     S
O219   Zn230   1.962   .     S
O219   C221    1.295   .     A
O220   C222    1.295   .     A
O220   Zn229   1.962   .     S
C221   C257    1.393   .     S
C222   C258    1.393   .     S
C222   O272    1.278   .     S
O223   Zn229   1.958   .     S
O223   C281    1.299   .     S
O224   Zn230   1.958   .     S
O225   Zn230   1.894   .     S
O225   C227    1.313   .     A
O226   C228    1.313   .     A
O226   Zn229   1.894   .     S
C227   C231    1.469   .     S
C228   C232    1.469   .     S
C228   O278    1.299   .     S
Zn229  N260    2.036   .     S
Zn230  N259    2.036   .     S
C231   C237    1.393   .     A
C232   C238    1.393   .     A
C232   C290    1.417   .     S
C233   C241    1.398   .     A
C234   C242    1.398   .     A
C234   C290    1.398   .     S
C234   H308    1.084   .     S
C235   N264    1.436   .     S
C235   C285    1.417   .     S
C235   C287    1.398   .     S
C236   N261    1.436   .     S
C237   H252    1.076   .     S
C237   C239    1.397   .     A
C238   H251    1.076   .     S
C238   C240    1.397   .     A
C239   C243    1.419   .     A
C239   C241    1.415   .     A
C240   C244    1.419   .     A
C240   C242    1.415   .     A
C241   C733    1.389   .     S
C242   C734    1.389   1_554 S
C243   C246    1.417   .     A
C243   C730    1.420   .     S
C244   C245    1.417   .     A
C244   C729    1.420   1_554 S
C245   H255    1.077   .     S
C245   C247    1.385   .     A
C246   H256    1.077   .     S
C246   C248    1.385   .     A
C247   H249    1.084   .     S
C247   C727    1.389   1_554 S
C248   H250    1.084   .     S
C248   C728    1.389   .     S
H253   C287    1.084   .     S
C257   I267    2.133   .     S
C257   C366    1.336   .     S
C258   I268    2.133   .     S
N259   N260    1.298   .     D
N259   I269    2.072   .     S
N260   I270    2.072   .     S
N261   O262    1.299   .     A
N261   O263    1.301   .     A
N264   O266    1.299   .     A
N264   O265    1.301   .     A
O271   Zn283   1.964   .     S
O271   C167    1.278   1_655 S
O272   Zn284   1.964   .     S
O273   Zn284   1.962   .     S
O273   C275    1.295   .     A
O274   C276    1.295   .     A
O274   Zn283   1.962   .     S
C275   C311    1.393   .     S
C276   C312    1.393   .     S
C276   O164    1.278   1_655 S
O277   Zn283   1.958   .     S
O277   C173    1.299   1_655 S
O278   Zn284   1.958   .     S
O279   Zn284   1.894   .     S
O279   C281    1.313   .     A
O280   C282    1.313   .     A
O280   Zn283   1.894   .     S
C281   C285    1.469   .     S
C282   C286    1.469   .     S
C282   O170    1.299   1_655 S
Zn283  N314    2.036   .     S
Zn284  N313    2.036   .     S
C285   C291    1.393   .     A
C286   C292    1.393   .     A
C286   C182    1.417   1_655 S
C287   C295    1.398   .     A
C288   C296    1.398   .     A
C288   C182    1.398   1_655 S
C288   H200    1.084   1_655 S
C289   N318    1.436   .     S
C289   C177    1.417   1_655 S
C289   C179    1.398   1_655 S
C290   N315    1.436   .     S
C291   H306    1.076   .     S
C291   C293    1.397   .     A
C292   H305    1.076   .     S
C292   C294    1.397   .     A
C293   C297    1.419   .     A
C293   C295    1.415   .     A
C294   C298    1.419   .     A
C294   C296    1.415   .     A
C295   C787    1.389   .     S
C296   C788    1.389   1_554 S
C297   C300    1.417   .     A
C297   C784    1.420   .     S
C298   C299    1.417   .     A
C298   C783    1.420   1_554 S
C299   H309    1.077   .     S
C299   C301    1.385   .     A
C300   H310    1.077   .     S
C300   C302    1.385   .     A
C301   H303    1.084   .     S
C301   C781    1.389   1_554 S
C302   H304    1.084   .     S
C302   C782    1.389   .     S
H307   C179    1.084   1_655 S
C311   I321    2.133   .     S
C311   C420    1.336   .     S
C312   I322    2.133   .     S
C312   C41     1.336   1_655 S
N313   N314    1.298   .     D
N313   I323    2.072   .     S
N314   I324    2.072   .     S
N315   O316    1.299   .     A
N315   O317    1.301   .     A
N318   O320    1.299   .     A
N318   O319    1.301   .     A
O325   Zn337   1.964   .     S
O325   C383    1.278   .     S
O326   Zn338   1.964   .     S
O326   C438    1.278   1_455 S
O327   Zn338   1.962   .     S
O327   C329    1.295   .     A
O328   C330    1.295   .     A
O328   Zn337   1.962   .     S
C329   C365    1.393   .     S
C329   O433    1.278   1_455 S
C330   C366    1.393   .     S
C330   O380    1.278   .     S
O331   Zn337   1.958   .     S
O331   C389    1.299   .     S
O332   Zn338   1.958   .     S
O332   C444    1.299   1_455 S
O333   Zn338   1.894   .     S
O333   C335    1.313   .     A
O334   C336    1.313   .     A
O334   Zn337   1.894   .     S
C335   C339    1.469   .     S
C335   O439    1.299   1_455 S
C336   C340    1.469   .     S
C336   O386    1.299   .     S
Zn337  N368    2.036   .     S
Zn338  N367    2.036   .     S
C339   C345    1.393   .     A
C339   C451    1.417   1_455 S
C340   C346    1.393   .     A
C340   C398    1.417   .     S
C341   C349    1.398   .     A
C341   C451    1.398   1_455 S
C341   H469    1.084   1_455 S
C342   C350    1.398   .     A
C342   C398    1.398   .     S
C342   H416    1.084   .     S
C343   N372    1.436   .     S
C343   C393    1.417   .     S
C343   C395    1.398   .     S
C344   N369    1.436   .     S
C344   C448    1.417   1_455 S
C344   C450    1.398   1_455 S
C345   H360    1.076   .     S
C345   C347    1.397   .     A
C346   H359    1.076   .     S
C346   C348    1.397   .     A
C347   C351    1.419   .     A
C347   C349    1.415   .     A
C348   C352    1.419   .     A
C348   C350    1.415   .     A
C349   C841    1.389   .     S
C350   C842    1.389   1_554 S
C351   C354    1.417   .     A
C351   C838    1.420   .     S
C352   C353    1.417   .     A
C352   C837    1.420   1_554 S
C353   H363    1.077   .     S
C353   C355    1.385   .     A
C354   H364    1.077   .     S
C354   C356    1.385   .     A
C355   H357    1.084   .     S
C355   C835    1.389   1_554 S
C356   H358    1.084   .     S
C356   C836    1.389   .     S
H361   C395    1.084   .     S
H362   C450    1.084   1_455 S
C365   I375    2.133   .     S
C365   C150    1.336   1_465 S
C366   I376    2.133   .     S
N367   N368    1.298   .     D
N367   I377    2.072   .     S
N368   I378    2.072   .     S
N369   O370    1.299   .     A
N369   O371    1.301   .     A
N372   O374    1.299   .     A
N372   O373    1.301   .     A
O379   Zn391   1.964   .     S
O379   C437    1.278   .     S
O380   Zn392   1.964   .     S
O381   Zn392   1.962   .     S
O381   C383    1.295   .     A
O382   C384    1.295   .     A
O382   Zn391   1.962   .     S
C383   C419    1.393   .     S
C384   C420    1.393   .     S
C384   O434    1.278   .     S
O385   Zn391   1.958   .     S
O385   C443    1.299   .     S
O386   Zn392   1.958   .     S
O387   Zn392   1.894   .     S
O387   C389    1.313   .     A
O388   C390    1.313   .     A
O388   Zn391   1.894   .     S
C389   C393    1.469   .     S
C390   C394    1.469   .     S
C390   O440    1.299   .     S
Zn391  N422    2.036   .     S
Zn392  N421    2.036   .     S
C393   C399    1.393   .     A
C394   C400    1.393   .     A
C394   C452    1.417   .     S
C395   C403    1.398   .     A
C396   C404    1.398   .     A
C396   C452    1.398   .     S
C396   H470    1.084   .     S
C397   N426    1.436   .     S
C397   C447    1.417   .     S
C397   C449    1.398   .     S
C398   N423    1.436   .     S
C399   H414    1.076   .     S
C399   C401    1.397   .     A
C400   H413    1.076   .     S
C400   C402    1.397   .     A
C401   C405    1.419   .     A
C401   C403    1.415   .     A
C402   C406    1.419   .     A
C402   C404    1.415   .     A
C403   C895    1.389   .     S
C404   C896    1.389   1_554 S
C405   C408    1.417   .     A
C405   C892    1.420   .     S
C406   C407    1.417   .     A
C406   C891    1.420   1_554 S
C407   H417    1.077   .     S
C407   C409    1.385   .     A
C408   H418    1.077   .     S
C408   C410    1.385   .     A
C409   H411    1.084   .     S
C409   C889    1.389   1_554 S
C410   H412    1.084   .     S
C410   C890    1.389   .     S
H415   C449    1.084   .     S
C419   I429    2.133   .     S
C419   C42     1.336   1_565 S
C420   I430    2.133   .     S
N421   N422    1.298   .     D
N421   I431    2.072   .     S
N422   I432    2.072   .     S
N423   O424    1.299   .     A
N423   O425    1.301   .     A
N426   O428    1.299   .     A
N426   O427    1.301   .     A
O433   Zn445   1.964   .     S
O433   C329    1.278   1_655 S
O434   Zn446   1.964   .     S
O435   Zn446   1.962   .     S
O435   C437    1.295   .     A
O436   C438    1.295   .     A
O436   Zn445   1.962   .     S
C437   C473    1.393   .     S
C438   C474    1.393   .     S
C438   O326    1.278   1_655 S
O439   Zn445   1.958   .     S
O439   C335    1.299   1_655 S
O440   Zn446   1.958   .     S
O441   Zn446   1.894   .     S
O441   C443    1.313   .     A
O442   C444    1.313   .     A
O442   Zn445   1.894   .     S
C443   C447    1.469   .     S
C444   C448    1.469   .     S
C444   O332    1.299   1_655 S
Zn445  N476    2.036   .     S
Zn446  N475    2.036   .     S
C447   C453    1.393   .     A
C448   C454    1.393   .     A
C448   C344    1.417   1_655 S
C449   C457    1.398   .     A
C450   C458    1.398   .     A
C450   C344    1.398   1_655 S
C450   H362    1.084   1_655 S
C451   N480    1.436   .     S
C451   C339    1.417   1_655 S
C451   C341    1.398   1_655 S
C452   N477    1.436   .     S
C453   H468    1.076   .     S
C453   C455    1.397   .     A
C454   H467    1.076   .     S
C454   C456    1.397   .     A
C455   C459    1.419   .     A
C455   C457    1.415   .     A
C456   C460    1.419   .     A
C456   C458    1.415   .     A
C457   C949    1.389   .     S
C458   C950    1.389   1_554 S
C459   C462    1.417   .     A
C459   C946    1.420   .     S
C460   C461    1.417   .     A
C460   C945    1.420   1_554 S
C461   H471    1.077   .     S
C461   C463    1.385   .     A
C462   H472    1.077   .     S
C462   C464    1.385   .     A
C463   H465    1.084   .     S
C463   C943    1.389   1_554 S
C464   H466    1.084   .     S
C464   C944    1.389   .     S
H469   C341    1.084   1_655 S
C473   I483    2.133   .     S
C473   C96     1.336   1_565 S
C474   I484    2.133   .     S
C474   C203    1.336   1_655 S
N475   N476    1.298   .     D
N475   I485    2.072   .     S
N476   I486    2.072   .     S
N477   O478    1.299   .     A
N477   O479    1.301   .     A
N480   O482    1.299   .     A
N480   O481    1.301   .     A
O487   Zn499   1.964   .     S
O487   C545    1.278   .     S
O488   Zn500   1.964   .     S
O488   C600    1.278   1_455 S
O489   Zn500   1.962   .     S
O489   C491    1.295   .     A
O490   C492    1.295   .     A
O490   Zn499   1.962   .     S
C491   C527    1.393   .     S
C491   O595    1.278   1_455 S
C492   C528    1.393   .     S
C492   O542    1.278   .     S
O493   Zn499   1.958   .     S
O493   C551    1.299   .     S
O494   Zn500   1.958   .     S
O494   C606    1.299   1_455 S
O495   Zn500   1.894   .     S
O495   C497    1.313   .     A
O496   C498    1.313   .     A
O496   Zn499   1.894   .     S
C497   C501    1.469   .     S
C497   O601    1.299   1_455 S
C498   C502    1.469   .     S
C498   O548    1.299   .     S
Zn499  N530    2.036   .     S
Zn500  N529    2.036   .     S
C501   C507    1.393   .     A
C501   C613    1.417   1_455 S
C502   C508    1.393   .     A
C502   C560    1.417   .     S
C503   C511    1.398   .     A
C503   C613    1.398   1_455 S
C503   H631    1.084   1_455 S
C504   C512    1.398   .     A
C504   C560    1.398   .     S
C504   H578    1.084   .     S
C505   N534    1.436   .     S
C505   C555    1.417   .     S
C505   C557    1.398   .     S
C506   N531    1.436   .     S
C506   C610    1.417   1_455 S
C506   C612    1.398   1_455 S
C507   H522    1.076   .     S
C507   C509    1.397   .     A
C508   H521    1.076   .     S
C508   C510    1.397   .     A
C509   C513    1.419   .     A
C509   C511    1.415   .     A
C510   C514    1.419   .     A
C510   C512    1.415   .     A
C511   C31     1.389   1_556 S
C513   C516    1.417   .     A
C513   C28     1.420   1_556 S
C514   C515    1.417   .     A
C515   H525    1.077   .     S
C515   C517    1.385   .     A
C516   H526    1.077   .     S
C516   C518    1.385   .     A
C517   H519    1.084   .     S
C518   H520    1.084   .     S
C518   C26     1.389   1_556 S
H523   C557    1.084   .     S
H524   C612    1.084   1_455 S
C527   I537    2.133   .     S
C527   C798    1.336   1_455 S
C528   I538    2.133   .     S
C528   C905    1.336   1_545 S
N529   N530    1.298   .     D
N529   I539    2.072   .     S
N530   I540    2.072   .     S
N531   O532    1.299   .     A
N531   O533    1.301   .     A
N534   O536    1.299   .     A
N534   O535    1.301   .     A
O541   Zn553   1.964   .     S
O541   C599    1.278   .     S
O542   Zn554   1.964   .     S
O543   Zn554   1.962   .     S
O543   C545    1.295   .     A
O544   C546    1.295   .     A
O544   Zn553   1.962   .     S
C545   C581    1.393   .     S
C546   C582    1.393   .     S
C546   O596    1.278   .     S
O547   Zn553   1.958   .     S
O547   C605    1.299   .     S
O548   Zn554   1.958   .     S
O549   Zn554   1.894   .     S
O549   C551    1.313   .     A
O550   C552    1.313   .     A
O550   Zn553   1.894   .     S
C551   C555    1.469   .     S
C552   C556    1.469   .     S
C552   O602    1.299   .     S
Zn553  N584    2.036   .     S
Zn554  N583    2.036   .     S
C555   C561    1.393   .     A
C556   C562    1.393   .     A
C556   C614    1.417   .     S
C557   C565    1.398   .     A
C558   C566    1.398   .     A
C558   C614    1.398   .     S
C558   H632    1.084   .     S
C559   N588    1.436   .     S
C559   C609    1.417   .     S
C559   C611    1.398   .     S
C560   N585    1.436   .     S
C561   H576    1.076   .     S
C561   C563    1.397   .     A
C562   H575    1.076   .     S
C562   C564    1.397   .     A
C563   C567    1.419   .     A
C563   C565    1.415   .     A
C564   C568    1.419   .     A
C564   C566    1.415   .     A
C565   C85     1.389   1_556 S
C567   C570    1.417   .     A
C567   C82     1.420   1_556 S
C568   C569    1.417   .     A
C569   H579    1.077   .     S
C569   C571    1.385   .     A
C570   H580    1.077   .     S
C570   C572    1.385   .     A
C571   H573    1.084   .     S
C572   H574    1.084   .     S
C572   C80     1.389   1_556 S
H577   C611    1.084   .     S
C581   I591    2.133   .     S
C581   C690    1.336   .     S
C582   I592    2.133   .     S
C582   C959    1.336   1_545 S
N583   N584    1.298   .     D
N583   I593    2.072   .     S
N584   I594    2.072   .     S
N585   O586    1.299   .     A
N585   O587    1.301   .     A
N588   O590    1.299   .     A
N588   O589    1.301   .     A
O595   Zn607   1.964   .     S
O595   C491    1.278   1_655 S
O596   Zn608   1.964   .     S
O597   Zn608   1.962   .     S
O597   C599    1.295   .     A
O598   C600    1.295   .     A
O598   Zn607   1.962   .     S
C599   C635    1.393   .     S
C600   C636    1.393   .     S
C600   O488    1.278   1_655 S
O601   Zn607   1.958   .     S
O601   C497    1.299   1_655 S
O602   Zn608   1.958   .     S
O603   Zn608   1.894   .     S
O603   C605    1.313   .     A
O604   C606    1.313   .     A
O604   Zn607   1.894   .     S
C605   C609    1.469   .     S
C606   C610    1.469   .     S
C606   O494    1.299   1_655 S
Zn607  N638    2.036   .     S
Zn608  N637    2.036   .     S
C609   C615    1.393   .     A
C610   C616    1.393   .     A
C610   C506    1.417   1_655 S
C611   C619    1.398   .     A
C612   C620    1.398   .     A
C612   C506    1.398   1_655 S
C612   H524    1.084   1_655 S
C613   N642    1.436   .     S
C613   C501    1.417   1_655 S
C613   C503    1.398   1_655 S
C614   N639    1.436   .     S
C615   H630    1.076   .     S
C615   C617    1.397   .     A
C616   H629    1.076   .     S
C616   C618    1.397   .     A
C617   C621    1.419   .     A
C617   C619    1.415   .     A
C618   C622    1.419   .     A
C618   C620    1.415   .     A
C619   C139    1.389   1_556 S
C621   C624    1.417   .     A
C621   C136    1.420   1_556 S
C622   C623    1.417   .     A
C623   H633    1.077   .     S
C623   C625    1.385   .     A
C624   H634    1.077   .     S
C624   C626    1.385   .     A
C625   H627    1.084   .     S
C626   H628    1.084   .     S
C626   C134    1.389   1_556 S
H631   C503    1.084   1_655 S
C635   I645    2.133   .     S
C635   C744    1.336   .     S
C636   I646    2.133   .     S
C636   C851    1.336   1_645 S
N637   N638    1.298   .     D
N637   I647    2.072   .     S
N638   I648    2.072   .     S
N639   O640    1.299   .     A
N639   O641    1.301   .     A
N642   O644    1.299   .     A
N642   O643    1.301   .     A
O649   Zn661   1.964   .     S
O649   C707    1.278   .     S
O650   Zn662   1.964   .     S
O650   C762    1.278   1_455 S
O651   Zn662   1.962   .     S
O651   C653    1.295   .     A
O652   C654    1.295   .     A
O652   Zn661   1.962   .     S
C653   C689    1.393   .     S
C653   O757    1.278   1_455 S
C654   C690    1.393   .     S
C654   O704    1.278   .     S
O655   Zn661   1.958   .     S
O655   C713    1.299   .     S
O656   Zn662   1.958   .     S
O656   C768    1.299   1_455 S
O657   Zn662   1.894   .     S
O657   C659    1.313   .     A
O658   C660    1.313   .     A
O658   Zn661   1.894   .     S
C659   C663    1.469   .     S
C659   O763    1.299   1_455 S
C660   C664    1.469   .     S
C660   O710    1.299   .     S
Zn661  N692    2.036   .     S
Zn662  N691    2.036   .     S
C663   C669    1.393   .     A
C663   C775    1.417   1_455 S
C664   C670    1.393   .     A
C664   C722    1.417   .     S
C665   C673    1.398   .     A
C665   C775    1.398   1_455 S
C665   H793    1.084   1_455 S
C666   C674    1.398   .     A
C666   C722    1.398   .     S
C666   H740    1.084   .     S
C667   N696    1.436   .     S
C667   C717    1.417   .     S
C667   C719    1.398   .     S
C668   N693    1.436   .     S
C668   C772    1.417   1_455 S
C668   C774    1.398   1_455 S
C669   H684    1.076   .     S
C669   C671    1.397   .     A
C670   H683    1.076   .     S
C670   C672    1.397   .     A
C671   C675    1.419   .     A
C671   C673    1.415   .     A
C672   C676    1.419   .     A
C672   C674    1.415   .     A
C673   C193    1.389   1_556 S
C675   C678    1.417   .     A
C675   C190    1.420   1_556 S
C676   C677    1.417   .     A
C677   H687    1.077   .     S
C677   C679    1.385   .     A
C678   H688    1.077   .     S
C678   C680    1.385   .     A
C679   H681    1.084   .     S
C680   H682    1.084   .     S
C680   C188    1.389   1_556 S
H685   C719    1.084   .     S
H686   C774    1.084   1_455 S
C689   I699    2.133   .     S
C689   C960    1.336   1_455 S
C690   I700    2.133   .     S
N691   N692    1.298   .     D
N691   I701    2.072   .     S
N692   I702    2.072   .     S
N693   O694    1.299   .     A
N693   O695    1.301   .     A
N696   O698    1.299   .     A
N696   O697    1.301   .     A
O703   Zn715   1.964   .     S
O703   C761    1.278   .     S
O704   Zn716   1.964   .     S
O705   Zn716   1.962   .     S
O705   C707    1.295   .     A
O706   C708    1.295   .     A
O706   Zn715   1.962   .     S
C707   C743    1.393   .     S
C708   C744    1.393   .     S
C708   O758    1.278   .     S
O709   Zn715   1.958   .     S
O709   C767    1.299   .     S
O710   Zn716   1.958   .     S
O711   Zn716   1.894   .     S
O711   C713    1.313   .     A
O712   C714    1.313   .     A
O712   Zn715   1.894   .     S
C713   C717    1.469   .     S
C714   C718    1.469   .     S
C714   O764    1.299   .     S
Zn715  N746    2.036   .     S
Zn716  N745    2.036   .     S
C717   C723    1.393   .     A
C718   C724    1.393   .     A
C718   C776    1.417   .     S
C719   C727    1.398   .     A
C720   C728    1.398   .     A
C720   C776    1.398   .     S
C720   H794    1.084   .     S
C721   N750    1.436   .     S
C721   C771    1.417   .     S
C721   C773    1.398   .     S
C722   N747    1.436   .     S
C723   H738    1.076   .     S
C723   C725    1.397   .     A
C724   H737    1.076   .     S
C724   C726    1.397   .     A
C725   C729    1.419   .     A
C725   C727    1.415   .     A
C726   C730    1.419   .     A
C726   C728    1.415   .     A
C727   C247    1.389   1_556 S
C729   C732    1.417   .     A
C729   C244    1.420   1_556 S
C730   C731    1.417   .     A
C731   H741    1.077   .     S
C731   C733    1.385   .     A
C732   H742    1.077   .     S
C732   C734    1.385   .     A
C733   H735    1.084   .     S
C734   H736    1.084   .     S
C734   C242    1.389   1_556 S
H739   C773    1.084   .     S
C743   I753    2.133   .     S
C743   C852    1.336   .     S
C744   I754    2.133   .     S
N745   N746    1.298   .     D
N745   I755    2.072   .     S
N746   I756    2.072   .     S
N747   O748    1.299   .     A
N747   O749    1.301   .     A
N750   O752    1.299   .     A
N750   O751    1.301   .     A
O757   Zn769   1.964   .     S
O757   C653    1.278   1_655 S
O758   Zn770   1.964   .     S
O759   Zn770   1.962   .     S
O759   C761    1.295   .     A
O760   C762    1.295   .     A
O760   Zn769   1.962   .     S
C761   C797    1.393   .     S
C762   C798    1.393   .     S
C762   O650    1.278   1_655 S
O763   Zn769   1.958   .     S
O763   C659    1.299   1_655 S
O764   Zn770   1.958   .     S
O765   Zn770   1.894   .     S
O765   C767    1.313   .     A
O766   C768    1.313   .     A
O766   Zn769   1.894   .     S
C767   C771    1.469   .     S
C768   C772    1.469   .     S
C768   O656    1.299   1_655 S
Zn769  N800    2.036   .     S
Zn770  N799    2.036   .     S
C771   C777    1.393   .     A
C772   C778    1.393   .     A
C772   C668    1.417   1_655 S
C773   C781    1.398   .     A
C774   C782    1.398   .     A
C774   C668    1.398   1_655 S
C774   H686    1.084   1_655 S
C775   N804    1.436   .     S
C775   C663    1.417   1_655 S
C775   C665    1.398   1_655 S
C776   N801    1.436   .     S
C777   H792    1.076   .     S
C777   C779    1.397   .     A
C778   H791    1.076   .     S
C778   C780    1.397   .     A
C779   C783    1.419   .     A
C779   C781    1.415   .     A
C780   C784    1.419   .     A
C780   C782    1.415   .     A
C781   C301    1.389   1_556 S
C783   C786    1.417   .     A
C783   C298    1.420   1_556 S
C784   C785    1.417   .     A
C785   H795    1.077   .     S
C785   C787    1.385   .     A
C786   H796    1.077   .     S
C786   C788    1.385   .     A
C787   H789    1.084   .     S
C788   H790    1.084   .     S
C788   C296    1.389   1_556 S
H793   C665    1.084   1_655 S
C797   I807    2.133   .     S
C797   C906    1.336   .     S
C798   I808    2.133   .     S
C798   C527    1.336   1_655 S
N799   N800    1.298   .     D
N799   I809    2.072   .     S
N800   I810    2.072   .     S
N801   O802    1.299   .     A
N801   O803    1.301   .     A
N804   O806    1.299   .     A
N804   O805    1.301   .     A
O811   Zn823   1.964   .     S
O811   C869    1.278   .     S
O812   Zn824   1.964   .     S
O812   C924    1.278   1_455 S
O813   Zn824   1.962   .     S
O813   C815    1.295   .     A
O814   C816    1.295   .     A
O814   Zn823   1.962   .     S
C815   C851    1.393   .     S
C815   O919    1.278   1_455 S
C816   C852    1.393   .     S
C816   O866    1.278   .     S
O817   Zn823   1.958   .     S
O817   C875    1.299   .     S
O818   Zn824   1.958   .     S
O818   C930    1.299   1_455 S
O819   Zn824   1.894   .     S
O819   C821    1.313   .     A
O820   C822    1.313   .     A
O820   Zn823   1.894   .     S
C821   C825    1.469   .     S
C821   O925    1.299   1_455 S
C822   C826    1.469   .     S
C822   O872    1.299   .     S
Zn823  N854    2.036   .     S
Zn824  N853    2.036   .     S
C825   C831    1.393   .     A
C825   C937    1.417   1_455 S
C826   C832    1.393   .     A
C826   C884    1.417   .     S
C827   C835    1.398   .     A
C827   C937    1.398   1_455 S
C827   H955    1.084   1_455 S
C828   C836    1.398   .     A
C828   C884    1.398   .     S
C828   H902    1.084   .     S
C829   N858    1.436   .     S
C829   C879    1.417   .     S
C829   C881    1.398   .     S
C830   N855    1.436   .     S
C830   C934    1.417   1_455 S
C830   C936    1.398   1_455 S
C831   H846    1.076   .     S
C831   C833    1.397   .     A
C832   H845    1.076   .     S
C832   C834    1.397   .     A
C833   C837    1.419   .     A
C833   C835    1.415   .     A
C834   C838    1.419   .     A
C834   C836    1.415   .     A
C835   C355    1.389   1_556 S
C837   C840    1.417   .     A
C837   C352    1.420   1_556 S
C838   C839    1.417   .     A
C839   H849    1.077   .     S
C839   C841    1.385   .     A
C840   H850    1.077   .     S
C840   C842    1.385   .     A
C841   H843    1.084   .     S
C842   H844    1.084   .     S
C842   C350    1.389   1_556 S
H847   C881    1.084   .     S
H848   C936    1.084   1_455 S
C851   I861    2.133   .     S
C851   C636    1.336   1_465 S
C852   I862    2.133   .     S
N853   N854    1.298   .     D
N853   I863    2.072   .     S
N854   I864    2.072   .     S
N855   O856    1.299   .     A
N855   O857    1.301   .     A
N858   O860    1.299   .     A
N858   O859    1.301   .     A
O865   Zn877   1.964   .     S
O865   C923    1.278   .     S
O866   Zn878   1.964   .     S
O867   Zn878   1.962   .     S
O867   C869    1.295   .     A
O868   C870    1.295   .     A
O868   Zn877   1.962   .     S
C869   C905    1.393   .     S
C870   C906    1.393   .     S
C870   O920    1.278   .     S
O871   Zn877   1.958   .     S
O871   C929    1.299   .     S
O872   Zn878   1.958   .     S
O873   Zn878   1.894   .     S
O873   C875    1.313   .     A
O874   C876    1.313   .     A
O874   Zn877   1.894   .     S
C875   C879    1.469   .     S
C876   C880    1.469   .     S
C876   O926    1.299   .     S
Zn877  N908    2.036   .     S
Zn878  N907    2.036   .     S
C879   C885    1.393   .     A
C880   C886    1.393   .     A
C880   C938    1.417   .     S
C881   C889    1.398   .     A
C882   C890    1.398   .     A
C882   C938    1.398   .     S
C882   H956    1.084   .     S
C883   N912    1.436   .     S
C883   C933    1.417   .     S
C883   C935    1.398   .     S
C884   N909    1.436   .     S
C885   H900    1.076   .     S
C885   C887    1.397   .     A
C886   H899    1.076   .     S
C886   C888    1.397   .     A
C887   C891    1.419   .     A
C887   C889    1.415   .     A
C888   C892    1.419   .     A
C888   C890    1.415   .     A
C889   C409    1.389   1_556 S
C891   C894    1.417   .     A
C891   C406    1.420   1_556 S
C892   C893    1.417   .     A
C893   H903    1.077   .     S
C893   C895    1.385   .     A
C894   H904    1.077   .     S
C894   C896    1.385   .     A
C895   H897    1.084   .     S
C896   H898    1.084   .     S
C896   C404    1.389   1_556 S
H901   C935    1.084   .     S
C905   I915    2.133   .     S
C905   C528    1.336   1_565 S
C906   I916    2.133   .     S
N907   N908    1.298   .     D
N907   I917    2.072   .     S
N908   I918    2.072   .     S
N909   O910    1.299   .     A
N909   O911    1.301   .     A
N912   O914    1.299   .     A
N912   O913    1.301   .     A
O919   Zn931   1.964   .     S
O919   C815    1.278   1_655 S
O920   Zn932   1.964   .     S
O921   Zn932   1.962   .     S
O921   C923    1.295   .     A
O922   C924    1.295   .     A
O922   Zn931   1.962   .     S
C923   C959    1.393   .     S
C924   C960    1.393   .     S
C924   O812    1.278   1_655 S
O925   Zn931   1.958   .     S
O925   C821    1.299   1_655 S
O926   Zn932   1.958   .     S
O927   Zn932   1.894   .     S
O927   C929    1.313   .     A
O928   C930    1.313   .     A
O928   Zn931   1.894   .     S
C929   C933    1.469   .     S
C930   C934    1.469   .     S
C930   O818    1.299   1_655 S
Zn931  N962    2.036   .     S
Zn932  N961    2.036   .     S
C933   C939    1.393   .     A
C934   C940    1.393   .     A
C934   C830    1.417   1_655 S
C935   C943    1.398   .     A
C936   C944    1.398   .     A
C936   C830    1.398   1_655 S
C936   H848    1.084   1_655 S
C937   N966    1.436   .     S
C937   C825    1.417   1_655 S
C937   C827    1.398   1_655 S
C938   N963    1.436   .     S
C939   H954    1.076   .     S
C939   C941    1.397   .     A
C940   H953    1.076   .     S
C940   C942    1.397   .     A
C941   C945    1.419   .     A
C941   C943    1.415   .     A
C942   C946    1.419   .     A
C942   C944    1.415   .     A
C943   C463    1.389   1_556 S
C945   C948    1.417   .     A
C945   C460    1.420   1_556 S
C946   C947    1.417   .     A
C947   H957    1.077   .     S
C947   C949    1.385   .     A
C948   H958    1.077   .     S
C948   C950    1.385   .     A
C949   H951    1.084   .     S
C950   H952    1.084   .     S
C950   C458    1.389   1_556 S
H955   C827    1.084   1_655 S
C959   I969    2.133   .     S
C959   C582    1.336   1_565 S
C960   I970    2.133   .     S
C960   C689    1.336   1_655 S
N961   N962    1.298   .     D
N961   I971    2.072   .     S
N962   I972    2.072   .     S
N963   O964    1.299   .     A
N963   O965    1.301   .     A
N966   O968    1.299   .     A
N966   O967    1.301   .     A
