data_str_m1_o10_o18_pcu_sym.66
_audit_creation_date              2020-01-03
_audit_creation_method            'Materials Studio'
_symmetry_space_group_name_H-M    'P1'
_symmetry_Int_Tables_number       1
_symmetry_cell_setting            triclinic
loop_
_symmetry_equiv_pos_as_xyz
  x,y,z
_cell_length_a                    32.7342
_cell_length_b                    32.4206
_cell_length_c                    35.7439
_cell_angle_alpha                 98.2009
_cell_angle_beta                  72.9433
_cell_angle_gamma                 98.5990
loop_
_atom_site_label
_atom_site_type_symbol
_atom_site_fract_x
_atom_site_fract_y
_atom_site_fract_z
_atom_site_U_iso_or_equiv
_atom_site_adp_type
_atom_site_occupancy
Br1    Br    0.30716   0.12088   0.30232   0.00000  Uiso   1.00
C2     C     0.05279   0.16010   0.25846   0.00000  Uiso   1.00
C3     C     0.20000   0.13182   0.46002   0.00000  Uiso   1.00
C4     C     0.22557   0.11813   0.47960   0.00000  Uiso   1.00
C5     C     0.28095   0.17374   0.24159   0.00000  Uiso   1.00
C6     C     0.21817   0.12739   0.01994   0.00000  Uiso   1.00
C7     C     0.18420   0.15109   0.04167   0.00000  Uiso   1.00
C8     C     0.24309   0.11119   0.03913   0.00000  Uiso   1.00
C9     C     0.23378   0.11727   0.07992   0.00000  Uiso   1.00
C10    C     0.17235   0.15217   0.08295   0.00000  Uiso   1.00
C11    C     0.32665   0.17745   0.23957   0.00000  Uiso   1.00
C12    C     0.00757   0.15671   0.26275   0.00000  Uiso   1.00
C13    C     0.09896   0.21503   0.42100   0.00000  Uiso   1.00
C14    C     0.18088   0.32224   0.23817   0.00000  Uiso   1.00
C15    C     0.15149   0.01206   0.26207   0.00000  Uiso   1.00
C16    C     0.15584   0.05615   0.25895   0.00000  Uiso   1.00
C17    C     0.17682   0.27766   0.24132   0.00000  Uiso   1.00
C18    C     0.18850   0.14505   0.14413   0.00000  Uiso   1.00
C19    C     0.14545   0.18780   0.35608   0.00000  Uiso   1.00
C20    C     0.13505   0.19538   0.39911   0.00000  Uiso   1.00
C21    C     0.19784   0.13700   0.10172   0.00000  Uiso   1.00
C22    C     0.08989   0.22253   0.46204   0.00000  Uiso   1.00
C23    C     0.02362   0.24364   0.22638   0.00000  Uiso   1.00
C24    C     0.16079   0.18128   0.41839   0.00000  Uiso   1.00
C25    C     0.06215   0.26822   0.19997   0.00000  Uiso   1.00
C26    C     0.06434   0.31507   0.21369   0.00000  Uiso   1.00
C27    C     0.05840   0.28428   0.47642   0.00000  Uiso   1.00
C28    C     0.08544   0.31245   0.00072   0.00000  Uiso   1.00
C29    C     0.08435   0.02541   0.49781   0.00000  Uiso   1.00
C30    C     0.16586   0.25416   0.07593   0.00000  Uiso   1.00
C31    C     0.16230   0.27724   0.11694   0.00000  Uiso   1.00
C32    C     0.19868   0.31276   0.11642   0.00000  Uiso   1.00
C33    C     0.17218   0.07960   0.42200   0.00000  Uiso   1.00
C34    C     0.17799   0.05847   0.38002   0.00000  Uiso   1.00
C35    C     0.14887   0.18226   0.45956   0.00000  Uiso   1.00
C36    C     0.14497   0.02010   0.37853   0.00000  Uiso   1.00
C37    C     0.11472   0.20583   0.48133   0.00000  Uiso   1.00
C38    C     0.17081   0.16194   0.47967   0.00000  Uiso   1.00
C39    C     0.16264   0.17147   0.02138   0.00000  Uiso   1.00
C40    C     0.13399   0.20188   0.04096   0.00000  Uiso   1.00
C41    C     0.10773   0.21498   0.02180   0.00000  Uiso   1.00
H42    H     0.08402   0.23550   0.03860   0.00000  Uiso   1.00
H43    H     0.02704   0.24869   0.25692   0.00000  Uiso   1.00
H44    H     0.32697   0.25585   0.22624   0.00000  Uiso   1.00
H45    H     0.09226   0.25648   0.20032   0.00000  Uiso   1.00
H46    H     0.05958   0.26321   0.16929   0.00000  Uiso   1.00
H47    H     0.03540   0.32785   0.21191   0.00000  Uiso   1.00
H48    H     0.09334   0.33181   0.19460   0.00000  Uiso   1.00
H49    H     0.06637   0.32077   0.24451   0.00000  Uiso   1.00
H50    H     0.02561   0.29434   0.48547   0.00000  Uiso   1.00
H51    H     0.07188   0.28893   0.44468   0.00000  Uiso   1.00
H52    H     0.07275   0.30645   0.03211   0.00000  Uiso   1.00
H53    H     0.26973   0.09387   0.02257   0.00000  Uiso   1.00
H54    H     0.11931   0.30517   0.48985   0.00000  Uiso   1.00
H55    H     0.09413   0.03172   0.46654   0.00000  Uiso   1.00
H56    H     0.10681   0.04498   0.01298   0.00000  Uiso   1.00
H57    H     0.05139   0.03430   0.01194   0.00000  Uiso   1.00
H58    H     0.16378   0.27698   0.05612   0.00000  Uiso   1.00
H59    H     0.19765   0.24170   0.06470   0.00000  Uiso   1.00
H60    H     0.13111   0.29063   0.12792   0.00000  Uiso   1.00
H61    H     0.16326   0.25476   0.13738   0.00000  Uiso   1.00
H62    H     0.23029   0.30012   0.10634   0.00000  Uiso   1.00
H63    H     0.19475   0.32904   0.14657   0.00000  Uiso   1.00
H64    H     0.20805   0.00301   0.21630   0.00000  Uiso   1.00
H65    H     0.19797   0.00257   0.09654   0.00000  Uiso   1.00
H66    H     0.13948   0.09015   0.43304   0.00000  Uiso   1.00
H67    H     0.17524   0.05620   0.44080   0.00000  Uiso   1.00
H68    H     0.17446   0.08122   0.36099   0.00000  Uiso   1.00
H69    H     0.21084   0.04856   0.36834   0.00000  Uiso   1.00
H70    H     0.14794   0.33017   0.39732   0.00000  Uiso   1.00
H71    H     0.15058   0.00512   0.34780   0.00000  Uiso   1.00
H72    H     0.11188   0.02949   0.38879   0.00000  Uiso   1.00
H73    H     0.12390   0.33206   0.28397   0.00000  Uiso   1.00
H74    H     0.14321   0.16399   0.10142   0.00000  Uiso   1.00
H75    H     0.25380   0.10567   0.09453   0.00000  Uiso   1.00
H76    H     0.24948   0.09750   0.46332   0.00000  Uiso   1.00
H77    H     0.07800   0.22485   0.40628   0.00000  Uiso   1.00
H78    H     0.19088   0.17105   0.40050   0.00000  Uiso   1.00
O79    O     0.16667   0.16667   0.25000   0.00000  Uiso   1.00
O80    O     0.15693   0.12393   0.16625   0.00000  Uiso   1.00
O81    O     0.12687   0.20646   0.33749   0.00000  Uiso   1.00
O82    O     0.21088   0.17493   0.15877   0.00000  Uiso   1.00
O83    O     0.17198   0.16135   0.33749   0.00000  Uiso   1.00
O84    O     0.02272   0.20078   0.21169   0.00000  Uiso   1.00
O85    O     0.05397   0.24185   0.48393   0.00000  Uiso   1.00
O86    O     0.13205   0.22109   0.07843   0.00000  Uiso   1.00
O87    O     0.20397   0.11425   0.42174   0.00000  Uiso   1.00
O88    O     0.17849   0.08101   0.27820   0.00000  Uiso   1.00
O89    O     0.14581   0.26136   0.26767   0.00000  Uiso   1.00
O90    O     0.07452   0.13251   0.23607   0.00000  Uiso   1.00
O91    O     0.26785   0.19179   0.21805   0.00000  Uiso   1.00
O92    O     0.06990   0.18960   0.27820   0.00000  Uiso   1.00
O93    O     0.25440   0.15277   0.26767   0.00000  Uiso   1.00
O94    O     0.13800   0.06903   0.23607   0.00000  Uiso   1.00
O95    O     0.20437   0.25527   0.21805   0.00000  Uiso   1.00
Zn96   Zn    0.19244   0.14090   0.28277   0.00000  Uiso   1.00
Zn97   Zn    0.13459   0.12378   0.22257   0.00000  Uiso   1.00
Zn98   Zn    0.21166   0.19664   0.21188   0.00000  Uiso   1.00
Zn99   Zn    0.12798   0.20535   0.28277   0.00000  Uiso   1.00
Br100  Br    0.64050   0.12088   0.30232   0.00000  Uiso   1.00
C101   C     0.38612   0.16010   0.25846   0.00000  Uiso   1.00
C102   C     0.53334   0.13182   0.46002   0.00000  Uiso   1.00
C103   C     0.55891   0.11813   0.47960   0.00000  Uiso   1.00
C104   C     0.61429   0.17374   0.24159   0.00000  Uiso   1.00
C105   C     0.55150   0.12739   0.01994   0.00000  Uiso   1.00
C106   C     0.51754   0.15109   0.04167   0.00000  Uiso   1.00
C107   C     0.57642   0.11119   0.03913   0.00000  Uiso   1.00
C108   C     0.56711   0.11727   0.07992   0.00000  Uiso   1.00
C109   C     0.50568   0.15217   0.08295   0.00000  Uiso   1.00
C110   C     0.65998   0.17745   0.23957   0.00000  Uiso   1.00
C111   C     0.34091   0.15671   0.26275   0.00000  Uiso   1.00
C112   C     0.43229   0.21503   0.42100   0.00000  Uiso   1.00
C113   C     0.51421   0.32224   0.23817   0.00000  Uiso   1.00
C114   C     0.48483   0.01206   0.26207   0.00000  Uiso   1.00
C115   C     0.48917   0.05615   0.25895   0.00000  Uiso   1.00
C116   C     0.51016   0.27766   0.24132   0.00000  Uiso   1.00
C117   C     0.52183   0.14505   0.14413   0.00000  Uiso   1.00
C118   C     0.47878   0.18780   0.35608   0.00000  Uiso   1.00
C119   C     0.46839   0.19538   0.39911   0.00000  Uiso   1.00
C120   C     0.53117   0.13700   0.10172   0.00000  Uiso   1.00
C121   C     0.42322   0.22253   0.46204   0.00000  Uiso   1.00
C122   C     0.35695   0.24364   0.22638   0.00000  Uiso   1.00
C123   C     0.49413   0.18128   0.41839   0.00000  Uiso   1.00
C124   C     0.39549   0.26822   0.19997   0.00000  Uiso   1.00
C125   C     0.39768   0.31507   0.21369   0.00000  Uiso   1.00
C126   C     0.39174   0.28428   0.47642   0.00000  Uiso   1.00
C127   C     0.41877   0.31245   0.00072   0.00000  Uiso   1.00
C128   C     0.41769   0.02541   0.49781   0.00000  Uiso   1.00
C129   C     0.49919   0.25416   0.07593   0.00000  Uiso   1.00
C130   C     0.49563   0.27724   0.11694   0.00000  Uiso   1.00
C131   C     0.53202   0.31276   0.11642   0.00000  Uiso   1.00
C132   C     0.50552   0.07960   0.42200   0.00000  Uiso   1.00
C133   C     0.51132   0.05847   0.38002   0.00000  Uiso   1.00
C134   C     0.48220   0.18226   0.45956   0.00000  Uiso   1.00
C135   C     0.47830   0.02010   0.37853   0.00000  Uiso   1.00
C136   C     0.44805   0.20583   0.48133   0.00000  Uiso   1.00
C137   C     0.50414   0.16194   0.47967   0.00000  Uiso   1.00
C138   C     0.49597   0.17147   0.02138   0.00000  Uiso   1.00
C139   C     0.46733   0.20188   0.04096   0.00000  Uiso   1.00
C140   C     0.44107   0.21498   0.02180   0.00000  Uiso   1.00
H141   H     0.41735   0.23550   0.03860   0.00000  Uiso   1.00
H142   H     0.36038   0.24869   0.25692   0.00000  Uiso   1.00
H143   H     0.66031   0.25585   0.22624   0.00000  Uiso   1.00
H144   H     0.42559   0.25648   0.20032   0.00000  Uiso   1.00
H145   H     0.39291   0.26321   0.16929   0.00000  Uiso   1.00
H146   H     0.36873   0.32785   0.21191   0.00000  Uiso   1.00
H147   H     0.42668   0.33181   0.19460   0.00000  Uiso   1.00
H148   H     0.39971   0.32077   0.24451   0.00000  Uiso   1.00
H149   H     0.35894   0.29434   0.48547   0.00000  Uiso   1.00
H150   H     0.40521   0.28893   0.44468   0.00000  Uiso   1.00
H151   H     0.40608   0.30645   0.03211   0.00000  Uiso   1.00
H152   H     0.60306   0.09387   0.02257   0.00000  Uiso   1.00
H153   H     0.45264   0.30517   0.48985   0.00000  Uiso   1.00
H154   H     0.42747   0.03172   0.46654   0.00000  Uiso   1.00
H155   H     0.44015   0.04498   0.01298   0.00000  Uiso   1.00
H156   H     0.38473   0.03430   0.01194   0.00000  Uiso   1.00
H157   H     0.49712   0.27698   0.05612   0.00000  Uiso   1.00
H158   H     0.53099   0.24170   0.06470   0.00000  Uiso   1.00
H159   H     0.46444   0.29063   0.12792   0.00000  Uiso   1.00
H160   H     0.49660   0.25476   0.13738   0.00000  Uiso   1.00
H161   H     0.56362   0.30012   0.10634   0.00000  Uiso   1.00
H162   H     0.52809   0.32904   0.14657   0.00000  Uiso   1.00
H163   H     0.54138   0.00301   0.21630   0.00000  Uiso   1.00
H164   H     0.53131   0.00257   0.09654   0.00000  Uiso   1.00
H165   H     0.47281   0.09015   0.43304   0.00000  Uiso   1.00
H166   H     0.50857   0.05620   0.44080   0.00000  Uiso   1.00
H167   H     0.50779   0.08122   0.36099   0.00000  Uiso   1.00
H168   H     0.54418   0.04856   0.36834   0.00000  Uiso   1.00
H169   H     0.48128   0.33017   0.39732   0.00000  Uiso   1.00
H170   H     0.48391   0.00512   0.34780   0.00000  Uiso   1.00
H171   H     0.44521   0.02949   0.38879   0.00000  Uiso   1.00
H172   H     0.45724   0.33206   0.28397   0.00000  Uiso   1.00
H173   H     0.47654   0.16399   0.10142   0.00000  Uiso   1.00
H174   H     0.58713   0.10567   0.09453   0.00000  Uiso   1.00
H175   H     0.58282   0.09750   0.46332   0.00000  Uiso   1.00
H176   H     0.41134   0.22485   0.40628   0.00000  Uiso   1.00
H177   H     0.52421   0.17105   0.40050   0.00000  Uiso   1.00
O178   O     0.50000   0.16667   0.25000   0.00000  Uiso   1.00
O179   O     0.49027   0.12393   0.16625   0.00000  Uiso   1.00
O180   O     0.46020   0.20646   0.33749   0.00000  Uiso   1.00
O181   O     0.54421   0.17493   0.15877   0.00000  Uiso   1.00
O182   O     0.50532   0.16135   0.33749   0.00000  Uiso   1.00
O183   O     0.35605   0.20078   0.21169   0.00000  Uiso   1.00
O184   O     0.38730   0.24185   0.48393   0.00000  Uiso   1.00
O185   O     0.46538   0.22109   0.07843   0.00000  Uiso   1.00
O186   O     0.53730   0.11425   0.42174   0.00000  Uiso   1.00
O187   O     0.51182   0.08101   0.27820   0.00000  Uiso   1.00
O188   O     0.47914   0.26136   0.26767   0.00000  Uiso   1.00
O189   O     0.40785   0.13251   0.23607   0.00000  Uiso   1.00
O190   O     0.60119   0.19179   0.21805   0.00000  Uiso   1.00
O191   O     0.40323   0.18960   0.27820   0.00000  Uiso   1.00
O192   O     0.58773   0.15277   0.26767   0.00000  Uiso   1.00
O193   O     0.47133   0.06903   0.23607   0.00000  Uiso   1.00
O194   O     0.53771   0.25527   0.21805   0.00000  Uiso   1.00
Zn195  Zn    0.52577   0.14090   0.28277   0.00000  Uiso   1.00
Zn196  Zn    0.46792   0.12378   0.22257   0.00000  Uiso   1.00
Zn197  Zn    0.54500   0.19664   0.21188   0.00000  Uiso   1.00
Zn198  Zn    0.46131   0.20535   0.28277   0.00000  Uiso   1.00
Br199  Br    0.97383   0.12088   0.30232   0.00000  Uiso   1.00
C200   C     0.71946   0.16010   0.25846   0.00000  Uiso   1.00
C201   C     0.86667   0.13182   0.46002   0.00000  Uiso   1.00
C202   C     0.89224   0.11813   0.47960   0.00000  Uiso   1.00
C203   C     0.94762   0.17374   0.24159   0.00000  Uiso   1.00
C204   C     0.88484   0.12739   0.01994   0.00000  Uiso   1.00
C205   C     0.85087   0.15109   0.04167   0.00000  Uiso   1.00
C206   C     0.90975   0.11119   0.03913   0.00000  Uiso   1.00
C207   C     0.90044   0.11727   0.07992   0.00000  Uiso   1.00
C208   C     0.83902   0.15217   0.08295   0.00000  Uiso   1.00
C209   C     0.99332   0.17745   0.23957   0.00000  Uiso   1.00
C210   C     0.67424   0.15671   0.26275   0.00000  Uiso   1.00
C211   C     0.76563   0.21503   0.42100   0.00000  Uiso   1.00
C212   C     0.84755   0.32224   0.23817   0.00000  Uiso   1.00
C213   C     0.81816   0.01206   0.26207   0.00000  Uiso   1.00
C214   C     0.82251   0.05615   0.25895   0.00000  Uiso   1.00
C215   C     0.84349   0.27766   0.24132   0.00000  Uiso   1.00
C216   C     0.85516   0.14505   0.14413   0.00000  Uiso   1.00
C217   C     0.81212   0.18780   0.35608   0.00000  Uiso   1.00
C218   C     0.80172   0.19538   0.39911   0.00000  Uiso   1.00
C219   C     0.86451   0.13700   0.10172   0.00000  Uiso   1.00
C220   C     0.75655   0.22253   0.46204   0.00000  Uiso   1.00
C221   C     0.69029   0.24364   0.22638   0.00000  Uiso   1.00
C222   C     0.82746   0.18128   0.41839   0.00000  Uiso   1.00
C223   C     0.72882   0.26822   0.19997   0.00000  Uiso   1.00
C224   C     0.73101   0.31507   0.21369   0.00000  Uiso   1.00
C225   C     0.72507   0.28428   0.47642   0.00000  Uiso   1.00
C226   C     0.75211   0.31245   0.00072   0.00000  Uiso   1.00
C227   C     0.75102   0.02541   0.49781   0.00000  Uiso   1.00
C228   C     0.83252   0.25416   0.07593   0.00000  Uiso   1.00
C229   C     0.82897   0.27724   0.11694   0.00000  Uiso   1.00
C230   C     0.86535   0.31276   0.11642   0.00000  Uiso   1.00
C231   C     0.83885   0.07960   0.42200   0.00000  Uiso   1.00
C232   C     0.84465   0.05847   0.38002   0.00000  Uiso   1.00
C233   C     0.81554   0.18226   0.45956   0.00000  Uiso   1.00
C234   C     0.81164   0.02010   0.37853   0.00000  Uiso   1.00
C235   C     0.78138   0.20583   0.48133   0.00000  Uiso   1.00
C236   C     0.83747   0.16194   0.47967   0.00000  Uiso   1.00
C237   C     0.82930   0.17147   0.02138   0.00000  Uiso   1.00
C238   C     0.80066   0.20188   0.04096   0.00000  Uiso   1.00
C239   C     0.77440   0.21498   0.02180   0.00000  Uiso   1.00
H240   H     0.75069   0.23550   0.03860   0.00000  Uiso   1.00
H241   H     0.69371   0.24869   0.25692   0.00000  Uiso   1.00
H242   H     0.99364   0.25585   0.22624   0.00000  Uiso   1.00
H243   H     0.75893   0.25648   0.20032   0.00000  Uiso   1.00
H244   H     0.72625   0.26321   0.16929   0.00000  Uiso   1.00
H245   H     0.70207   0.32785   0.21191   0.00000  Uiso   1.00
H246   H     0.76001   0.33181   0.19460   0.00000  Uiso   1.00
H247   H     0.73304   0.32077   0.24451   0.00000  Uiso   1.00
H248   H     0.69227   0.29434   0.48547   0.00000  Uiso   1.00
H249   H     0.73854   0.28893   0.44468   0.00000  Uiso   1.00
H250   H     0.73942   0.30645   0.03211   0.00000  Uiso   1.00
H251   H     0.93640   0.09387   0.02257   0.00000  Uiso   1.00
H252   H     0.78598   0.30517   0.48985   0.00000  Uiso   1.00
H253   H     0.76080   0.03172   0.46654   0.00000  Uiso   1.00
H254   H     0.77348   0.04498   0.01298   0.00000  Uiso   1.00
H255   H     0.71806   0.03430   0.01194   0.00000  Uiso   1.00
H256   H     0.83045   0.27698   0.05612   0.00000  Uiso   1.00
H257   H     0.86432   0.24170   0.06470   0.00000  Uiso   1.00
H258   H     0.79777   0.29063   0.12792   0.00000  Uiso   1.00
H259   H     0.82993   0.25476   0.13738   0.00000  Uiso   1.00
H260   H     0.89696   0.30012   0.10634   0.00000  Uiso   1.00
H261   H     0.86142   0.32904   0.14657   0.00000  Uiso   1.00
H262   H     0.87471   0.00301   0.21630   0.00000  Uiso   1.00
H263   H     0.86464   0.00257   0.09654   0.00000  Uiso   1.00
H264   H     0.80614   0.09015   0.43304   0.00000  Uiso   1.00
H265   H     0.84191   0.05620   0.44080   0.00000  Uiso   1.00
H266   H     0.84112   0.08122   0.36099   0.00000  Uiso   1.00
H267   H     0.87751   0.04856   0.36834   0.00000  Uiso   1.00
H268   H     0.81461   0.33017   0.39732   0.00000  Uiso   1.00
H269   H     0.81724   0.00512   0.34780   0.00000  Uiso   1.00
H270   H     0.77855   0.02949   0.38879   0.00000  Uiso   1.00
H271   H     0.79057   0.33206   0.28397   0.00000  Uiso   1.00
H272   H     0.80987   0.16399   0.10142   0.00000  Uiso   1.00
H273   H     0.92046   0.10567   0.09453   0.00000  Uiso   1.00
H274   H     0.91615   0.09750   0.46332   0.00000  Uiso   1.00
H275   H     0.74467   0.22485   0.40628   0.00000  Uiso   1.00
H276   H     0.85754   0.17105   0.40050   0.00000  Uiso   1.00
O277   O     0.83333   0.16667   0.25000   0.00000  Uiso   1.00
O278   O     0.82360   0.12393   0.16625   0.00000  Uiso   1.00
O279   O     0.79354   0.20646   0.33749   0.00000  Uiso   1.00
O280   O     0.87755   0.17493   0.15877   0.00000  Uiso   1.00
O281   O     0.83865   0.16135   0.33749   0.00000  Uiso   1.00
O282   O     0.68938   0.20078   0.21169   0.00000  Uiso   1.00
O283   O     0.72063   0.24185   0.48393   0.00000  Uiso   1.00
O284   O     0.79872   0.22109   0.07843   0.00000  Uiso   1.00
O285   O     0.87064   0.11425   0.42174   0.00000  Uiso   1.00
O286   O     0.84515   0.08101   0.27820   0.00000  Uiso   1.00
O287   O     0.81247   0.26136   0.26767   0.00000  Uiso   1.00
O288   O     0.74119   0.13251   0.23607   0.00000  Uiso   1.00
O289   O     0.93452   0.19179   0.21805   0.00000  Uiso   1.00
O290   O     0.73656   0.18960   0.27820   0.00000  Uiso   1.00
O291   O     0.92106   0.15277   0.26767   0.00000  Uiso   1.00
O292   O     0.80467   0.06903   0.23607   0.00000  Uiso   1.00
O293   O     0.87104   0.25527   0.21805   0.00000  Uiso   1.00
Zn294  Zn    0.85910   0.14090   0.28277   0.00000  Uiso   1.00
Zn295  Zn    0.80125   0.12378   0.22257   0.00000  Uiso   1.00
Zn296  Zn    0.87833   0.19664   0.21188   0.00000  Uiso   1.00
Zn297  Zn    0.79465   0.20535   0.28277   0.00000  Uiso   1.00
Br298  Br    0.30716   0.45421   0.30232   0.00000  Uiso   1.00
C299   C     0.05279   0.49343   0.25846   0.00000  Uiso   1.00
C300   C     0.20000   0.46516   0.46002   0.00000  Uiso   1.00
C301   C     0.22557   0.45146   0.47960   0.00000  Uiso   1.00
C302   C     0.28095   0.50707   0.24159   0.00000  Uiso   1.00
C303   C     0.21817   0.46072   0.01994   0.00000  Uiso   1.00
C304   C     0.18420   0.48442   0.04167   0.00000  Uiso   1.00
C305   C     0.24309   0.44452   0.03913   0.00000  Uiso   1.00
C306   C     0.23378   0.45060   0.07992   0.00000  Uiso   1.00
C307   C     0.17235   0.48551   0.08295   0.00000  Uiso   1.00
C308   C     0.32665   0.51079   0.23957   0.00000  Uiso   1.00
C309   C     0.00757   0.49004   0.26275   0.00000  Uiso   1.00
C310   C     0.09896   0.54837   0.42100   0.00000  Uiso   1.00
C311   C     0.18088   0.65557   0.23817   0.00000  Uiso   1.00
C312   C     0.15149   0.34539   0.26207   0.00000  Uiso   1.00
C313   C     0.15584   0.38948   0.25895   0.00000  Uiso   1.00
C314   C     0.17682   0.61100   0.24132   0.00000  Uiso   1.00
C315   C     0.18850   0.47838   0.14413   0.00000  Uiso   1.00
C316   C     0.14545   0.52114   0.35608   0.00000  Uiso   1.00
C317   C     0.13505   0.52872   0.39911   0.00000  Uiso   1.00
C318   C     0.19784   0.47033   0.10172   0.00000  Uiso   1.00
C319   C     0.08989   0.55586   0.46204   0.00000  Uiso   1.00
C320   C     0.02362   0.57697   0.22638   0.00000  Uiso   1.00
C321   C     0.16079   0.51461   0.41839   0.00000  Uiso   1.00
C322   C     0.06215   0.60155   0.19997   0.00000  Uiso   1.00
C323   C     0.06434   0.64841   0.21369   0.00000  Uiso   1.00
C324   C     0.05840   0.61761   0.47642   0.00000  Uiso   1.00
C325   C     0.08544   0.64578   0.00072   0.00000  Uiso   1.00
C326   C     0.08435   0.35875   0.49781   0.00000  Uiso   1.00
C327   C     0.16586   0.58750   0.07593   0.00000  Uiso   1.00
C328   C     0.16230   0.61057   0.11694   0.00000  Uiso   1.00
C329   C     0.19868   0.64609   0.11642   0.00000  Uiso   1.00
C330   C     0.17218   0.41294   0.42200   0.00000  Uiso   1.00
C331   C     0.17799   0.39180   0.38002   0.00000  Uiso   1.00
C332   C     0.14887   0.51559   0.45956   0.00000  Uiso   1.00
C333   C     0.14497   0.35344   0.37853   0.00000  Uiso   1.00
C334   C     0.11472   0.53916   0.48133   0.00000  Uiso   1.00
C335   C     0.17081   0.49527   0.47967   0.00000  Uiso   1.00
C336   C     0.16264   0.50480   0.02138   0.00000  Uiso   1.00
C337   C     0.13399   0.53522   0.04096   0.00000  Uiso   1.00
C338   C     0.10773   0.54832   0.02180   0.00000  Uiso   1.00
H339   H     0.08402   0.56883   0.03860   0.00000  Uiso   1.00
H340   H     0.02704   0.58202   0.25692   0.00000  Uiso   1.00
H341   H     0.32697   0.58919   0.22624   0.00000  Uiso   1.00
H342   H     0.09226   0.58982   0.20032   0.00000  Uiso   1.00
H343   H     0.05958   0.59655   0.16929   0.00000  Uiso   1.00
H344   H     0.03540   0.66119   0.21191   0.00000  Uiso   1.00
H345   H     0.09334   0.66515   0.19460   0.00000  Uiso   1.00
H346   H     0.06637   0.65411   0.24451   0.00000  Uiso   1.00
H347   H     0.02561   0.62767   0.48547   0.00000  Uiso   1.00
H348   H     0.07188   0.62227   0.44468   0.00000  Uiso   1.00
H349   H     0.07275   0.63979   0.03211   0.00000  Uiso   1.00
H350   H     0.26973   0.42720   0.02257   0.00000  Uiso   1.00
H351   H     0.11931   0.63850   0.48985   0.00000  Uiso   1.00
H352   H     0.09413   0.36505   0.46654   0.00000  Uiso   1.00
H353   H     0.10681   0.37832   0.01298   0.00000  Uiso   1.00
H354   H     0.05139   0.36763   0.01194   0.00000  Uiso   1.00
H355   H     0.16378   0.61031   0.05612   0.00000  Uiso   1.00
H356   H     0.19765   0.57503   0.06470   0.00000  Uiso   1.00
H357   H     0.13111   0.62397   0.12792   0.00000  Uiso   1.00
H358   H     0.16326   0.58810   0.13738   0.00000  Uiso   1.00
H359   H     0.23029   0.63345   0.10634   0.00000  Uiso   1.00
H360   H     0.19475   0.66238   0.14657   0.00000  Uiso   1.00
H361   H     0.20805   0.33634   0.21630   0.00000  Uiso   1.00
H362   H     0.19797   0.33590   0.09654   0.00000  Uiso   1.00
H363   H     0.13948   0.42348   0.43304   0.00000  Uiso   1.00
H364   H     0.17524   0.38954   0.44080   0.00000  Uiso   1.00
H365   H     0.17446   0.41456   0.36099   0.00000  Uiso   1.00
H366   H     0.21084   0.38190   0.36834   0.00000  Uiso   1.00
H367   H     0.14794   0.66350   0.39732   0.00000  Uiso   1.00
H368   H     0.15058   0.33845   0.34780   0.00000  Uiso   1.00
H369   H     0.11188   0.36282   0.38879   0.00000  Uiso   1.00
H370   H     0.12390   0.66539   0.28397   0.00000  Uiso   1.00
H371   H     0.14321   0.49733   0.10142   0.00000  Uiso   1.00
H372   H     0.25380   0.43900   0.09453   0.00000  Uiso   1.00
H373   H     0.24948   0.43083   0.46332   0.00000  Uiso   1.00
H374   H     0.07800   0.55818   0.40628   0.00000  Uiso   1.00
H375   H     0.19088   0.50438   0.40050   0.00000  Uiso   1.00
O376   O     0.16667   0.50000   0.25000   0.00000  Uiso   1.00
O377   O     0.15693   0.45726   0.16625   0.00000  Uiso   1.00
O378   O     0.12687   0.53979   0.33749   0.00000  Uiso   1.00
O379   O     0.21088   0.50826   0.15877   0.00000  Uiso   1.00
O380   O     0.17198   0.49468   0.33749   0.00000  Uiso   1.00
O381   O     0.02272   0.53412   0.21169   0.00000  Uiso   1.00
O382   O     0.05397   0.57519   0.48393   0.00000  Uiso   1.00
O383   O     0.13205   0.55443   0.07843   0.00000  Uiso   1.00
O384   O     0.20397   0.44758   0.42174   0.00000  Uiso   1.00
O385   O     0.17849   0.41434   0.27820   0.00000  Uiso   1.00
O386   O     0.14581   0.59469   0.26767   0.00000  Uiso   1.00
O387   O     0.07452   0.46584   0.23607   0.00000  Uiso   1.00
O388   O     0.26785   0.52512   0.21805   0.00000  Uiso   1.00
O389   O     0.06990   0.52293   0.27820   0.00000  Uiso   1.00
O390   O     0.25440   0.48610   0.26767   0.00000  Uiso   1.00
O391   O     0.13800   0.40236   0.23607   0.00000  Uiso   1.00
O392   O     0.20437   0.58860   0.21805   0.00000  Uiso   1.00
Zn393  Zn    0.19244   0.47423   0.28277   0.00000  Uiso   1.00
Zn394  Zn    0.13459   0.45711   0.22257   0.00000  Uiso   1.00
Zn395  Zn    0.21166   0.52997   0.21188   0.00000  Uiso   1.00
Zn396  Zn    0.12798   0.53868   0.28277   0.00000  Uiso   1.00
Br397  Br    0.64050   0.45421   0.30232   0.00000  Uiso   1.00
C398   C     0.38612   0.49343   0.25846   0.00000  Uiso   1.00
C399   C     0.53334   0.46516   0.46002   0.00000  Uiso   1.00
C400   C     0.55891   0.45146   0.47960   0.00000  Uiso   1.00
C401   C     0.61429   0.50707   0.24159   0.00000  Uiso   1.00
C402   C     0.55150   0.46072   0.01994   0.00000  Uiso   1.00
C403   C     0.51754   0.48442   0.04167   0.00000  Uiso   1.00
C404   C     0.57642   0.44452   0.03913   0.00000  Uiso   1.00
C405   C     0.56711   0.45060   0.07992   0.00000  Uiso   1.00
C406   C     0.50568   0.48551   0.08295   0.00000  Uiso   1.00
C407   C     0.65998   0.51079   0.23957   0.00000  Uiso   1.00
C408   C     0.34091   0.49004   0.26275   0.00000  Uiso   1.00
C409   C     0.43229   0.54837   0.42100   0.00000  Uiso   1.00
C410   C     0.51421   0.65557   0.23817   0.00000  Uiso   1.00
C411   C     0.48483   0.34539   0.26207   0.00000  Uiso   1.00
C412   C     0.48917   0.38948   0.25895   0.00000  Uiso   1.00
C413   C     0.51016   0.61100   0.24132   0.00000  Uiso   1.00
C414   C     0.52183   0.47838   0.14413   0.00000  Uiso   1.00
C415   C     0.47878   0.52114   0.35608   0.00000  Uiso   1.00
C416   C     0.46839   0.52872   0.39911   0.00000  Uiso   1.00
C417   C     0.53117   0.47033   0.10172   0.00000  Uiso   1.00
C418   C     0.42322   0.55586   0.46204   0.00000  Uiso   1.00
C419   C     0.35695   0.57697   0.22638   0.00000  Uiso   1.00
C420   C     0.49413   0.51461   0.41839   0.00000  Uiso   1.00
C421   C     0.39549   0.60155   0.19997   0.00000  Uiso   1.00
C422   C     0.39768   0.64841   0.21369   0.00000  Uiso   1.00
C423   C     0.39174   0.61761   0.47642   0.00000  Uiso   1.00
C424   C     0.41877   0.64578   0.00072   0.00000  Uiso   1.00
C425   C     0.41769   0.35875   0.49781   0.00000  Uiso   1.00
C426   C     0.49919   0.58750   0.07593   0.00000  Uiso   1.00
C427   C     0.49563   0.61057   0.11694   0.00000  Uiso   1.00
C428   C     0.53202   0.64609   0.11642   0.00000  Uiso   1.00
C429   C     0.50552   0.41294   0.42200   0.00000  Uiso   1.00
C430   C     0.51132   0.39180   0.38002   0.00000  Uiso   1.00
C431   C     0.48220   0.51559   0.45956   0.00000  Uiso   1.00
C432   C     0.47830   0.35344   0.37853   0.00000  Uiso   1.00
C433   C     0.44805   0.53916   0.48133   0.00000  Uiso   1.00
C434   C     0.50414   0.49527   0.47967   0.00000  Uiso   1.00
C435   C     0.49597   0.50480   0.02138   0.00000  Uiso   1.00
C436   C     0.46733   0.53522   0.04096   0.00000  Uiso   1.00
C437   C     0.44107   0.54832   0.02180   0.00000  Uiso   1.00
H438   H     0.41735   0.56883   0.03860   0.00000  Uiso   1.00
H439   H     0.36038   0.58202   0.25692   0.00000  Uiso   1.00
H440   H     0.66031   0.58919   0.22624   0.00000  Uiso   1.00
H441   H     0.42559   0.58982   0.20032   0.00000  Uiso   1.00
H442   H     0.39291   0.59655   0.16929   0.00000  Uiso   1.00
H443   H     0.36873   0.66119   0.21191   0.00000  Uiso   1.00
H444   H     0.42668   0.66515   0.19460   0.00000  Uiso   1.00
H445   H     0.39971   0.65411   0.24451   0.00000  Uiso   1.00
H446   H     0.35894   0.62767   0.48547   0.00000  Uiso   1.00
H447   H     0.40521   0.62227   0.44468   0.00000  Uiso   1.00
H448   H     0.40608   0.63979   0.03211   0.00000  Uiso   1.00
H449   H     0.60306   0.42720   0.02257   0.00000  Uiso   1.00
H450   H     0.45264   0.63850   0.48985   0.00000  Uiso   1.00
H451   H     0.42747   0.36505   0.46654   0.00000  Uiso   1.00
H452   H     0.44015   0.37832   0.01298   0.00000  Uiso   1.00
H453   H     0.38473   0.36763   0.01194   0.00000  Uiso   1.00
H454   H     0.49712   0.61031   0.05612   0.00000  Uiso   1.00
H455   H     0.53099   0.57503   0.06470   0.00000  Uiso   1.00
H456   H     0.46444   0.62397   0.12792   0.00000  Uiso   1.00
H457   H     0.49660   0.58810   0.13738   0.00000  Uiso   1.00
H458   H     0.56362   0.63345   0.10634   0.00000  Uiso   1.00
H459   H     0.52809   0.66238   0.14657   0.00000  Uiso   1.00
H460   H     0.54138   0.33634   0.21630   0.00000  Uiso   1.00
H461   H     0.53131   0.33590   0.09654   0.00000  Uiso   1.00
H462   H     0.47281   0.42348   0.43304   0.00000  Uiso   1.00
H463   H     0.50857   0.38954   0.44080   0.00000  Uiso   1.00
H464   H     0.50779   0.41456   0.36099   0.00000  Uiso   1.00
H465   H     0.54418   0.38190   0.36834   0.00000  Uiso   1.00
H466   H     0.48128   0.66350   0.39732   0.00000  Uiso   1.00
H467   H     0.48391   0.33845   0.34780   0.00000  Uiso   1.00
H468   H     0.44521   0.36282   0.38879   0.00000  Uiso   1.00
H469   H     0.45724   0.66539   0.28397   0.00000  Uiso   1.00
H470   H     0.47654   0.49733   0.10142   0.00000  Uiso   1.00
H471   H     0.58713   0.43900   0.09453   0.00000  Uiso   1.00
H472   H     0.58282   0.43083   0.46332   0.00000  Uiso   1.00
H473   H     0.41134   0.55818   0.40628   0.00000  Uiso   1.00
H474   H     0.52421   0.50438   0.40050   0.00000  Uiso   1.00
O475   O     0.50000   0.50000   0.25000   0.00000  Uiso   1.00
O476   O     0.49027   0.45726   0.16625   0.00000  Uiso   1.00
O477   O     0.46020   0.53979   0.33749   0.00000  Uiso   1.00
O478   O     0.54421   0.50826   0.15877   0.00000  Uiso   1.00
O479   O     0.50532   0.49468   0.33749   0.00000  Uiso   1.00
O480   O     0.35605   0.53412   0.21169   0.00000  Uiso   1.00
O481   O     0.38730   0.57519   0.48393   0.00000  Uiso   1.00
O482   O     0.46538   0.55443   0.07843   0.00000  Uiso   1.00
O483   O     0.53730   0.44758   0.42174   0.00000  Uiso   1.00
O484   O     0.51182   0.41434   0.27820   0.00000  Uiso   1.00
O485   O     0.47914   0.59469   0.26767   0.00000  Uiso   1.00
O486   O     0.40785   0.46584   0.23607   0.00000  Uiso   1.00
O487   O     0.60119   0.52512   0.21805   0.00000  Uiso   1.00
O488   O     0.40323   0.52293   0.27820   0.00000  Uiso   1.00
O489   O     0.58773   0.48610   0.26767   0.00000  Uiso   1.00
O490   O     0.47133   0.40236   0.23607   0.00000  Uiso   1.00
O491   O     0.53771   0.58860   0.21805   0.00000  Uiso   1.00
Zn492  Zn    0.52577   0.47423   0.28277   0.00000  Uiso   1.00
Zn493  Zn    0.46792   0.45711   0.22257   0.00000  Uiso   1.00
Zn494  Zn    0.54500   0.52997   0.21188   0.00000  Uiso   1.00
Zn495  Zn    0.46131   0.53868   0.28277   0.00000  Uiso   1.00
Br496  Br    0.97383   0.45421   0.30232   0.00000  Uiso   1.00
C497   C     0.71946   0.49343   0.25846   0.00000  Uiso   1.00
C498   C     0.86667   0.46516   0.46002   0.00000  Uiso   1.00
C499   C     0.89224   0.45146   0.47960   0.00000  Uiso   1.00
C500   C     0.94762   0.50707   0.24159   0.00000  Uiso   1.00
C501   C     0.88484   0.46072   0.01994   0.00000  Uiso   1.00
C502   C     0.85087   0.48442   0.04167   0.00000  Uiso   1.00
C503   C     0.90975   0.44452   0.03913   0.00000  Uiso   1.00
C504   C     0.90044   0.45060   0.07992   0.00000  Uiso   1.00
C505   C     0.83902   0.48551   0.08295   0.00000  Uiso   1.00
C506   C     0.99332   0.51079   0.23957   0.00000  Uiso   1.00
C507   C     0.67424   0.49004   0.26275   0.00000  Uiso   1.00
C508   C     0.76563   0.54837   0.42100   0.00000  Uiso   1.00
C509   C     0.84755   0.65557   0.23817   0.00000  Uiso   1.00
C510   C     0.81816   0.34539   0.26207   0.00000  Uiso   1.00
C511   C     0.82251   0.38948   0.25895   0.00000  Uiso   1.00
C512   C     0.84349   0.61100   0.24132   0.00000  Uiso   1.00
C513   C     0.85516   0.47838   0.14413   0.00000  Uiso   1.00
C514   C     0.81212   0.52114   0.35608   0.00000  Uiso   1.00
C515   C     0.80172   0.52872   0.39911   0.00000  Uiso   1.00
C516   C     0.86451   0.47033   0.10172   0.00000  Uiso   1.00
C517   C     0.75655   0.55586   0.46204   0.00000  Uiso   1.00
C518   C     0.69029   0.57697   0.22638   0.00000  Uiso   1.00
C519   C     0.82746   0.51461   0.41839   0.00000  Uiso   1.00
C520   C     0.72882   0.60155   0.19997   0.00000  Uiso   1.00
C521   C     0.73101   0.64841   0.21369   0.00000  Uiso   1.00
C522   C     0.72507   0.61761   0.47642   0.00000  Uiso   1.00
C523   C     0.75211   0.64578   0.00072   0.00000  Uiso   1.00
C524   C     0.75102   0.35875   0.49781   0.00000  Uiso   1.00
C525   C     0.83252   0.58750   0.07593   0.00000  Uiso   1.00
C526   C     0.82897   0.61057   0.11694   0.00000  Uiso   1.00
C527   C     0.86535   0.64609   0.11642   0.00000  Uiso   1.00
C528   C     0.83885   0.41294   0.42200   0.00000  Uiso   1.00
C529   C     0.84465   0.39180   0.38002   0.00000  Uiso   1.00
C530   C     0.81554   0.51559   0.45956   0.00000  Uiso   1.00
C531   C     0.81164   0.35344   0.37853   0.00000  Uiso   1.00
C532   C     0.78138   0.53916   0.48133   0.00000  Uiso   1.00
C533   C     0.83747   0.49527   0.47967   0.00000  Uiso   1.00
C534   C     0.82930   0.50480   0.02138   0.00000  Uiso   1.00
C535   C     0.80066   0.53522   0.04096   0.00000  Uiso   1.00
C536   C     0.77440   0.54832   0.02180   0.00000  Uiso   1.00
H537   H     0.75069   0.56883   0.03860   0.00000  Uiso   1.00
H538   H     0.69371   0.58202   0.25692   0.00000  Uiso   1.00
H539   H     0.99364   0.58919   0.22624   0.00000  Uiso   1.00
H540   H     0.75893   0.58982   0.20032   0.00000  Uiso   1.00
H541   H     0.72625   0.59655   0.16929   0.00000  Uiso   1.00
H542   H     0.70207   0.66119   0.21191   0.00000  Uiso   1.00
H543   H     0.76001   0.66515   0.19460   0.00000  Uiso   1.00
H544   H     0.73304   0.65411   0.24451   0.00000  Uiso   1.00
H545   H     0.69227   0.62767   0.48547   0.00000  Uiso   1.00
H546   H     0.73854   0.62227   0.44468   0.00000  Uiso   1.00
H547   H     0.73942   0.63979   0.03211   0.00000  Uiso   1.00
H548   H     0.93640   0.42720   0.02257   0.00000  Uiso   1.00
H549   H     0.78598   0.63850   0.48985   0.00000  Uiso   1.00
H550   H     0.76080   0.36505   0.46654   0.00000  Uiso   1.00
H551   H     0.77348   0.37832   0.01298   0.00000  Uiso   1.00
H552   H     0.71806   0.36763   0.01194   0.00000  Uiso   1.00
H553   H     0.83045   0.61031   0.05612   0.00000  Uiso   1.00
H554   H     0.86432   0.57503   0.06470   0.00000  Uiso   1.00
H555   H     0.79777   0.62397   0.12792   0.00000  Uiso   1.00
H556   H     0.82993   0.58810   0.13738   0.00000  Uiso   1.00
H557   H     0.89696   0.63345   0.10634   0.00000  Uiso   1.00
H558   H     0.86142   0.66238   0.14657   0.00000  Uiso   1.00
H559   H     0.87471   0.33634   0.21630   0.00000  Uiso   1.00
H560   H     0.86464   0.33590   0.09654   0.00000  Uiso   1.00
H561   H     0.80614   0.42348   0.43304   0.00000  Uiso   1.00
H562   H     0.84191   0.38954   0.44080   0.00000  Uiso   1.00
H563   H     0.84112   0.41456   0.36099   0.00000  Uiso   1.00
H564   H     0.87751   0.38190   0.36834   0.00000  Uiso   1.00
H565   H     0.81461   0.66350   0.39732   0.00000  Uiso   1.00
H566   H     0.81724   0.33845   0.34780   0.00000  Uiso   1.00
H567   H     0.77855   0.36282   0.38879   0.00000  Uiso   1.00
H568   H     0.79057   0.66539   0.28397   0.00000  Uiso   1.00
H569   H     0.80987   0.49733   0.10142   0.00000  Uiso   1.00
H570   H     0.92046   0.43900   0.09453   0.00000  Uiso   1.00
H571   H     0.91615   0.43083   0.46332   0.00000  Uiso   1.00
H572   H     0.74467   0.55818   0.40628   0.00000  Uiso   1.00
H573   H     0.85754   0.50438   0.40050   0.00000  Uiso   1.00
O574   O     0.83333   0.50000   0.25000   0.00000  Uiso   1.00
O575   O     0.82360   0.45726   0.16625   0.00000  Uiso   1.00
O576   O     0.79354   0.53979   0.33749   0.00000  Uiso   1.00
O577   O     0.87755   0.50826   0.15877   0.00000  Uiso   1.00
O578   O     0.83865   0.49468   0.33749   0.00000  Uiso   1.00
O579   O     0.68938   0.53412   0.21169   0.00000  Uiso   1.00
O580   O     0.72063   0.57519   0.48393   0.00000  Uiso   1.00
O581   O     0.79872   0.55443   0.07843   0.00000  Uiso   1.00
O582   O     0.87064   0.44758   0.42174   0.00000  Uiso   1.00
O583   O     0.84515   0.41434   0.27820   0.00000  Uiso   1.00
O584   O     0.81247   0.59469   0.26767   0.00000  Uiso   1.00
O585   O     0.74119   0.46584   0.23607   0.00000  Uiso   1.00
O586   O     0.93452   0.52512   0.21805   0.00000  Uiso   1.00
O587   O     0.73656   0.52293   0.27820   0.00000  Uiso   1.00
O588   O     0.92106   0.48610   0.26767   0.00000  Uiso   1.00
O589   O     0.80467   0.40236   0.23607   0.00000  Uiso   1.00
O590   O     0.87104   0.58860   0.21805   0.00000  Uiso   1.00
Zn591  Zn    0.85910   0.47423   0.28277   0.00000  Uiso   1.00
Zn592  Zn    0.80125   0.45711   0.22257   0.00000  Uiso   1.00
Zn593  Zn    0.87833   0.52997   0.21188   0.00000  Uiso   1.00
Zn594  Zn    0.79465   0.53868   0.28277   0.00000  Uiso   1.00
Br595  Br    0.30716   0.78755   0.30232   0.00000  Uiso   1.00
C596   C     0.05279   0.82677   0.25846   0.00000  Uiso   1.00
C597   C     0.20000   0.79849   0.46002   0.00000  Uiso   1.00
C598   C     0.22557   0.78479   0.47960   0.00000  Uiso   1.00
C599   C     0.28095   0.84040   0.24159   0.00000  Uiso   1.00
C600   C     0.21817   0.79405   0.01994   0.00000  Uiso   1.00
C601   C     0.18420   0.81775   0.04167   0.00000  Uiso   1.00
C602   C     0.24309   0.77786   0.03913   0.00000  Uiso   1.00
C603   C     0.23378   0.78394   0.07992   0.00000  Uiso   1.00
C604   C     0.17235   0.81884   0.08295   0.00000  Uiso   1.00
C605   C     0.32665   0.84412   0.23957   0.00000  Uiso   1.00
C606   C     0.00757   0.82337   0.26275   0.00000  Uiso   1.00
C607   C     0.09896   0.88170   0.42100   0.00000  Uiso   1.00
C608   C     0.18088   0.98890   0.23817   0.00000  Uiso   1.00
C609   C     0.15149   0.67872   0.26207   0.00000  Uiso   1.00
C610   C     0.15584   0.72282   0.25895   0.00000  Uiso   1.00
C611   C     0.17682   0.94433   0.24132   0.00000  Uiso   1.00
C612   C     0.18850   0.81171   0.14413   0.00000  Uiso   1.00
C613   C     0.14545   0.85447   0.35608   0.00000  Uiso   1.00
C614   C     0.13505   0.86205   0.39911   0.00000  Uiso   1.00
C615   C     0.19784   0.80367   0.10172   0.00000  Uiso   1.00
C616   C     0.08989   0.88920   0.46204   0.00000  Uiso   1.00
C617   C     0.02362   0.91031   0.22638   0.00000  Uiso   1.00
C618   C     0.16079   0.84794   0.41839   0.00000  Uiso   1.00
C619   C     0.06215   0.93488   0.19997   0.00000  Uiso   1.00
C620   C     0.06434   0.98174   0.21369   0.00000  Uiso   1.00
C621   C     0.05840   0.95095   0.47642   0.00000  Uiso   1.00
C622   C     0.08544   0.97912   0.00072   0.00000  Uiso   1.00
C623   C     0.08435   0.69208   0.49781   0.00000  Uiso   1.00
C624   C     0.16586   0.92083   0.07593   0.00000  Uiso   1.00
C625   C     0.16230   0.94390   0.11694   0.00000  Uiso   1.00
C626   C     0.19868   0.97942   0.11642   0.00000  Uiso   1.00
C627   C     0.17218   0.74627   0.42200   0.00000  Uiso   1.00
C628   C     0.17799   0.72513   0.38002   0.00000  Uiso   1.00
C629   C     0.14887   0.84892   0.45956   0.00000  Uiso   1.00
C630   C     0.14497   0.68677   0.37853   0.00000  Uiso   1.00
C631   C     0.11472   0.87249   0.48133   0.00000  Uiso   1.00
C632   C     0.17081   0.82861   0.47967   0.00000  Uiso   1.00
C633   C     0.16264   0.83813   0.02138   0.00000  Uiso   1.00
C634   C     0.13399   0.86855   0.04096   0.00000  Uiso   1.00
C635   C     0.10773   0.88165   0.02180   0.00000  Uiso   1.00
H636   H     0.08402   0.90216   0.03860   0.00000  Uiso   1.00
H637   H     0.02704   0.91536   0.25692   0.00000  Uiso   1.00
H638   H     0.32697   0.92252   0.22624   0.00000  Uiso   1.00
H639   H     0.09226   0.92315   0.20032   0.00000  Uiso   1.00
H640   H     0.05958   0.92988   0.16929   0.00000  Uiso   1.00
H641   H     0.03540   0.99452   0.21191   0.00000  Uiso   1.00
H642   H     0.09334   0.99848   0.19460   0.00000  Uiso   1.00
H643   H     0.06637   0.98744   0.24451   0.00000  Uiso   1.00
H644   H     0.02561   0.96100   0.48547   0.00000  Uiso   1.00
H645   H     0.07188   0.95560   0.44468   0.00000  Uiso   1.00
H646   H     0.07275   0.97312   0.03211   0.00000  Uiso   1.00
H647   H     0.26973   0.76054   0.02257   0.00000  Uiso   1.00
H648   H     0.11931   0.97183   0.48985   0.00000  Uiso   1.00
H649   H     0.09413   0.69838   0.46654   0.00000  Uiso   1.00
H650   H     0.10681   0.71165   0.01298   0.00000  Uiso   1.00
H651   H     0.05139   0.70096   0.01194   0.00000  Uiso   1.00
H652   H     0.16378   0.94364   0.05612   0.00000  Uiso   1.00
H653   H     0.19765   0.90836   0.06470   0.00000  Uiso   1.00
H654   H     0.13111   0.95730   0.12792   0.00000  Uiso   1.00
H655   H     0.16326   0.92143   0.13738   0.00000  Uiso   1.00
H656   H     0.23029   0.96679   0.10634   0.00000  Uiso   1.00
H657   H     0.19475   0.99571   0.14657   0.00000  Uiso   1.00
H658   H     0.20805   0.66968   0.21630   0.00000  Uiso   1.00
H659   H     0.19797   0.66924   0.09654   0.00000  Uiso   1.00
H660   H     0.13948   0.75681   0.43304   0.00000  Uiso   1.00
H661   H     0.17524   0.72287   0.44080   0.00000  Uiso   1.00
H662   H     0.17446   0.74789   0.36099   0.00000  Uiso   1.00
H663   H     0.21084   0.71523   0.36834   0.00000  Uiso   1.00
H664   H     0.14794   0.99683   0.39732   0.00000  Uiso   1.00
H665   H     0.15058   0.67178   0.34780   0.00000  Uiso   1.00
H666   H     0.11188   0.69615   0.38879   0.00000  Uiso   1.00
H667   H     0.12390   0.99873   0.28397   0.00000  Uiso   1.00
H668   H     0.14321   0.83066   0.10142   0.00000  Uiso   1.00
H669   H     0.25380   0.77234   0.09453   0.00000  Uiso   1.00
H670   H     0.24948   0.76417   0.46332   0.00000  Uiso   1.00
H671   H     0.07800   0.89151   0.40628   0.00000  Uiso   1.00
H672   H     0.19088   0.83771   0.40050   0.00000  Uiso   1.00
O673   O     0.16667   0.83333   0.25000   0.00000  Uiso   1.00
O674   O     0.15693   0.79060   0.16625   0.00000  Uiso   1.00
O675   O     0.12687   0.87313   0.33749   0.00000  Uiso   1.00
O676   O     0.21088   0.84159   0.15877   0.00000  Uiso   1.00
O677   O     0.17198   0.82802   0.33749   0.00000  Uiso   1.00
O678   O     0.02272   0.86745   0.21169   0.00000  Uiso   1.00
O679   O     0.05397   0.90852   0.48393   0.00000  Uiso   1.00
O680   O     0.13205   0.88776   0.07843   0.00000  Uiso   1.00
O681   O     0.20397   0.78092   0.42174   0.00000  Uiso   1.00
O682   O     0.17849   0.74768   0.27820   0.00000  Uiso   1.00
O683   O     0.14581   0.92803   0.26767   0.00000  Uiso   1.00
O684   O     0.07452   0.79917   0.23607   0.00000  Uiso   1.00
O685   O     0.26785   0.85845   0.21805   0.00000  Uiso   1.00
O686   O     0.06990   0.85627   0.27820   0.00000  Uiso   1.00
O687   O     0.25440   0.81944   0.26767   0.00000  Uiso   1.00
O688   O     0.13800   0.73570   0.23607   0.00000  Uiso   1.00
O689   O     0.20437   0.92193   0.21805   0.00000  Uiso   1.00
Zn690  Zn    0.19244   0.80756   0.28277   0.00000  Uiso   1.00
Zn691  Zn    0.13459   0.79044   0.22257   0.00000  Uiso   1.00
Zn692  Zn    0.21166   0.86331   0.21188   0.00000  Uiso   1.00
Zn693  Zn    0.12798   0.87202   0.28277   0.00000  Uiso   1.00
Br694  Br    0.64050   0.78755   0.30232   0.00000  Uiso   1.00
C695   C     0.38612   0.82677   0.25846   0.00000  Uiso   1.00
C696   C     0.53334   0.79849   0.46002   0.00000  Uiso   1.00
C697   C     0.55891   0.78479   0.47960   0.00000  Uiso   1.00
C698   C     0.61429   0.84040   0.24159   0.00000  Uiso   1.00
C699   C     0.55150   0.79405   0.01994   0.00000  Uiso   1.00
C700   C     0.51754   0.81775   0.04167   0.00000  Uiso   1.00
C701   C     0.57642   0.77786   0.03913   0.00000  Uiso   1.00
C702   C     0.56711   0.78394   0.07992   0.00000  Uiso   1.00
C703   C     0.50568   0.81884   0.08295   0.00000  Uiso   1.00
C704   C     0.65998   0.84412   0.23957   0.00000  Uiso   1.00
C705   C     0.34091   0.82337   0.26275   0.00000  Uiso   1.00
C706   C     0.43229   0.88170   0.42100   0.00000  Uiso   1.00
C707   C     0.51421   0.98890   0.23817   0.00000  Uiso   1.00
C708   C     0.48483   0.67872   0.26207   0.00000  Uiso   1.00
C709   C     0.48917   0.72282   0.25895   0.00000  Uiso   1.00
C710   C     0.51016   0.94433   0.24132   0.00000  Uiso   1.00
C711   C     0.52183   0.81171   0.14413   0.00000  Uiso   1.00
C712   C     0.47878   0.85447   0.35608   0.00000  Uiso   1.00
C713   C     0.46839   0.86205   0.39911   0.00000  Uiso   1.00
C714   C     0.53117   0.80367   0.10172   0.00000  Uiso   1.00
C715   C     0.42322   0.88920   0.46204   0.00000  Uiso   1.00
C716   C     0.35695   0.91031   0.22638   0.00000  Uiso   1.00
C717   C     0.49413   0.84794   0.41839   0.00000  Uiso   1.00
C718   C     0.39549   0.93488   0.19997   0.00000  Uiso   1.00
C719   C     0.39768   0.98174   0.21369   0.00000  Uiso   1.00
C720   C     0.39174   0.95095   0.47642   0.00000  Uiso   1.00
C721   C     0.41877   0.97912   0.00072   0.00000  Uiso   1.00
C722   C     0.41769   0.69208   0.49781   0.00000  Uiso   1.00
C723   C     0.49919   0.92083   0.07593   0.00000  Uiso   1.00
C724   C     0.49563   0.94390   0.11694   0.00000  Uiso   1.00
C725   C     0.53202   0.97942   0.11642   0.00000  Uiso   1.00
C726   C     0.50552   0.74627   0.42200   0.00000  Uiso   1.00
C727   C     0.51132   0.72513   0.38002   0.00000  Uiso   1.00
C728   C     0.48220   0.84892   0.45956   0.00000  Uiso   1.00
C729   C     0.47830   0.68677   0.37853   0.00000  Uiso   1.00
C730   C     0.44805   0.87249   0.48133   0.00000  Uiso   1.00
C731   C     0.50414   0.82861   0.47967   0.00000  Uiso   1.00
C732   C     0.49597   0.83813   0.02138   0.00000  Uiso   1.00
C733   C     0.46733   0.86855   0.04096   0.00000  Uiso   1.00
C734   C     0.44107   0.88165   0.02180   0.00000  Uiso   1.00
H735   H     0.41735   0.90216   0.03860   0.00000  Uiso   1.00
H736   H     0.36038   0.91536   0.25692   0.00000  Uiso   1.00
H737   H     0.66031   0.92252   0.22624   0.00000  Uiso   1.00
H738   H     0.42559   0.92315   0.20032   0.00000  Uiso   1.00
H739   H     0.39291   0.92988   0.16929   0.00000  Uiso   1.00
H740   H     0.36873   0.99452   0.21191   0.00000  Uiso   1.00
H741   H     0.42668   0.99848   0.19460   0.00000  Uiso   1.00
H742   H     0.39971   0.98744   0.24451   0.00000  Uiso   1.00
H743   H     0.35894   0.96100   0.48547   0.00000  Uiso   1.00
H744   H     0.40521   0.95560   0.44468   0.00000  Uiso   1.00
H745   H     0.40608   0.97312   0.03211   0.00000  Uiso   1.00
H746   H     0.60306   0.76054   0.02257   0.00000  Uiso   1.00
H747   H     0.45264   0.97183   0.48985   0.00000  Uiso   1.00
H748   H     0.42747   0.69838   0.46654   0.00000  Uiso   1.00
H749   H     0.44015   0.71165   0.01298   0.00000  Uiso   1.00
H750   H     0.38473   0.70096   0.01194   0.00000  Uiso   1.00
H751   H     0.49712   0.94364   0.05612   0.00000  Uiso   1.00
H752   H     0.53099   0.90836   0.06470   0.00000  Uiso   1.00
H753   H     0.46444   0.95730   0.12792   0.00000  Uiso   1.00
H754   H     0.49660   0.92143   0.13738   0.00000  Uiso   1.00
H755   H     0.56362   0.96679   0.10634   0.00000  Uiso   1.00
H756   H     0.52809   0.99571   0.14657   0.00000  Uiso   1.00
H757   H     0.54138   0.66968   0.21630   0.00000  Uiso   1.00
H758   H     0.53131   0.66924   0.09654   0.00000  Uiso   1.00
H759   H     0.47281   0.75681   0.43304   0.00000  Uiso   1.00
H760   H     0.50857   0.72287   0.44080   0.00000  Uiso   1.00
H761   H     0.50779   0.74789   0.36099   0.00000  Uiso   1.00
H762   H     0.54418   0.71523   0.36834   0.00000  Uiso   1.00
H763   H     0.48128   0.99683   0.39732   0.00000  Uiso   1.00
H764   H     0.48391   0.67178   0.34780   0.00000  Uiso   1.00
H765   H     0.44521   0.69615   0.38879   0.00000  Uiso   1.00
H766   H     0.45724   0.99873   0.28397   0.00000  Uiso   1.00
H767   H     0.47654   0.83066   0.10142   0.00000  Uiso   1.00
H768   H     0.58713   0.77234   0.09453   0.00000  Uiso   1.00
H769   H     0.58282   0.76417   0.46332   0.00000  Uiso   1.00
H770   H     0.41134   0.89151   0.40628   0.00000  Uiso   1.00
H771   H     0.52421   0.83771   0.40050   0.00000  Uiso   1.00
O772   O     0.50000   0.83333   0.25000   0.00000  Uiso   1.00
O773   O     0.49027   0.79060   0.16625   0.00000  Uiso   1.00
O774   O     0.46020   0.87313   0.33749   0.00000  Uiso   1.00
O775   O     0.54421   0.84159   0.15877   0.00000  Uiso   1.00
O776   O     0.50532   0.82802   0.33749   0.00000  Uiso   1.00
O777   O     0.35605   0.86745   0.21169   0.00000  Uiso   1.00
O778   O     0.38730   0.90852   0.48393   0.00000  Uiso   1.00
O779   O     0.46538   0.88776   0.07843   0.00000  Uiso   1.00
O780   O     0.53730   0.78092   0.42174   0.00000  Uiso   1.00
O781   O     0.51182   0.74768   0.27820   0.00000  Uiso   1.00
O782   O     0.47914   0.92803   0.26767   0.00000  Uiso   1.00
O783   O     0.40785   0.79917   0.23607   0.00000  Uiso   1.00
O784   O     0.60119   0.85845   0.21805   0.00000  Uiso   1.00
O785   O     0.40323   0.85627   0.27820   0.00000  Uiso   1.00
O786   O     0.58773   0.81944   0.26767   0.00000  Uiso   1.00
O787   O     0.47133   0.73570   0.23607   0.00000  Uiso   1.00
O788   O     0.53771   0.92193   0.21805   0.00000  Uiso   1.00
Zn789  Zn    0.52577   0.80756   0.28277   0.00000  Uiso   1.00
Zn790  Zn    0.46792   0.79044   0.22257   0.00000  Uiso   1.00
Zn791  Zn    0.54500   0.86331   0.21188   0.00000  Uiso   1.00
Zn792  Zn    0.46131   0.87202   0.28277   0.00000  Uiso   1.00
Br793  Br    0.97383   0.78755   0.30232   0.00000  Uiso   1.00
C794   C     0.71946   0.82677   0.25846   0.00000  Uiso   1.00
C795   C     0.86667   0.79849   0.46002   0.00000  Uiso   1.00
C796   C     0.89224   0.78479   0.47960   0.00000  Uiso   1.00
C797   C     0.94762   0.84040   0.24159   0.00000  Uiso   1.00
C798   C     0.88484   0.79405   0.01994   0.00000  Uiso   1.00
C799   C     0.85087   0.81775   0.04167   0.00000  Uiso   1.00
C800   C     0.90975   0.77786   0.03913   0.00000  Uiso   1.00
C801   C     0.90044   0.78394   0.07992   0.00000  Uiso   1.00
C802   C     0.83902   0.81884   0.08295   0.00000  Uiso   1.00
C803   C     0.99332   0.84412   0.23957   0.00000  Uiso   1.00
C804   C     0.67424   0.82337   0.26275   0.00000  Uiso   1.00
C805   C     0.76563   0.88170   0.42100   0.00000  Uiso   1.00
C806   C     0.84755   0.98890   0.23817   0.00000  Uiso   1.00
C807   C     0.81816   0.67872   0.26207   0.00000  Uiso   1.00
C808   C     0.82251   0.72282   0.25895   0.00000  Uiso   1.00
C809   C     0.84349   0.94433   0.24132   0.00000  Uiso   1.00
C810   C     0.85516   0.81171   0.14413   0.00000  Uiso   1.00
C811   C     0.81212   0.85447   0.35608   0.00000  Uiso   1.00
C812   C     0.80172   0.86205   0.39911   0.00000  Uiso   1.00
C813   C     0.86451   0.80367   0.10172   0.00000  Uiso   1.00
C814   C     0.75655   0.88920   0.46204   0.00000  Uiso   1.00
C815   C     0.69029   0.91031   0.22638   0.00000  Uiso   1.00
C816   C     0.82746   0.84794   0.41839   0.00000  Uiso   1.00
C817   C     0.72882   0.93488   0.19997   0.00000  Uiso   1.00
C818   C     0.73101   0.98174   0.21369   0.00000  Uiso   1.00
C819   C     0.72507   0.95095   0.47642   0.00000  Uiso   1.00
C820   C     0.75211   0.97912   0.00072   0.00000  Uiso   1.00
C821   C     0.75102   0.69208   0.49781   0.00000  Uiso   1.00
C822   C     0.83252   0.92083   0.07593   0.00000  Uiso   1.00
C823   C     0.82897   0.94390   0.11694   0.00000  Uiso   1.00
C824   C     0.86535   0.97942   0.11642   0.00000  Uiso   1.00
C825   C     0.83885   0.74627   0.42200   0.00000  Uiso   1.00
C826   C     0.84465   0.72513   0.38002   0.00000  Uiso   1.00
C827   C     0.81554   0.84892   0.45956   0.00000  Uiso   1.00
C828   C     0.81164   0.68677   0.37853   0.00000  Uiso   1.00
C829   C     0.78138   0.87249   0.48133   0.00000  Uiso   1.00
C830   C     0.83747   0.82861   0.47967   0.00000  Uiso   1.00
C831   C     0.82930   0.83813   0.02138   0.00000  Uiso   1.00
C832   C     0.80066   0.86855   0.04096   0.00000  Uiso   1.00
C833   C     0.77440   0.88165   0.02180   0.00000  Uiso   1.00
H834   H     0.75069   0.90216   0.03860   0.00000  Uiso   1.00
H835   H     0.69371   0.91536   0.25692   0.00000  Uiso   1.00
H836   H     0.99364   0.92252   0.22624   0.00000  Uiso   1.00
H837   H     0.75893   0.92315   0.20032   0.00000  Uiso   1.00
H838   H     0.72625   0.92988   0.16929   0.00000  Uiso   1.00
H839   H     0.70207   0.99452   0.21191   0.00000  Uiso   1.00
H840   H     0.76001   0.99848   0.19460   0.00000  Uiso   1.00
H841   H     0.73304   0.98744   0.24451   0.00000  Uiso   1.00
H842   H     0.69227   0.96100   0.48547   0.00000  Uiso   1.00
H843   H     0.73854   0.95560   0.44468   0.00000  Uiso   1.00
H844   H     0.73942   0.97312   0.03211   0.00000  Uiso   1.00
H845   H     0.93640   0.76054   0.02257   0.00000  Uiso   1.00
H846   H     0.78598   0.97183   0.48985   0.00000  Uiso   1.00
H847   H     0.76080   0.69838   0.46654   0.00000  Uiso   1.00
H848   H     0.77348   0.71165   0.01298   0.00000  Uiso   1.00
H849   H     0.71806   0.70096   0.01194   0.00000  Uiso   1.00
H850   H     0.83045   0.94364   0.05612   0.00000  Uiso   1.00
H851   H     0.86432   0.90836   0.06470   0.00000  Uiso   1.00
H852   H     0.79777   0.95730   0.12792   0.00000  Uiso   1.00
H853   H     0.82993   0.92143   0.13738   0.00000  Uiso   1.00
H854   H     0.89696   0.96679   0.10634   0.00000  Uiso   1.00
H855   H     0.86142   0.99571   0.14657   0.00000  Uiso   1.00
H856   H     0.87471   0.66968   0.21630   0.00000  Uiso   1.00
H857   H     0.86464   0.66924   0.09654   0.00000  Uiso   1.00
H858   H     0.80614   0.75681   0.43304   0.00000  Uiso   1.00
H859   H     0.84191   0.72287   0.44080   0.00000  Uiso   1.00
H860   H     0.84112   0.74789   0.36099   0.00000  Uiso   1.00
H861   H     0.87751   0.71523   0.36834   0.00000  Uiso   1.00
H862   H     0.81461   0.99683   0.39732   0.00000  Uiso   1.00
H863   H     0.81724   0.67178   0.34780   0.00000  Uiso   1.00
H864   H     0.77855   0.69615   0.38879   0.00000  Uiso   1.00
H865   H     0.79057   0.99873   0.28397   0.00000  Uiso   1.00
H866   H     0.80987   0.83066   0.10142   0.00000  Uiso   1.00
H867   H     0.92046   0.77234   0.09453   0.00000  Uiso   1.00
H868   H     0.91615   0.76417   0.46332   0.00000  Uiso   1.00
H869   H     0.74467   0.89151   0.40628   0.00000  Uiso   1.00
H870   H     0.85754   0.83771   0.40050   0.00000  Uiso   1.00
O871   O     0.83333   0.83333   0.25000   0.00000  Uiso   1.00
O872   O     0.82360   0.79060   0.16625   0.00000  Uiso   1.00
O873   O     0.79354   0.87313   0.33749   0.00000  Uiso   1.00
O874   O     0.87755   0.84159   0.15877   0.00000  Uiso   1.00
O875   O     0.83865   0.82802   0.33749   0.00000  Uiso   1.00
O876   O     0.68938   0.86745   0.21169   0.00000  Uiso   1.00
O877   O     0.72063   0.90852   0.48393   0.00000  Uiso   1.00
O878   O     0.79872   0.88776   0.07843   0.00000  Uiso   1.00
O879   O     0.87064   0.78092   0.42174   0.00000  Uiso   1.00
O880   O     0.84515   0.74768   0.27820   0.00000  Uiso   1.00
O881   O     0.81247   0.92803   0.26767   0.00000  Uiso   1.00
O882   O     0.74119   0.79917   0.23607   0.00000  Uiso   1.00
O883   O     0.93452   0.85845   0.21805   0.00000  Uiso   1.00
O884   O     0.73656   0.85627   0.27820   0.00000  Uiso   1.00
O885   O     0.92106   0.81944   0.26767   0.00000  Uiso   1.00
O886   O     0.80467   0.73570   0.23607   0.00000  Uiso   1.00
O887   O     0.87104   0.92193   0.21805   0.00000  Uiso   1.00
Zn888  Zn    0.85910   0.80756   0.28277   0.00000  Uiso   1.00
Zn889  Zn    0.80125   0.79044   0.22257   0.00000  Uiso   1.00
Zn890  Zn    0.87833   0.86331   0.21188   0.00000  Uiso   1.00
Zn891  Zn    0.79465   0.87202   0.28277   0.00000  Uiso   1.00
Br892  Br    0.30716   0.12088   0.80232   0.00000  Uiso   1.00
C893   C     0.05279   0.16010   0.75846   0.00000  Uiso   1.00
C894   C     0.20000   0.13182   0.96002   0.00000  Uiso   1.00
C895   C     0.22557   0.11813   0.97960   0.00000  Uiso   1.00
C896   C     0.28095   0.17374   0.74159   0.00000  Uiso   1.00
C897   C     0.21817   0.12739   0.51994   0.00000  Uiso   1.00
C898   C     0.18420   0.15109   0.54167   0.00000  Uiso   1.00
C899   C     0.24309   0.11119   0.53913   0.00000  Uiso   1.00
C900   C     0.23378   0.11727   0.57992   0.00000  Uiso   1.00
C901   C     0.17235   0.15217   0.58295   0.00000  Uiso   1.00
C902   C     0.32665   0.17745   0.73957   0.00000  Uiso   1.00
C903   C     0.00757   0.15671   0.76275   0.00000  Uiso   1.00
C904   C     0.09896   0.21503   0.92100   0.00000  Uiso   1.00
C905   C     0.18088   0.32224   0.73817   0.00000  Uiso   1.00
C906   C     0.15149   0.01206   0.76207   0.00000  Uiso   1.00
C907   C     0.15584   0.05615   0.75895   0.00000  Uiso   1.00
C908   C     0.17682   0.27766   0.74132   0.00000  Uiso   1.00
C909   C     0.18850   0.14505   0.64413   0.00000  Uiso   1.00
C910   C     0.14545   0.18780   0.85608   0.00000  Uiso   1.00
C911   C     0.13505   0.19538   0.89911   0.00000  Uiso   1.00
C912   C     0.19784   0.13700   0.60172   0.00000  Uiso   1.00
C913   C     0.08989   0.22253   0.96204   0.00000  Uiso   1.00
C914   C     0.02362   0.24364   0.72638   0.00000  Uiso   1.00
C915   C     0.16079   0.18128   0.91839   0.00000  Uiso   1.00
C916   C     0.06215   0.26822   0.69997   0.00000  Uiso   1.00
C917   C     0.06434   0.31507   0.71369   0.00000  Uiso   1.00
C918   C     0.05840   0.28428   0.97642   0.00000  Uiso   1.00
C919   C     0.08544   0.31245   0.50072   0.00000  Uiso   1.00
C920   C     0.08435   0.02541   0.99781   0.00000  Uiso   1.00
C921   C     0.16586   0.25416   0.57593   0.00000  Uiso   1.00
C922   C     0.16230   0.27724   0.61694   0.00000  Uiso   1.00
C923   C     0.19868   0.31276   0.61642   0.00000  Uiso   1.00
C924   C     0.17218   0.07960   0.92200   0.00000  Uiso   1.00
C925   C     0.17799   0.05847   0.88002   0.00000  Uiso   1.00
C926   C     0.14887   0.18226   0.95956   0.00000  Uiso   1.00
C927   C     0.14497   0.02010   0.87853   0.00000  Uiso   1.00
C928   C     0.11472   0.20583   0.98133   0.00000  Uiso   1.00
C929   C     0.17081   0.16194   0.97967   0.00000  Uiso   1.00
C930   C     0.16264   0.17147   0.52138   0.00000  Uiso   1.00
C931   C     0.13399   0.20188   0.54096   0.00000  Uiso   1.00
C932   C     0.10773   0.21498   0.52180   0.00000  Uiso   1.00
H933   H     0.08402   0.23550   0.53860   0.00000  Uiso   1.00
H934   H     0.02704   0.24869   0.75692   0.00000  Uiso   1.00
H935   H     0.32697   0.25585   0.72624   0.00000  Uiso   1.00
H936   H     0.09226   0.25648   0.70032   0.00000  Uiso   1.00
H937   H     0.05958   0.26321   0.66929   0.00000  Uiso   1.00
H938   H     0.03540   0.32785   0.71191   0.00000  Uiso   1.00
H939   H     0.09334   0.33181   0.69460   0.00000  Uiso   1.00
H940   H     0.06637   0.32077   0.74451   0.00000  Uiso   1.00
H941   H     0.02561   0.29434   0.98547   0.00000  Uiso   1.00
H942   H     0.07188   0.28893   0.94468   0.00000  Uiso   1.00
H943   H     0.07275   0.30645   0.53211   0.00000  Uiso   1.00
H944   H     0.26973   0.09387   0.52257   0.00000  Uiso   1.00
H945   H     0.11931   0.30517   0.98985   0.00000  Uiso   1.00
H946   H     0.09413   0.03172   0.96654   0.00000  Uiso   1.00
H947   H     0.10681   0.04498   0.51298   0.00000  Uiso   1.00
H948   H     0.05139   0.03430   0.51194   0.00000  Uiso   1.00
H949   H     0.16378   0.27698   0.55612   0.00000  Uiso   1.00
H950   H     0.19765   0.24170   0.56470   0.00000  Uiso   1.00
H951   H     0.13111   0.29063   0.62792   0.00000  Uiso   1.00
H952   H     0.16326   0.25476   0.63738   0.00000  Uiso   1.00
H953   H     0.23029   0.30012   0.60634   0.00000  Uiso   1.00
H954   H     0.19475   0.32904   0.64657   0.00000  Uiso   1.00
H955   H     0.20805   0.00301   0.71630   0.00000  Uiso   1.00
H956   H     0.19797   0.00257   0.59654   0.00000  Uiso   1.00
H957   H     0.13948   0.09015   0.93304   0.00000  Uiso   1.00
H958   H     0.17524   0.05620   0.94080   0.00000  Uiso   1.00
H959   H     0.17446   0.08122   0.86099   0.00000  Uiso   1.00
H960   H     0.21084   0.04856   0.86834   0.00000  Uiso   1.00
H961   H     0.14794   0.33017   0.89732   0.00000  Uiso   1.00
H962   H     0.15058   0.00512   0.84780   0.00000  Uiso   1.00
H963   H     0.11188   0.02949   0.88879   0.00000  Uiso   1.00
H964   H     0.12390   0.33206   0.78397   0.00000  Uiso   1.00
H965   H     0.14321   0.16399   0.60142   0.00000  Uiso   1.00
H966   H     0.25380   0.10567   0.59453   0.00000  Uiso   1.00
H967   H     0.24948   0.09750   0.96332   0.00000  Uiso   1.00
H968   H     0.07800   0.22485   0.90628   0.00000  Uiso   1.00
H969   H     0.19088   0.17105   0.90050   0.00000  Uiso   1.00
O970   O     0.16667   0.16667   0.75000   0.00000  Uiso   1.00
O971   O     0.15693   0.12393   0.66625   0.00000  Uiso   1.00
O972   O     0.12687   0.20646   0.83749   0.00000  Uiso   1.00
O973   O     0.21088   0.17493   0.65877   0.00000  Uiso   1.00
O974   O     0.17198   0.16135   0.83749   0.00000  Uiso   1.00
O975   O     0.02272   0.20078   0.71169   0.00000  Uiso   1.00
O976   O     0.05397   0.24185   0.98393   0.00000  Uiso   1.00
O977   O     0.13205   0.22109   0.57843   0.00000  Uiso   1.00
O978   O     0.20397   0.11425   0.92174   0.00000  Uiso   1.00
O979   O     0.17849   0.08101   0.77820   0.00000  Uiso   1.00
O980   O     0.14581   0.26136   0.76767   0.00000  Uiso   1.00
O981   O     0.07452   0.13251   0.73607   0.00000  Uiso   1.00
O982   O     0.26785   0.19179   0.71805   0.00000  Uiso   1.00
O983   O     0.06990   0.18960   0.77820   0.00000  Uiso   1.00
O984   O     0.25440   0.15277   0.76767   0.00000  Uiso   1.00
O985   O     0.13800   0.06903   0.73607   0.00000  Uiso   1.00
O986   O     0.20437   0.25527   0.71805   0.00000  Uiso   1.00
Zn987  Zn    0.19244   0.14090   0.78277   0.00000  Uiso   1.00
Zn988  Zn    0.13459   0.12378   0.72257   0.00000  Uiso   1.00
Zn989  Zn    0.21166   0.19664   0.71188   0.00000  Uiso   1.00
Zn990  Zn    0.12798   0.20535   0.78277   0.00000  Uiso   1.00
Br991  Br    0.64050   0.12088   0.80232   0.00000  Uiso   1.00
C992   C     0.38612   0.16010   0.75846   0.00000  Uiso   1.00
C993   C     0.53334   0.13182   0.96002   0.00000  Uiso   1.00
C994   C     0.55891   0.11813   0.97960   0.00000  Uiso   1.00
C995   C     0.61429   0.17374   0.74159   0.00000  Uiso   1.00
C996   C     0.55150   0.12739   0.51994   0.00000  Uiso   1.00
C997   C     0.51754   0.15109   0.54167   0.00000  Uiso   1.00
C998   C     0.57642   0.11119   0.53913   0.00000  Uiso   1.00
C999   C     0.56711   0.11727   0.57992   0.00000  Uiso   1.00
C1000  C     0.50568   0.15217   0.58295   0.00000  Uiso   1.00
C1001  C     0.65998   0.17745   0.73957   0.00000  Uiso   1.00
C1002  C     0.34091   0.15671   0.76275   0.00000  Uiso   1.00
C1003  C     0.43229   0.21503   0.92100   0.00000  Uiso   1.00
C1004  C     0.51421   0.32224   0.73817   0.00000  Uiso   1.00
C1005  C     0.48483   0.01206   0.76207   0.00000  Uiso   1.00
C1006  C     0.48917   0.05615   0.75895   0.00000  Uiso   1.00
C1007  C     0.51016   0.27766   0.74132   0.00000  Uiso   1.00
C1008  C     0.52183   0.14505   0.64413   0.00000  Uiso   1.00
C1009  C     0.47878   0.18780   0.85608   0.00000  Uiso   1.00
C1010  C     0.46839   0.19538   0.89911   0.00000  Uiso   1.00
C1011  C     0.53117   0.13700   0.60172   0.00000  Uiso   1.00
C1012  C     0.42322   0.22253   0.96204   0.00000  Uiso   1.00
C1013  C     0.35695   0.24364   0.72638   0.00000  Uiso   1.00
C1014  C     0.49413   0.18128   0.91839   0.00000  Uiso   1.00
C1015  C     0.39549   0.26822   0.69997   0.00000  Uiso   1.00
C1016  C     0.39768   0.31507   0.71369   0.00000  Uiso   1.00
C1017  C     0.39174   0.28428   0.97642   0.00000  Uiso   1.00
C1018  C     0.41877   0.31245   0.50072   0.00000  Uiso   1.00
C1019  C     0.41769   0.02541   0.99781   0.00000  Uiso   1.00
C1020  C     0.49919   0.25416   0.57593   0.00000  Uiso   1.00
C1021  C     0.49563   0.27724   0.61694   0.00000  Uiso   1.00
C1022  C     0.53202   0.31276   0.61642   0.00000  Uiso   1.00
C1023  C     0.50552   0.07960   0.92200   0.00000  Uiso   1.00
C1024  C     0.51132   0.05847   0.88002   0.00000  Uiso   1.00
C1025  C     0.48220   0.18226   0.95956   0.00000  Uiso   1.00
C1026  C     0.47830   0.02010   0.87853   0.00000  Uiso   1.00
C1027  C     0.44805   0.20583   0.98133   0.00000  Uiso   1.00
C1028  C     0.50414   0.16194   0.97967   0.00000  Uiso   1.00
C1029  C     0.49597   0.17147   0.52138   0.00000  Uiso   1.00
C1030  C     0.46733   0.20188   0.54096   0.00000  Uiso   1.00
C1031  C     0.44107   0.21498   0.52180   0.00000  Uiso   1.00
H1032  H     0.41735   0.23550   0.53860   0.00000  Uiso   1.00
H1033  H     0.36038   0.24869   0.75692   0.00000  Uiso   1.00
H1034  H     0.66031   0.25585   0.72624   0.00000  Uiso   1.00
H1035  H     0.42559   0.25648   0.70032   0.00000  Uiso   1.00
H1036  H     0.39291   0.26321   0.66929   0.00000  Uiso   1.00
H1037  H     0.36873   0.32785   0.71191   0.00000  Uiso   1.00
H1038  H     0.42668   0.33181   0.69460   0.00000  Uiso   1.00
H1039  H     0.39971   0.32077   0.74451   0.00000  Uiso   1.00
H1040  H     0.35894   0.29434   0.98547   0.00000  Uiso   1.00
H1041  H     0.40521   0.28893   0.94468   0.00000  Uiso   1.00
H1042  H     0.40608   0.30645   0.53211   0.00000  Uiso   1.00
H1043  H     0.60306   0.09387   0.52257   0.00000  Uiso   1.00
H1044  H     0.45264   0.30517   0.98985   0.00000  Uiso   1.00
H1045  H     0.42747   0.03172   0.96654   0.00000  Uiso   1.00
H1046  H     0.44015   0.04498   0.51298   0.00000  Uiso   1.00
H1047  H     0.38473   0.03430   0.51194   0.00000  Uiso   1.00
H1048  H     0.49712   0.27698   0.55612   0.00000  Uiso   1.00
H1049  H     0.53099   0.24170   0.56470   0.00000  Uiso   1.00
H1050  H     0.46444   0.29063   0.62792   0.00000  Uiso   1.00
H1051  H     0.49660   0.25476   0.63738   0.00000  Uiso   1.00
H1052  H     0.56362   0.30012   0.60634   0.00000  Uiso   1.00
H1053  H     0.52809   0.32904   0.64657   0.00000  Uiso   1.00
H1054  H     0.54138   0.00301   0.71630   0.00000  Uiso   1.00
H1055  H     0.53131   0.00257   0.59654   0.00000  Uiso   1.00
H1056  H     0.47281   0.09015   0.93304   0.00000  Uiso   1.00
H1057  H     0.50857   0.05620   0.94080   0.00000  Uiso   1.00
H1058  H     0.50779   0.08122   0.86099   0.00000  Uiso   1.00
H1059  H     0.54418   0.04856   0.86834   0.00000  Uiso   1.00
H1060  H     0.48128   0.33017   0.89732   0.00000  Uiso   1.00
H1061  H     0.48391   0.00512   0.84780   0.00000  Uiso   1.00
H1062  H     0.44521   0.02949   0.88879   0.00000  Uiso   1.00
H1063  H     0.45724   0.33206   0.78397   0.00000  Uiso   1.00
H1064  H     0.47654   0.16399   0.60142   0.00000  Uiso   1.00
H1065  H     0.58713   0.10567   0.59453   0.00000  Uiso   1.00
H1066  H     0.58282   0.09750   0.96332   0.00000  Uiso   1.00
H1067  H     0.41134   0.22485   0.90628   0.00000  Uiso   1.00
H1068  H     0.52421   0.17105   0.90050   0.00000  Uiso   1.00
O1069  O     0.50000   0.16667   0.75000   0.00000  Uiso   1.00
O1070  O     0.49027   0.12393   0.66625   0.00000  Uiso   1.00
O1071  O     0.46020   0.20646   0.83749   0.00000  Uiso   1.00
O1072  O     0.54421   0.17493   0.65877   0.00000  Uiso   1.00
O1073  O     0.50532   0.16135   0.83749   0.00000  Uiso   1.00
O1074  O     0.35605   0.20078   0.71169   0.00000  Uiso   1.00
O1075  O     0.38730   0.24185   0.98393   0.00000  Uiso   1.00
O1076  O     0.46538   0.22109   0.57843   0.00000  Uiso   1.00
O1077  O     0.53730   0.11425   0.92174   0.00000  Uiso   1.00
O1078  O     0.51182   0.08101   0.77820   0.00000  Uiso   1.00
O1079  O     0.47914   0.26136   0.76767   0.00000  Uiso   1.00
O1080  O     0.40785   0.13251   0.73607   0.00000  Uiso   1.00
O1081  O     0.60119   0.19179   0.71805   0.00000  Uiso   1.00
O1082  O     0.40323   0.18960   0.77820   0.00000  Uiso   1.00
O1083  O     0.58773   0.15277   0.76767   0.00000  Uiso   1.00
O1084  O     0.47133   0.06903   0.73607   0.00000  Uiso   1.00
O1085  O     0.53771   0.25527   0.71805   0.00000  Uiso   1.00
Zn1086 Zn    0.52577   0.14090   0.78277   0.00000  Uiso   1.00
Zn1087 Zn    0.46792   0.12378   0.72257   0.00000  Uiso   1.00
Zn1088 Zn    0.54500   0.19664   0.71188   0.00000  Uiso   1.00
Zn1089 Zn    0.46131   0.20535   0.78277   0.00000  Uiso   1.00
Br1090 Br    0.97383   0.12088   0.80232   0.00000  Uiso   1.00
C1091  C     0.71946   0.16010   0.75846   0.00000  Uiso   1.00
C1092  C     0.86667   0.13182   0.96002   0.00000  Uiso   1.00
C1093  C     0.89224   0.11813   0.97960   0.00000  Uiso   1.00
C1094  C     0.94762   0.17374   0.74159   0.00000  Uiso   1.00
C1095  C     0.88484   0.12739   0.51994   0.00000  Uiso   1.00
C1096  C     0.85087   0.15109   0.54167   0.00000  Uiso   1.00
C1097  C     0.90975   0.11119   0.53913   0.00000  Uiso   1.00
C1098  C     0.90044   0.11727   0.57992   0.00000  Uiso   1.00
C1099  C     0.83902   0.15217   0.58295   0.00000  Uiso   1.00
C1100  C     0.99332   0.17745   0.73957   0.00000  Uiso   1.00
C1101  C     0.67424   0.15671   0.76275   0.00000  Uiso   1.00
C1102  C     0.76563   0.21503   0.92100   0.00000  Uiso   1.00
C1103  C     0.84755   0.32224   0.73817   0.00000  Uiso   1.00
C1104  C     0.81816   0.01206   0.76207   0.00000  Uiso   1.00
C1105  C     0.82251   0.05615   0.75895   0.00000  Uiso   1.00
C1106  C     0.84349   0.27766   0.74132   0.00000  Uiso   1.00
C1107  C     0.85516   0.14505   0.64413   0.00000  Uiso   1.00
C1108  C     0.81212   0.18780   0.85608   0.00000  Uiso   1.00
C1109  C     0.80172   0.19538   0.89911   0.00000  Uiso   1.00
C1110  C     0.86451   0.13700   0.60172   0.00000  Uiso   1.00
C1111  C     0.75655   0.22253   0.96204   0.00000  Uiso   1.00
C1112  C     0.69029   0.24364   0.72638   0.00000  Uiso   1.00
C1113  C     0.82746   0.18128   0.91839   0.00000  Uiso   1.00
C1114  C     0.72882   0.26822   0.69997   0.00000  Uiso   1.00
C1115  C     0.73101   0.31507   0.71369   0.00000  Uiso   1.00
C1116  C     0.72507   0.28428   0.97642   0.00000  Uiso   1.00
C1117  C     0.75211   0.31245   0.50072   0.00000  Uiso   1.00
C1118  C     0.75102   0.02541   0.99781   0.00000  Uiso   1.00
C1119  C     0.83252   0.25416   0.57593   0.00000  Uiso   1.00
C1120  C     0.82897   0.27724   0.61694   0.00000  Uiso   1.00
C1121  C     0.86535   0.31276   0.61642   0.00000  Uiso   1.00
C1122  C     0.83885   0.07960   0.92200   0.00000  Uiso   1.00
C1123  C     0.84465   0.05847   0.88002   0.00000  Uiso   1.00
C1124  C     0.81554   0.18226   0.95956   0.00000  Uiso   1.00
C1125  C     0.81164   0.02010   0.87853   0.00000  Uiso   1.00
C1126  C     0.78138   0.20583   0.98133   0.00000  Uiso   1.00
C1127  C     0.83747   0.16194   0.97967   0.00000  Uiso   1.00
C1128  C     0.82930   0.17147   0.52138   0.00000  Uiso   1.00
C1129  C     0.80066   0.20188   0.54096   0.00000  Uiso   1.00
C1130  C     0.77440   0.21498   0.52180   0.00000  Uiso   1.00
H1131  H     0.75069   0.23550   0.53860   0.00000  Uiso   1.00
H1132  H     0.69371   0.24869   0.75692   0.00000  Uiso   1.00
H1133  H     0.99364   0.25585   0.72624   0.00000  Uiso   1.00
H1134  H     0.75893   0.25648   0.70032   0.00000  Uiso   1.00
H1135  H     0.72625   0.26321   0.66929   0.00000  Uiso   1.00
H1136  H     0.70207   0.32785   0.71191   0.00000  Uiso   1.00
H1137  H     0.76001   0.33181   0.69460   0.00000  Uiso   1.00
H1138  H     0.73304   0.32077   0.74451   0.00000  Uiso   1.00
H1139  H     0.69227   0.29434   0.98547   0.00000  Uiso   1.00
H1140  H     0.73854   0.28893   0.94468   0.00000  Uiso   1.00
H1141  H     0.73942   0.30645   0.53211   0.00000  Uiso   1.00
H1142  H     0.93640   0.09387   0.52257   0.00000  Uiso   1.00
H1143  H     0.78598   0.30517   0.98985   0.00000  Uiso   1.00
H1144  H     0.76080   0.03172   0.96654   0.00000  Uiso   1.00
H1145  H     0.77348   0.04498   0.51298   0.00000  Uiso   1.00
H1146  H     0.71806   0.03430   0.51194   0.00000  Uiso   1.00
H1147  H     0.83045   0.27698   0.55612   0.00000  Uiso   1.00
H1148  H     0.86432   0.24170   0.56470   0.00000  Uiso   1.00
H1149  H     0.79777   0.29063   0.62792   0.00000  Uiso   1.00
H1150  H     0.82993   0.25476   0.63738   0.00000  Uiso   1.00
H1151  H     0.89696   0.30012   0.60634   0.00000  Uiso   1.00
H1152  H     0.86142   0.32904   0.64657   0.00000  Uiso   1.00
H1153  H     0.87471   0.00301   0.71630   0.00000  Uiso   1.00
H1154  H     0.86464   0.00257   0.59654   0.00000  Uiso   1.00
H1155  H     0.80614   0.09015   0.93304   0.00000  Uiso   1.00
H1156  H     0.84191   0.05620   0.94080   0.00000  Uiso   1.00
H1157  H     0.84112   0.08122   0.86099   0.00000  Uiso   1.00
H1158  H     0.87751   0.04856   0.86834   0.00000  Uiso   1.00
H1159  H     0.81461   0.33017   0.89732   0.00000  Uiso   1.00
H1160  H     0.81724   0.00512   0.84780   0.00000  Uiso   1.00
H1161  H     0.77855   0.02949   0.88879   0.00000  Uiso   1.00
H1162  H     0.79057   0.33206   0.78397   0.00000  Uiso   1.00
H1163  H     0.80987   0.16399   0.60142   0.00000  Uiso   1.00
H1164  H     0.92046   0.10567   0.59453   0.00000  Uiso   1.00
H1165  H     0.91615   0.09750   0.96332   0.00000  Uiso   1.00
H1166  H     0.74467   0.22485   0.90628   0.00000  Uiso   1.00
H1167  H     0.85754   0.17105   0.90050   0.00000  Uiso   1.00
O1168  O     0.83333   0.16667   0.75000   0.00000  Uiso   1.00
O1169  O     0.82360   0.12393   0.66625   0.00000  Uiso   1.00
O1170  O     0.79354   0.20646   0.83749   0.00000  Uiso   1.00
O1171  O     0.87755   0.17493   0.65877   0.00000  Uiso   1.00
O1172  O     0.83865   0.16135   0.83749   0.00000  Uiso   1.00
O1173  O     0.68938   0.20078   0.71169   0.00000  Uiso   1.00
O1174  O     0.72063   0.24185   0.98393   0.00000  Uiso   1.00
O1175  O     0.79872   0.22109   0.57843   0.00000  Uiso   1.00
O1176  O     0.87064   0.11425   0.92174   0.00000  Uiso   1.00
O1177  O     0.84515   0.08101   0.77820   0.00000  Uiso   1.00
O1178  O     0.81247   0.26136   0.76767   0.00000  Uiso   1.00
O1179  O     0.74119   0.13251   0.73607   0.00000  Uiso   1.00
O1180  O     0.93452   0.19179   0.71805   0.00000  Uiso   1.00
O1181  O     0.73656   0.18960   0.77820   0.00000  Uiso   1.00
O1182  O     0.92106   0.15277   0.76767   0.00000  Uiso   1.00
O1183  O     0.80467   0.06903   0.73607   0.00000  Uiso   1.00
O1184  O     0.87104   0.25527   0.71805   0.00000  Uiso   1.00
Zn1185 Zn    0.85910   0.14090   0.78277   0.00000  Uiso   1.00
Zn1186 Zn    0.80125   0.12378   0.72257   0.00000  Uiso   1.00
Zn1187 Zn    0.87833   0.19664   0.71188   0.00000  Uiso   1.00
Zn1188 Zn    0.79465   0.20535   0.78277   0.00000  Uiso   1.00
Br1189 Br    0.30716   0.45421   0.80232   0.00000  Uiso   1.00
C1190  C     0.05279   0.49343   0.75846   0.00000  Uiso   1.00
C1191  C     0.20000   0.46516   0.96002   0.00000  Uiso   1.00
C1192  C     0.22557   0.45146   0.97960   0.00000  Uiso   1.00
C1193  C     0.28095   0.50707   0.74159   0.00000  Uiso   1.00
C1194  C     0.21817   0.46072   0.51994   0.00000  Uiso   1.00
C1195  C     0.18420   0.48442   0.54167   0.00000  Uiso   1.00
C1196  C     0.24309   0.44452   0.53913   0.00000  Uiso   1.00
C1197  C     0.23378   0.45060   0.57992   0.00000  Uiso   1.00
C1198  C     0.17235   0.48551   0.58295   0.00000  Uiso   1.00
C1199  C     0.32665   0.51079   0.73957   0.00000  Uiso   1.00
C1200  C     0.00757   0.49004   0.76275   0.00000  Uiso   1.00
C1201  C     0.09896   0.54837   0.92100   0.00000  Uiso   1.00
C1202  C     0.18088   0.65557   0.73817   0.00000  Uiso   1.00
C1203  C     0.15149   0.34539   0.76207   0.00000  Uiso   1.00
C1204  C     0.15584   0.38948   0.75895   0.00000  Uiso   1.00
C1205  C     0.17682   0.61100   0.74132   0.00000  Uiso   1.00
C1206  C     0.18850   0.47838   0.64413   0.00000  Uiso   1.00
C1207  C     0.14545   0.52114   0.85608   0.00000  Uiso   1.00
C1208  C     0.13505   0.52872   0.89911   0.00000  Uiso   1.00
C1209  C     0.19784   0.47033   0.60172   0.00000  Uiso   1.00
C1210  C     0.08989   0.55586   0.96204   0.00000  Uiso   1.00
C1211  C     0.02362   0.57697   0.72638   0.00000  Uiso   1.00
C1212  C     0.16079   0.51461   0.91839   0.00000  Uiso   1.00
C1213  C     0.06215   0.60155   0.69997   0.00000  Uiso   1.00
C1214  C     0.06434   0.64841   0.71369   0.00000  Uiso   1.00
C1215  C     0.05840   0.61761   0.97642   0.00000  Uiso   1.00
C1216  C     0.08544   0.64578   0.50072   0.00000  Uiso   1.00
C1217  C     0.08435   0.35875   0.99781   0.00000  Uiso   1.00
C1218  C     0.16586   0.58750   0.57593   0.00000  Uiso   1.00
C1219  C     0.16230   0.61057   0.61694   0.00000  Uiso   1.00
C1220  C     0.19868   0.64609   0.61642   0.00000  Uiso   1.00
C1221  C     0.17218   0.41294   0.92200   0.00000  Uiso   1.00
C1222  C     0.17799   0.39180   0.88002   0.00000  Uiso   1.00
C1223  C     0.14887   0.51559   0.95956   0.00000  Uiso   1.00
C1224  C     0.14497   0.35344   0.87853   0.00000  Uiso   1.00
C1225  C     0.11472   0.53916   0.98133   0.00000  Uiso   1.00
C1226  C     0.17081   0.49527   0.97967   0.00000  Uiso   1.00
C1227  C     0.16264   0.50480   0.52138   0.00000  Uiso   1.00
C1228  C     0.13399   0.53522   0.54096   0.00000  Uiso   1.00
C1229  C     0.10773   0.54832   0.52180   0.00000  Uiso   1.00
H1230  H     0.08402   0.56883   0.53860   0.00000  Uiso   1.00
H1231  H     0.02704   0.58202   0.75692   0.00000  Uiso   1.00
H1232  H     0.32697   0.58919   0.72624   0.00000  Uiso   1.00
H1233  H     0.09226   0.58982   0.70032   0.00000  Uiso   1.00
H1234  H     0.05958   0.59655   0.66929   0.00000  Uiso   1.00
H1235  H     0.03540   0.66119   0.71191   0.00000  Uiso   1.00
H1236  H     0.09334   0.66515   0.69460   0.00000  Uiso   1.00
H1237  H     0.06637   0.65411   0.74451   0.00000  Uiso   1.00
H1238  H     0.02561   0.62767   0.98547   0.00000  Uiso   1.00
H1239  H     0.07188   0.62227   0.94468   0.00000  Uiso   1.00
H1240  H     0.07275   0.63979   0.53211   0.00000  Uiso   1.00
H1241  H     0.26973   0.42720   0.52257   0.00000  Uiso   1.00
H1242  H     0.11931   0.63850   0.98985   0.00000  Uiso   1.00
H1243  H     0.09413   0.36505   0.96654   0.00000  Uiso   1.00
H1244  H     0.10681   0.37832   0.51298   0.00000  Uiso   1.00
H1245  H     0.05139   0.36763   0.51194   0.00000  Uiso   1.00
H1246  H     0.16378   0.61031   0.55612   0.00000  Uiso   1.00
H1247  H     0.19765   0.57503   0.56470   0.00000  Uiso   1.00
H1248  H     0.13111   0.62397   0.62792   0.00000  Uiso   1.00
H1249  H     0.16326   0.58810   0.63738   0.00000  Uiso   1.00
H1250  H     0.23029   0.63345   0.60634   0.00000  Uiso   1.00
H1251  H     0.19475   0.66238   0.64657   0.00000  Uiso   1.00
H1252  H     0.20805   0.33634   0.71630   0.00000  Uiso   1.00
H1253  H     0.19797   0.33590   0.59654   0.00000  Uiso   1.00
H1254  H     0.13948   0.42348   0.93304   0.00000  Uiso   1.00
H1255  H     0.17524   0.38954   0.94080   0.00000  Uiso   1.00
H1256  H     0.17446   0.41456   0.86099   0.00000  Uiso   1.00
H1257  H     0.21084   0.38190   0.86834   0.00000  Uiso   1.00
H1258  H     0.14794   0.66350   0.89732   0.00000  Uiso   1.00
H1259  H     0.15058   0.33845   0.84780   0.00000  Uiso   1.00
H1260  H     0.11188   0.36282   0.88879   0.00000  Uiso   1.00
H1261  H     0.12390   0.66539   0.78397   0.00000  Uiso   1.00
H1262  H     0.14321   0.49733   0.60142   0.00000  Uiso   1.00
H1263  H     0.25380   0.43900   0.59453   0.00000  Uiso   1.00
H1264  H     0.24948   0.43083   0.96332   0.00000  Uiso   1.00
H1265  H     0.07800   0.55818   0.90628   0.00000  Uiso   1.00
H1266  H     0.19088   0.50438   0.90050   0.00000  Uiso   1.00
O1267  O     0.16667   0.50000   0.75000   0.00000  Uiso   1.00
O1268  O     0.15693   0.45726   0.66625   0.00000  Uiso   1.00
O1269  O     0.12687   0.53979   0.83749   0.00000  Uiso   1.00
O1270  O     0.21088   0.50826   0.65877   0.00000  Uiso   1.00
O1271  O     0.17198   0.49468   0.83749   0.00000  Uiso   1.00
O1272  O     0.02272   0.53412   0.71169   0.00000  Uiso   1.00
O1273  O     0.05397   0.57519   0.98393   0.00000  Uiso   1.00
O1274  O     0.13205   0.55443   0.57843   0.00000  Uiso   1.00
O1275  O     0.20397   0.44758   0.92174   0.00000  Uiso   1.00
O1276  O     0.17849   0.41434   0.77820   0.00000  Uiso   1.00
O1277  O     0.14581   0.59469   0.76767   0.00000  Uiso   1.00
O1278  O     0.07452   0.46584   0.73607   0.00000  Uiso   1.00
O1279  O     0.26785   0.52512   0.71805   0.00000  Uiso   1.00
O1280  O     0.06990   0.52293   0.77820   0.00000  Uiso   1.00
O1281  O     0.25440   0.48610   0.76767   0.00000  Uiso   1.00
O1282  O     0.13800   0.40236   0.73607   0.00000  Uiso   1.00
O1283  O     0.20437   0.58860   0.71805   0.00000  Uiso   1.00
Zn1284 Zn    0.19244   0.47423   0.78277   0.00000  Uiso   1.00
Zn1285 Zn    0.13459   0.45711   0.72257   0.00000  Uiso   1.00
Zn1286 Zn    0.21166   0.52997   0.71188   0.00000  Uiso   1.00
Zn1287 Zn    0.12798   0.53868   0.78277   0.00000  Uiso   1.00
Br1288 Br    0.64050   0.45421   0.80232   0.00000  Uiso   1.00
C1289  C     0.38612   0.49343   0.75846   0.00000  Uiso   1.00
C1290  C     0.53334   0.46516   0.96002   0.00000  Uiso   1.00
C1291  C     0.55891   0.45146   0.97960   0.00000  Uiso   1.00
C1292  C     0.61429   0.50707   0.74159   0.00000  Uiso   1.00
C1293  C     0.55150   0.46072   0.51994   0.00000  Uiso   1.00
C1294  C     0.51754   0.48442   0.54167   0.00000  Uiso   1.00
C1295  C     0.57642   0.44452   0.53913   0.00000  Uiso   1.00
C1296  C     0.56711   0.45060   0.57992   0.00000  Uiso   1.00
C1297  C     0.50568   0.48551   0.58295   0.00000  Uiso   1.00
C1298  C     0.65998   0.51079   0.73957   0.00000  Uiso   1.00
C1299  C     0.34091   0.49004   0.76275   0.00000  Uiso   1.00
C1300  C     0.43229   0.54837   0.92100   0.00000  Uiso   1.00
C1301  C     0.51421   0.65557   0.73817   0.00000  Uiso   1.00
C1302  C     0.48483   0.34539   0.76207   0.00000  Uiso   1.00
C1303  C     0.48917   0.38948   0.75895   0.00000  Uiso   1.00
C1304  C     0.51016   0.61100   0.74132   0.00000  Uiso   1.00
C1305  C     0.52183   0.47838   0.64413   0.00000  Uiso   1.00
C1306  C     0.47878   0.52114   0.85608   0.00000  Uiso   1.00
C1307  C     0.46839   0.52872   0.89911   0.00000  Uiso   1.00
C1308  C     0.53117   0.47033   0.60172   0.00000  Uiso   1.00
C1309  C     0.42322   0.55586   0.96204   0.00000  Uiso   1.00
C1310  C     0.35695   0.57697   0.72638   0.00000  Uiso   1.00
C1311  C     0.49413   0.51461   0.91839   0.00000  Uiso   1.00
C1312  C     0.39549   0.60155   0.69997   0.00000  Uiso   1.00
C1313  C     0.39768   0.64841   0.71369   0.00000  Uiso   1.00
C1314  C     0.39174   0.61761   0.97642   0.00000  Uiso   1.00
C1315  C     0.41877   0.64578   0.50072   0.00000  Uiso   1.00
C1316  C     0.41769   0.35875   0.99781   0.00000  Uiso   1.00
C1317  C     0.49919   0.58750   0.57593   0.00000  Uiso   1.00
C1318  C     0.49563   0.61057   0.61694   0.00000  Uiso   1.00
C1319  C     0.53202   0.64609   0.61642   0.00000  Uiso   1.00
C1320  C     0.50552   0.41294   0.92200   0.00000  Uiso   1.00
C1321  C     0.51132   0.39180   0.88002   0.00000  Uiso   1.00
C1322  C     0.48220   0.51559   0.95956   0.00000  Uiso   1.00
C1323  C     0.47830   0.35344   0.87853   0.00000  Uiso   1.00
C1324  C     0.44805   0.53916   0.98133   0.00000  Uiso   1.00
C1325  C     0.50414   0.49527   0.97967   0.00000  Uiso   1.00
C1326  C     0.49597   0.50480   0.52138   0.00000  Uiso   1.00
C1327  C     0.46733   0.53522   0.54096   0.00000  Uiso   1.00
C1328  C     0.44107   0.54832   0.52180   0.00000  Uiso   1.00
H1329  H     0.41735   0.56883   0.53860   0.00000  Uiso   1.00
H1330  H     0.36038   0.58202   0.75692   0.00000  Uiso   1.00
H1331  H     0.66031   0.58919   0.72624   0.00000  Uiso   1.00
H1332  H     0.42559   0.58982   0.70032   0.00000  Uiso   1.00
H1333  H     0.39291   0.59655   0.66929   0.00000  Uiso   1.00
H1334  H     0.36873   0.66119   0.71191   0.00000  Uiso   1.00
H1335  H     0.42668   0.66515   0.69460   0.00000  Uiso   1.00
H1336  H     0.39971   0.65411   0.74451   0.00000  Uiso   1.00
H1337  H     0.35894   0.62767   0.98547   0.00000  Uiso   1.00
H1338  H     0.40521   0.62227   0.94468   0.00000  Uiso   1.00
H1339  H     0.40608   0.63979   0.53211   0.00000  Uiso   1.00
H1340  H     0.60306   0.42720   0.52257   0.00000  Uiso   1.00
H1341  H     0.45264   0.63850   0.98985   0.00000  Uiso   1.00
H1342  H     0.42747   0.36505   0.96654   0.00000  Uiso   1.00
H1343  H     0.44015   0.37832   0.51298   0.00000  Uiso   1.00
H1344  H     0.38473   0.36763   0.51194   0.00000  Uiso   1.00
H1345  H     0.49712   0.61031   0.55612   0.00000  Uiso   1.00
H1346  H     0.53099   0.57503   0.56470   0.00000  Uiso   1.00
H1347  H     0.46444   0.62397   0.62792   0.00000  Uiso   1.00
H1348  H     0.49660   0.58810   0.63738   0.00000  Uiso   1.00
H1349  H     0.56362   0.63345   0.60634   0.00000  Uiso   1.00
H1350  H     0.52809   0.66238   0.64657   0.00000  Uiso   1.00
H1351  H     0.54138   0.33634   0.71630   0.00000  Uiso   1.00
H1352  H     0.53131   0.33590   0.59654   0.00000  Uiso   1.00
H1353  H     0.47281   0.42348   0.93304   0.00000  Uiso   1.00
H1354  H     0.50857   0.38954   0.94080   0.00000  Uiso   1.00
H1355  H     0.50779   0.41456   0.86099   0.00000  Uiso   1.00
H1356  H     0.54418   0.38190   0.86834   0.00000  Uiso   1.00
H1357  H     0.48128   0.66350   0.89732   0.00000  Uiso   1.00
H1358  H     0.48391   0.33845   0.84780   0.00000  Uiso   1.00
H1359  H     0.44521   0.36282   0.88879   0.00000  Uiso   1.00
H1360  H     0.45724   0.66539   0.78397   0.00000  Uiso   1.00
H1361  H     0.47654   0.49733   0.60142   0.00000  Uiso   1.00
H1362  H     0.58713   0.43900   0.59453   0.00000  Uiso   1.00
H1363  H     0.58282   0.43083   0.96332   0.00000  Uiso   1.00
H1364  H     0.41134   0.55818   0.90628   0.00000  Uiso   1.00
H1365  H     0.52421   0.50438   0.90050   0.00000  Uiso   1.00
O1366  O     0.50000   0.50000   0.75000   0.00000  Uiso   1.00
O1367  O     0.49027   0.45726   0.66625   0.00000  Uiso   1.00
O1368  O     0.46020   0.53979   0.83749   0.00000  Uiso   1.00
O1369  O     0.54421   0.50826   0.65877   0.00000  Uiso   1.00
O1370  O     0.50532   0.49468   0.83749   0.00000  Uiso   1.00
O1371  O     0.35605   0.53412   0.71169   0.00000  Uiso   1.00
O1372  O     0.38730   0.57519   0.98393   0.00000  Uiso   1.00
O1373  O     0.46538   0.55443   0.57843   0.00000  Uiso   1.00
O1374  O     0.53730   0.44758   0.92174   0.00000  Uiso   1.00
O1375  O     0.51182   0.41434   0.77820   0.00000  Uiso   1.00
O1376  O     0.47914   0.59469   0.76767   0.00000  Uiso   1.00
O1377  O     0.40785   0.46584   0.73607   0.00000  Uiso   1.00
O1378  O     0.60119   0.52512   0.71805   0.00000  Uiso   1.00
O1379  O     0.40323   0.52293   0.77820   0.00000  Uiso   1.00
O1380  O     0.58773   0.48610   0.76767   0.00000  Uiso   1.00
O1381  O     0.47133   0.40236   0.73607   0.00000  Uiso   1.00
O1382  O     0.53771   0.58860   0.71805   0.00000  Uiso   1.00
Zn1383 Zn    0.52577   0.47423   0.78277   0.00000  Uiso   1.00
Zn1384 Zn    0.46792   0.45711   0.72257   0.00000  Uiso   1.00
Zn1385 Zn    0.54500   0.52997   0.71188   0.00000  Uiso   1.00
Zn1386 Zn    0.46131   0.53868   0.78277   0.00000  Uiso   1.00
Br1387 Br    0.97383   0.45421   0.80232   0.00000  Uiso   1.00
C1388  C     0.71946   0.49343   0.75846   0.00000  Uiso   1.00
C1389  C     0.86667   0.46516   0.96002   0.00000  Uiso   1.00
C1390  C     0.89224   0.45146   0.97960   0.00000  Uiso   1.00
C1391  C     0.94762   0.50707   0.74159   0.00000  Uiso   1.00
C1392  C     0.88484   0.46072   0.51994   0.00000  Uiso   1.00
C1393  C     0.85087   0.48442   0.54167   0.00000  Uiso   1.00
C1394  C     0.90975   0.44452   0.53913   0.00000  Uiso   1.00
C1395  C     0.90044   0.45060   0.57992   0.00000  Uiso   1.00
C1396  C     0.83902   0.48551   0.58295   0.00000  Uiso   1.00
C1397  C     0.99332   0.51079   0.73957   0.00000  Uiso   1.00
C1398  C     0.67424   0.49004   0.76275   0.00000  Uiso   1.00
C1399  C     0.76563   0.54837   0.92100   0.00000  Uiso   1.00
C1400  C     0.84755   0.65557   0.73817   0.00000  Uiso   1.00
C1401  C     0.81816   0.34539   0.76207   0.00000  Uiso   1.00
C1402  C     0.82251   0.38948   0.75895   0.00000  Uiso   1.00
C1403  C     0.84349   0.61100   0.74132   0.00000  Uiso   1.00
C1404  C     0.85516   0.47838   0.64413   0.00000  Uiso   1.00
C1405  C     0.81212   0.52114   0.85608   0.00000  Uiso   1.00
C1406  C     0.80172   0.52872   0.89911   0.00000  Uiso   1.00
C1407  C     0.86451   0.47033   0.60172   0.00000  Uiso   1.00
C1408  C     0.75655   0.55586   0.96204   0.00000  Uiso   1.00
C1409  C     0.69029   0.57697   0.72638   0.00000  Uiso   1.00
C1410  C     0.82746   0.51461   0.91839   0.00000  Uiso   1.00
C1411  C     0.72882   0.60155   0.69997   0.00000  Uiso   1.00
C1412  C     0.73101   0.64841   0.71369   0.00000  Uiso   1.00
C1413  C     0.72507   0.61761   0.97642   0.00000  Uiso   1.00
C1414  C     0.75211   0.64578   0.50072   0.00000  Uiso   1.00
C1415  C     0.75102   0.35875   0.99781   0.00000  Uiso   1.00
C1416  C     0.83252   0.58750   0.57593   0.00000  Uiso   1.00
C1417  C     0.82897   0.61057   0.61694   0.00000  Uiso   1.00
C1418  C     0.86535   0.64609   0.61642   0.00000  Uiso   1.00
C1419  C     0.83885   0.41294   0.92200   0.00000  Uiso   1.00
C1420  C     0.84465   0.39180   0.88002   0.00000  Uiso   1.00
C1421  C     0.81554   0.51559   0.95956   0.00000  Uiso   1.00
C1422  C     0.81164   0.35344   0.87853   0.00000  Uiso   1.00
C1423  C     0.78138   0.53916   0.98133   0.00000  Uiso   1.00
C1424  C     0.83747   0.49527   0.97967   0.00000  Uiso   1.00
C1425  C     0.82930   0.50480   0.52138   0.00000  Uiso   1.00
C1426  C     0.80066   0.53522   0.54096   0.00000  Uiso   1.00
C1427  C     0.77440   0.54832   0.52180   0.00000  Uiso   1.00
H1428  H     0.75069   0.56883   0.53860   0.00000  Uiso   1.00
H1429  H     0.69371   0.58202   0.75692   0.00000  Uiso   1.00
H1430  H     0.99364   0.58919   0.72624   0.00000  Uiso   1.00
H1431  H     0.75893   0.58982   0.70032   0.00000  Uiso   1.00
H1432  H     0.72625   0.59655   0.66929   0.00000  Uiso   1.00
H1433  H     0.70207   0.66119   0.71191   0.00000  Uiso   1.00
H1434  H     0.76001   0.66515   0.69460   0.00000  Uiso   1.00
H1435  H     0.73304   0.65411   0.74451   0.00000  Uiso   1.00
H1436  H     0.69227   0.62767   0.98547   0.00000  Uiso   1.00
H1437  H     0.73854   0.62227   0.94468   0.00000  Uiso   1.00
H1438  H     0.73942   0.63979   0.53211   0.00000  Uiso   1.00
H1439  H     0.93640   0.42720   0.52257   0.00000  Uiso   1.00
H1440  H     0.78598   0.63850   0.98985   0.00000  Uiso   1.00
H1441  H     0.76080   0.36505   0.96654   0.00000  Uiso   1.00
H1442  H     0.77348   0.37832   0.51298   0.00000  Uiso   1.00
H1443  H     0.71806   0.36763   0.51194   0.00000  Uiso   1.00
H1444  H     0.83045   0.61031   0.55612   0.00000  Uiso   1.00
H1445  H     0.86432   0.57503   0.56470   0.00000  Uiso   1.00
H1446  H     0.79777   0.62397   0.62792   0.00000  Uiso   1.00
H1447  H     0.82993   0.58810   0.63738   0.00000  Uiso   1.00
H1448  H     0.89696   0.63345   0.60634   0.00000  Uiso   1.00
H1449  H     0.86142   0.66238   0.64657   0.00000  Uiso   1.00
H1450  H     0.87471   0.33634   0.71630   0.00000  Uiso   1.00
H1451  H     0.86464   0.33590   0.59654   0.00000  Uiso   1.00
H1452  H     0.80614   0.42348   0.93304   0.00000  Uiso   1.00
H1453  H     0.84191   0.38954   0.94080   0.00000  Uiso   1.00
H1454  H     0.84112   0.41456   0.86099   0.00000  Uiso   1.00
H1455  H     0.87751   0.38190   0.86834   0.00000  Uiso   1.00
H1456  H     0.81461   0.66350   0.89732   0.00000  Uiso   1.00
H1457  H     0.81724   0.33845   0.84780   0.00000  Uiso   1.00
H1458  H     0.77855   0.36282   0.88879   0.00000  Uiso   1.00
H1459  H     0.79057   0.66539   0.78397   0.00000  Uiso   1.00
H1460  H     0.80987   0.49733   0.60142   0.00000  Uiso   1.00
H1461  H     0.92046   0.43900   0.59453   0.00000  Uiso   1.00
H1462  H     0.91615   0.43083   0.96332   0.00000  Uiso   1.00
H1463  H     0.74467   0.55818   0.90628   0.00000  Uiso   1.00
H1464  H     0.85754   0.50438   0.90050   0.00000  Uiso   1.00
O1465  O     0.83333   0.50000   0.75000   0.00000  Uiso   1.00
O1466  O     0.82360   0.45726   0.66625   0.00000  Uiso   1.00
O1467  O     0.79354   0.53979   0.83749   0.00000  Uiso   1.00
O1468  O     0.87755   0.50826   0.65877   0.00000  Uiso   1.00
O1469  O     0.83865   0.49468   0.83749   0.00000  Uiso   1.00
O1470  O     0.68938   0.53412   0.71169   0.00000  Uiso   1.00
O1471  O     0.72063   0.57519   0.98393   0.00000  Uiso   1.00
O1472  O     0.79872   0.55443   0.57843   0.00000  Uiso   1.00
O1473  O     0.87064   0.44758   0.92174   0.00000  Uiso   1.00
O1474  O     0.84515   0.41434   0.77820   0.00000  Uiso   1.00
O1475  O     0.81247   0.59469   0.76767   0.00000  Uiso   1.00
O1476  O     0.74119   0.46584   0.73607   0.00000  Uiso   1.00
O1477  O     0.93452   0.52512   0.71805   0.00000  Uiso   1.00
O1478  O     0.73656   0.52293   0.77820   0.00000  Uiso   1.00
O1479  O     0.92106   0.48610   0.76767   0.00000  Uiso   1.00
O1480  O     0.80467   0.40236   0.73607   0.00000  Uiso   1.00
O1481  O     0.87104   0.58860   0.71805   0.00000  Uiso   1.00
Zn1482 Zn    0.85910   0.47423   0.78277   0.00000  Uiso   1.00
Zn1483 Zn    0.80125   0.45711   0.72257   0.00000  Uiso   1.00
Zn1484 Zn    0.87833   0.52997   0.71188   0.00000  Uiso   1.00
Zn1485 Zn    0.79465   0.53868   0.78277   0.00000  Uiso   1.00
Br1486 Br    0.30716   0.78755   0.80232   0.00000  Uiso   1.00
C1487  C     0.05279   0.82677   0.75846   0.00000  Uiso   1.00
C1488  C     0.20000   0.79849   0.96002   0.00000  Uiso   1.00
C1489  C     0.22557   0.78479   0.97960   0.00000  Uiso   1.00
C1490  C     0.28095   0.84040   0.74159   0.00000  Uiso   1.00
C1491  C     0.21817   0.79405   0.51994   0.00000  Uiso   1.00
C1492  C     0.18420   0.81775   0.54167   0.00000  Uiso   1.00
C1493  C     0.24309   0.77786   0.53913   0.00000  Uiso   1.00
C1494  C     0.23378   0.78394   0.57992   0.00000  Uiso   1.00
C1495  C     0.17235   0.81884   0.58295   0.00000  Uiso   1.00
C1496  C     0.32665   0.84412   0.73957   0.00000  Uiso   1.00
C1497  C     0.00757   0.82337   0.76275   0.00000  Uiso   1.00
C1498  C     0.09896   0.88170   0.92100   0.00000  Uiso   1.00
C1499  C     0.18088   0.98890   0.73817   0.00000  Uiso   1.00
C1500  C     0.15149   0.67872   0.76207   0.00000  Uiso   1.00
C1501  C     0.15584   0.72282   0.75895   0.00000  Uiso   1.00
C1502  C     0.17682   0.94433   0.74132   0.00000  Uiso   1.00
C1503  C     0.18850   0.81171   0.64413   0.00000  Uiso   1.00
C1504  C     0.14545   0.85447   0.85608   0.00000  Uiso   1.00
C1505  C     0.13505   0.86205   0.89911   0.00000  Uiso   1.00
C1506  C     0.19784   0.80367   0.60172   0.00000  Uiso   1.00
C1507  C     0.08989   0.88920   0.96204   0.00000  Uiso   1.00
C1508  C     0.02362   0.91031   0.72638   0.00000  Uiso   1.00
C1509  C     0.16079   0.84794   0.91839   0.00000  Uiso   1.00
C1510  C     0.06215   0.93488   0.69997   0.00000  Uiso   1.00
C1511  C     0.06434   0.98174   0.71369   0.00000  Uiso   1.00
C1512  C     0.05840   0.95095   0.97642   0.00000  Uiso   1.00
C1513  C     0.08544   0.97912   0.50072   0.00000  Uiso   1.00
C1514  C     0.08435   0.69208   0.99781   0.00000  Uiso   1.00
C1515  C     0.16586   0.92083   0.57593   0.00000  Uiso   1.00
C1516  C     0.16230   0.94390   0.61694   0.00000  Uiso   1.00
C1517  C     0.19868   0.97942   0.61642   0.00000  Uiso   1.00
C1518  C     0.17218   0.74627   0.92200   0.00000  Uiso   1.00
C1519  C     0.17799   0.72513   0.88002   0.00000  Uiso   1.00
C1520  C     0.14887   0.84892   0.95956   0.00000  Uiso   1.00
C1521  C     0.14497   0.68677   0.87853   0.00000  Uiso   1.00
C1522  C     0.11472   0.87249   0.98133   0.00000  Uiso   1.00
C1523  C     0.17081   0.82861   0.97967   0.00000  Uiso   1.00
C1524  C     0.16264   0.83813   0.52138   0.00000  Uiso   1.00
C1525  C     0.13399   0.86855   0.54096   0.00000  Uiso   1.00
C1526  C     0.10773   0.88165   0.52180   0.00000  Uiso   1.00
H1527  H     0.08402   0.90216   0.53860   0.00000  Uiso   1.00
H1528  H     0.02704   0.91536   0.75692   0.00000  Uiso   1.00
H1529  H     0.32697   0.92252   0.72624   0.00000  Uiso   1.00
H1530  H     0.09226   0.92315   0.70032   0.00000  Uiso   1.00
H1531  H     0.05958   0.92988   0.66929   0.00000  Uiso   1.00
H1532  H     0.03540   0.99452   0.71191   0.00000  Uiso   1.00
H1533  H     0.09334   0.99848   0.69460   0.00000  Uiso   1.00
H1534  H     0.06637   0.98744   0.74451   0.00000  Uiso   1.00
H1535  H     0.02561   0.96100   0.98547   0.00000  Uiso   1.00
H1536  H     0.07188   0.95560   0.94468   0.00000  Uiso   1.00
H1537  H     0.07275   0.97312   0.53211   0.00000  Uiso   1.00
H1538  H     0.26973   0.76054   0.52257   0.00000  Uiso   1.00
H1539  H     0.11931   0.97183   0.98985   0.00000  Uiso   1.00
H1540  H     0.09413   0.69838   0.96654   0.00000  Uiso   1.00
H1541  H     0.10681   0.71165   0.51298   0.00000  Uiso   1.00
H1542  H     0.05139   0.70096   0.51194   0.00000  Uiso   1.00
H1543  H     0.16378   0.94364   0.55612   0.00000  Uiso   1.00
H1544  H     0.19765   0.90836   0.56470   0.00000  Uiso   1.00
H1545  H     0.13111   0.95730   0.62792   0.00000  Uiso   1.00
H1546  H     0.16326   0.92143   0.63738   0.00000  Uiso   1.00
H1547  H     0.23029   0.96679   0.60634   0.00000  Uiso   1.00
H1548  H     0.19475   0.99571   0.64657   0.00000  Uiso   1.00
H1549  H     0.20805   0.66968   0.71630   0.00000  Uiso   1.00
H1550  H     0.19797   0.66924   0.59654   0.00000  Uiso   1.00
H1551  H     0.13948   0.75681   0.93304   0.00000  Uiso   1.00
H1552  H     0.17524   0.72287   0.94080   0.00000  Uiso   1.00
H1553  H     0.17446   0.74789   0.86099   0.00000  Uiso   1.00
H1554  H     0.21084   0.71523   0.86834   0.00000  Uiso   1.00
H1555  H     0.14794   0.99683   0.89732   0.00000  Uiso   1.00
H1556  H     0.15058   0.67178   0.84780   0.00000  Uiso   1.00
H1557  H     0.11188   0.69615   0.88879   0.00000  Uiso   1.00
H1558  H     0.12390   0.99873   0.78397   0.00000  Uiso   1.00
H1559  H     0.14321   0.83066   0.60142   0.00000  Uiso   1.00
H1560  H     0.25380   0.77234   0.59453   0.00000  Uiso   1.00
H1561  H     0.24948   0.76417   0.96332   0.00000  Uiso   1.00
H1562  H     0.07800   0.89151   0.90628   0.00000  Uiso   1.00
H1563  H     0.19088   0.83771   0.90050   0.00000  Uiso   1.00
O1564  O     0.16667   0.83333   0.75000   0.00000  Uiso   1.00
O1565  O     0.15693   0.79060   0.66625   0.00000  Uiso   1.00
O1566  O     0.12687   0.87313   0.83749   0.00000  Uiso   1.00
O1567  O     0.21088   0.84159   0.65877   0.00000  Uiso   1.00
O1568  O     0.17198   0.82802   0.83749   0.00000  Uiso   1.00
O1569  O     0.02272   0.86745   0.71169   0.00000  Uiso   1.00
O1570  O     0.05397   0.90852   0.98393   0.00000  Uiso   1.00
O1571  O     0.13205   0.88776   0.57843   0.00000  Uiso   1.00
O1572  O     0.20397   0.78092   0.92174   0.00000  Uiso   1.00
O1573  O     0.17849   0.74768   0.77820   0.00000  Uiso   1.00
O1574  O     0.14581   0.92803   0.76767   0.00000  Uiso   1.00
O1575  O     0.07452   0.79917   0.73607   0.00000  Uiso   1.00
O1576  O     0.26785   0.85845   0.71805   0.00000  Uiso   1.00
O1577  O     0.06990   0.85627   0.77820   0.00000  Uiso   1.00
O1578  O     0.25440   0.81944   0.76767   0.00000  Uiso   1.00
O1579  O     0.13800   0.73570   0.73607   0.00000  Uiso   1.00
O1580  O     0.20437   0.92193   0.71805   0.00000  Uiso   1.00
Zn1581 Zn    0.19244   0.80756   0.78277   0.00000  Uiso   1.00
Zn1582 Zn    0.13459   0.79044   0.72257   0.00000  Uiso   1.00
Zn1583 Zn    0.21166   0.86331   0.71188   0.00000  Uiso   1.00
Zn1584 Zn    0.12798   0.87202   0.78277   0.00000  Uiso   1.00
Br1585 Br    0.64050   0.78755   0.80232   0.00000  Uiso   1.00
C1586  C     0.38612   0.82677   0.75846   0.00000  Uiso   1.00
C1587  C     0.53334   0.79849   0.96002   0.00000  Uiso   1.00
C1588  C     0.55891   0.78479   0.97960   0.00000  Uiso   1.00
C1589  C     0.61429   0.84040   0.74159   0.00000  Uiso   1.00
C1590  C     0.55150   0.79405   0.51994   0.00000  Uiso   1.00
C1591  C     0.51754   0.81775   0.54167   0.00000  Uiso   1.00
C1592  C     0.57642   0.77786   0.53913   0.00000  Uiso   1.00
C1593  C     0.56711   0.78394   0.57992   0.00000  Uiso   1.00
C1594  C     0.50568   0.81884   0.58295   0.00000  Uiso   1.00
C1595  C     0.65998   0.84412   0.73957   0.00000  Uiso   1.00
C1596  C     0.34091   0.82337   0.76275   0.00000  Uiso   1.00
C1597  C     0.43229   0.88170   0.92100   0.00000  Uiso   1.00
C1598  C     0.51421   0.98890   0.73817   0.00000  Uiso   1.00
C1599  C     0.48483   0.67872   0.76207   0.00000  Uiso   1.00
C1600  C     0.48917   0.72282   0.75895   0.00000  Uiso   1.00
C1601  C     0.51016   0.94433   0.74132   0.00000  Uiso   1.00
C1602  C     0.52183   0.81171   0.64413   0.00000  Uiso   1.00
C1603  C     0.47878   0.85447   0.85608   0.00000  Uiso   1.00
C1604  C     0.46839   0.86205   0.89911   0.00000  Uiso   1.00
C1605  C     0.53117   0.80367   0.60172   0.00000  Uiso   1.00
C1606  C     0.42322   0.88920   0.96204   0.00000  Uiso   1.00
C1607  C     0.35695   0.91031   0.72638   0.00000  Uiso   1.00
C1608  C     0.49413   0.84794   0.91839   0.00000  Uiso   1.00
C1609  C     0.39549   0.93488   0.69997   0.00000  Uiso   1.00
C1610  C     0.39768   0.98174   0.71369   0.00000  Uiso   1.00
C1611  C     0.39174   0.95095   0.97642   0.00000  Uiso   1.00
C1612  C     0.41877   0.97912   0.50072   0.00000  Uiso   1.00
C1613  C     0.41769   0.69208   0.99781   0.00000  Uiso   1.00
C1614  C     0.49919   0.92083   0.57593   0.00000  Uiso   1.00
C1615  C     0.49563   0.94390   0.61694   0.00000  Uiso   1.00
C1616  C     0.53202   0.97942   0.61642   0.00000  Uiso   1.00
C1617  C     0.50552   0.74627   0.92200   0.00000  Uiso   1.00
C1618  C     0.51132   0.72513   0.88002   0.00000  Uiso   1.00
C1619  C     0.48220   0.84892   0.95956   0.00000  Uiso   1.00
C1620  C     0.47830   0.68677   0.87853   0.00000  Uiso   1.00
C1621  C     0.44805   0.87249   0.98133   0.00000  Uiso   1.00
C1622  C     0.50414   0.82861   0.97967   0.00000  Uiso   1.00
C1623  C     0.49597   0.83813   0.52138   0.00000  Uiso   1.00
C1624  C     0.46733   0.86855   0.54096   0.00000  Uiso   1.00
C1625  C     0.44107   0.88165   0.52180   0.00000  Uiso   1.00
H1626  H     0.41735   0.90216   0.53860   0.00000  Uiso   1.00
H1627  H     0.36038   0.91536   0.75692   0.00000  Uiso   1.00
H1628  H     0.66031   0.92252   0.72624   0.00000  Uiso   1.00
H1629  H     0.42559   0.92315   0.70032   0.00000  Uiso   1.00
H1630  H     0.39291   0.92988   0.66929   0.00000  Uiso   1.00
H1631  H     0.36873   0.99452   0.71191   0.00000  Uiso   1.00
H1632  H     0.42668   0.99848   0.69460   0.00000  Uiso   1.00
H1633  H     0.39971   0.98744   0.74451   0.00000  Uiso   1.00
H1634  H     0.35894   0.96100   0.98547   0.00000  Uiso   1.00
H1635  H     0.40521   0.95560   0.94468   0.00000  Uiso   1.00
H1636  H     0.40608   0.97312   0.53211   0.00000  Uiso   1.00
H1637  H     0.60306   0.76054   0.52257   0.00000  Uiso   1.00
H1638  H     0.45264   0.97183   0.98985   0.00000  Uiso   1.00
H1639  H     0.42747   0.69838   0.96654   0.00000  Uiso   1.00
H1640  H     0.44015   0.71165   0.51298   0.00000  Uiso   1.00
H1641  H     0.38473   0.70096   0.51194   0.00000  Uiso   1.00
H1642  H     0.49712   0.94364   0.55612   0.00000  Uiso   1.00
H1643  H     0.53099   0.90836   0.56470   0.00000  Uiso   1.00
H1644  H     0.46444   0.95730   0.62792   0.00000  Uiso   1.00
H1645  H     0.49660   0.92143   0.63738   0.00000  Uiso   1.00
H1646  H     0.56362   0.96679   0.60634   0.00000  Uiso   1.00
H1647  H     0.52809   0.99571   0.64657   0.00000  Uiso   1.00
H1648  H     0.54138   0.66968   0.71630   0.00000  Uiso   1.00
H1649  H     0.53131   0.66924   0.59654   0.00000  Uiso   1.00
H1650  H     0.47281   0.75681   0.93304   0.00000  Uiso   1.00
H1651  H     0.50857   0.72287   0.94080   0.00000  Uiso   1.00
H1652  H     0.50779   0.74789   0.86099   0.00000  Uiso   1.00
H1653  H     0.54418   0.71523   0.86834   0.00000  Uiso   1.00
H1654  H     0.48128   0.99683   0.89732   0.00000  Uiso   1.00
H1655  H     0.48391   0.67178   0.84780   0.00000  Uiso   1.00
H1656  H     0.44521   0.69615   0.88879   0.00000  Uiso   1.00
H1657  H     0.45724   0.99873   0.78397   0.00000  Uiso   1.00
H1658  H     0.47654   0.83066   0.60142   0.00000  Uiso   1.00
H1659  H     0.58713   0.77234   0.59453   0.00000  Uiso   1.00
H1660  H     0.58282   0.76417   0.96332   0.00000  Uiso   1.00
H1661  H     0.41134   0.89151   0.90628   0.00000  Uiso   1.00
H1662  H     0.52421   0.83771   0.90050   0.00000  Uiso   1.00
O1663  O     0.50000   0.83333   0.75000   0.00000  Uiso   1.00
O1664  O     0.49027   0.79060   0.66625   0.00000  Uiso   1.00
O1665  O     0.46020   0.87313   0.83749   0.00000  Uiso   1.00
O1666  O     0.54421   0.84159   0.65877   0.00000  Uiso   1.00
O1667  O     0.50532   0.82802   0.83749   0.00000  Uiso   1.00
O1668  O     0.35605   0.86745   0.71169   0.00000  Uiso   1.00
O1669  O     0.38730   0.90852   0.98393   0.00000  Uiso   1.00
O1670  O     0.46538   0.88776   0.57843   0.00000  Uiso   1.00
O1671  O     0.53730   0.78092   0.92174   0.00000  Uiso   1.00
O1672  O     0.51182   0.74768   0.77820   0.00000  Uiso   1.00
O1673  O     0.47914   0.92803   0.76767   0.00000  Uiso   1.00
O1674  O     0.40785   0.79917   0.73607   0.00000  Uiso   1.00
O1675  O     0.60119   0.85845   0.71805   0.00000  Uiso   1.00
O1676  O     0.40323   0.85627   0.77820   0.00000  Uiso   1.00
O1677  O     0.58773   0.81944   0.76767   0.00000  Uiso   1.00
O1678  O     0.47133   0.73570   0.73607   0.00000  Uiso   1.00
O1679  O     0.53771   0.92193   0.71805   0.00000  Uiso   1.00
Zn1680 Zn    0.52577   0.80756   0.78277   0.00000  Uiso   1.00
Zn1681 Zn    0.46792   0.79044   0.72257   0.00000  Uiso   1.00
Zn1682 Zn    0.54500   0.86331   0.71188   0.00000  Uiso   1.00
Zn1683 Zn    0.46131   0.87202   0.78277   0.00000  Uiso   1.00
Br1684 Br    0.97383   0.78755   0.80232   0.00000  Uiso   1.00
C1685  C     0.71946   0.82677   0.75846   0.00000  Uiso   1.00
C1686  C     0.86667   0.79849   0.96002   0.00000  Uiso   1.00
C1687  C     0.89224   0.78479   0.97960   0.00000  Uiso   1.00
C1688  C     0.94762   0.84040   0.74159   0.00000  Uiso   1.00
C1689  C     0.88484   0.79405   0.51994   0.00000  Uiso   1.00
C1690  C     0.85087   0.81775   0.54167   0.00000  Uiso   1.00
C1691  C     0.90975   0.77786   0.53913   0.00000  Uiso   1.00
C1692  C     0.90044   0.78394   0.57992   0.00000  Uiso   1.00
C1693  C     0.83902   0.81884   0.58295   0.00000  Uiso   1.00
C1694  C     0.99332   0.84412   0.73957   0.00000  Uiso   1.00
C1695  C     0.67424   0.82337   0.76275   0.00000  Uiso   1.00
C1696  C     0.76563   0.88170   0.92100   0.00000  Uiso   1.00
C1697  C     0.84755   0.98890   0.73817   0.00000  Uiso   1.00
C1698  C     0.81816   0.67872   0.76207   0.00000  Uiso   1.00
C1699  C     0.82251   0.72282   0.75895   0.00000  Uiso   1.00
C1700  C     0.84349   0.94433   0.74132   0.00000  Uiso   1.00
C1701  C     0.85516   0.81171   0.64413   0.00000  Uiso   1.00
C1702  C     0.81212   0.85447   0.85608   0.00000  Uiso   1.00
C1703  C     0.80172   0.86205   0.89911   0.00000  Uiso   1.00
C1704  C     0.86451   0.80367   0.60172   0.00000  Uiso   1.00
C1705  C     0.75655   0.88920   0.96204   0.00000  Uiso   1.00
C1706  C     0.69029   0.91031   0.72638   0.00000  Uiso   1.00
C1707  C     0.82746   0.84794   0.91839   0.00000  Uiso   1.00
C1708  C     0.72882   0.93488   0.69997   0.00000  Uiso   1.00
C1709  C     0.73101   0.98174   0.71369   0.00000  Uiso   1.00
C1710  C     0.72507   0.95095   0.97642   0.00000  Uiso   1.00
C1711  C     0.75211   0.97912   0.50072   0.00000  Uiso   1.00
C1712  C     0.75102   0.69208   0.99781   0.00000  Uiso   1.00
C1713  C     0.83252   0.92083   0.57593   0.00000  Uiso   1.00
C1714  C     0.82897   0.94390   0.61694   0.00000  Uiso   1.00
C1715  C     0.86535   0.97942   0.61642   0.00000  Uiso   1.00
C1716  C     0.83885   0.74627   0.92200   0.00000  Uiso   1.00
C1717  C     0.84465   0.72513   0.88002   0.00000  Uiso   1.00
C1718  C     0.81554   0.84892   0.95956   0.00000  Uiso   1.00
C1719  C     0.81164   0.68677   0.87853   0.00000  Uiso   1.00
C1720  C     0.78138   0.87249   0.98133   0.00000  Uiso   1.00
C1721  C     0.83747   0.82861   0.97967   0.00000  Uiso   1.00
C1722  C     0.82930   0.83813   0.52138   0.00000  Uiso   1.00
C1723  C     0.80066   0.86855   0.54096   0.00000  Uiso   1.00
C1724  C     0.77440   0.88165   0.52180   0.00000  Uiso   1.00
H1725  H     0.75069   0.90216   0.53860   0.00000  Uiso   1.00
H1726  H     0.69371   0.91536   0.75692   0.00000  Uiso   1.00
H1727  H     0.99364   0.92252   0.72624   0.00000  Uiso   1.00
H1728  H     0.75893   0.92315   0.70032   0.00000  Uiso   1.00
H1729  H     0.72625   0.92988   0.66929   0.00000  Uiso   1.00
H1730  H     0.70207   0.99452   0.71191   0.00000  Uiso   1.00
H1731  H     0.76001   0.99848   0.69460   0.00000  Uiso   1.00
H1732  H     0.73304   0.98744   0.74451   0.00000  Uiso   1.00
H1733  H     0.69227   0.96100   0.98547   0.00000  Uiso   1.00
H1734  H     0.73854   0.95560   0.94468   0.00000  Uiso   1.00
H1735  H     0.73942   0.97312   0.53211   0.00000  Uiso   1.00
H1736  H     0.93640   0.76054   0.52257   0.00000  Uiso   1.00
H1737  H     0.78598   0.97183   0.98985   0.00000  Uiso   1.00
H1738  H     0.76080   0.69838   0.96654   0.00000  Uiso   1.00
H1739  H     0.77348   0.71165   0.51298   0.00000  Uiso   1.00
H1740  H     0.71806   0.70096   0.51194   0.00000  Uiso   1.00
H1741  H     0.83045   0.94364   0.55612   0.00000  Uiso   1.00
H1742  H     0.86432   0.90836   0.56470   0.00000  Uiso   1.00
H1743  H     0.79777   0.95730   0.62792   0.00000  Uiso   1.00
H1744  H     0.82993   0.92143   0.63738   0.00000  Uiso   1.00
H1745  H     0.89696   0.96679   0.60634   0.00000  Uiso   1.00
H1746  H     0.86142   0.99571   0.64657   0.00000  Uiso   1.00
H1747  H     0.87471   0.66968   0.71630   0.00000  Uiso   1.00
H1748  H     0.86464   0.66924   0.59654   0.00000  Uiso   1.00
H1749  H     0.80614   0.75681   0.93304   0.00000  Uiso   1.00
H1750  H     0.84191   0.72287   0.94080   0.00000  Uiso   1.00
H1751  H     0.84112   0.74789   0.86099   0.00000  Uiso   1.00
H1752  H     0.87751   0.71523   0.86834   0.00000  Uiso   1.00
H1753  H     0.81461   0.99683   0.89732   0.00000  Uiso   1.00
H1754  H     0.81724   0.67178   0.84780   0.00000  Uiso   1.00
H1755  H     0.77855   0.69615   0.88879   0.00000  Uiso   1.00
H1756  H     0.79057   0.99873   0.78397   0.00000  Uiso   1.00
H1757  H     0.80987   0.83066   0.60142   0.00000  Uiso   1.00
H1758  H     0.92046   0.77234   0.59453   0.00000  Uiso   1.00
H1759  H     0.91615   0.76417   0.96332   0.00000  Uiso   1.00
H1760  H     0.74467   0.89151   0.90628   0.00000  Uiso   1.00
H1761  H     0.85754   0.83771   0.90050   0.00000  Uiso   1.00
O1762  O     0.83333   0.83333   0.75000   0.00000  Uiso   1.00
O1763  O     0.82360   0.79060   0.66625   0.00000  Uiso   1.00
O1764  O     0.79354   0.87313   0.83749   0.00000  Uiso   1.00
O1765  O     0.87755   0.84159   0.65877   0.00000  Uiso   1.00
O1766  O     0.83865   0.82802   0.83749   0.00000  Uiso   1.00
O1767  O     0.68938   0.86745   0.71169   0.00000  Uiso   1.00
O1768  O     0.72063   0.90852   0.98393   0.00000  Uiso   1.00
O1769  O     0.79872   0.88776   0.57843   0.00000  Uiso   1.00
O1770  O     0.87064   0.78092   0.92174   0.00000  Uiso   1.00
O1771  O     0.84515   0.74768   0.77820   0.00000  Uiso   1.00
O1772  O     0.81247   0.92803   0.76767   0.00000  Uiso   1.00
O1773  O     0.74119   0.79917   0.73607   0.00000  Uiso   1.00
O1774  O     0.93452   0.85845   0.71805   0.00000  Uiso   1.00
O1775  O     0.73656   0.85627   0.77820   0.00000  Uiso   1.00
O1776  O     0.92106   0.81944   0.76767   0.00000  Uiso   1.00
O1777  O     0.80467   0.73570   0.73607   0.00000  Uiso   1.00
O1778  O     0.87104   0.92193   0.71805   0.00000  Uiso   1.00
Zn1779 Zn    0.85910   0.80756   0.78277   0.00000  Uiso   1.00
Zn1780 Zn    0.80125   0.79044   0.72257   0.00000  Uiso   1.00
Zn1781 Zn    0.87833   0.86331   0.71188   0.00000  Uiso   1.00
Zn1782 Zn    0.79465   0.87202   0.78277   0.00000  Uiso   1.00
loop_
_geom_bond_atom_site_label_1
_geom_bond_atom_site_label_2
_geom_bond_distance
_geom_bond_site_symmetry_2
_ccdc_geom_bond_type
Br1    C111    1.933   .     S
C2     C12     1.432   .     S
C2     O90     1.264   .     A
C2     O92     1.267   .     A
C3     C38     1.432   .     A
C3     O87     1.381   .     S
C3     C4      1.390   .     A
C4     H76     1.085   .     S
C4     C897    1.386   .     S
C5     C11     1.464   .     S
C5     O91     1.289   .     A
C5     O93     1.271   .     A
C6     C8      1.404   .     A
C6     C7      1.417   .     A
C6     C895    1.386   1_554 S
C7     C10     1.408   .     A
C7     C39     1.427   .     A
C8     C9      1.390   .     A
C8     H53     1.084   .     S
C9     C21     1.395   .     A
C9     H75     1.083   .     S
C10    C21     1.390   .     A
C10    H74     1.077   .     S
C11    C111    1.355   .     S
C11    O183    1.388   .     S
C12    Br199   1.933   1_455 S
C12    C209    1.355   1_455 S
C13    H77     1.083   .     S
C13    C20     1.398   .     A
C13    C22     1.401   .     A
C14    C17     1.449   .     S
C14    C312    1.330   .     S
C14    H361    1.088   .     S
C15    C16     1.432   .     S
C15    C608    1.330   1_545 S
C15    H667    1.086   1_545 S
C16    O94     1.279   .     A
C16    O88     1.279   .     A
C17    O95     1.271   .     A
C17    O89     1.272   .     A
C18    C21     1.449   .     S
C18    O82     1.272   .     A
C18    O80     1.275   .     A
C19    C20     1.467   .     S
C19    O83     1.286   .     A
C19    O81     1.280   .     A
C20    C24     1.393   .     A
C22    O85     1.389   .     S
C22    C37     1.413   .     A
C23    H43     1.116   .     S
C23    O84     1.413   .     S
C23    C25     1.527   .     S
C23    H242    1.113   1_455 S
C24    C35     1.404   .     A
C24    H78     1.075   .     S
C25    C26     1.526   .     S
C25    H45     1.112   .     S
C25    H46     1.112   .     S
C26    H48     1.110   .     S
C26    H49     1.110   .     S
C26    H47     1.111   .     S
C27    O85     1.417   .     S
C27    H51     1.114   .     S
C27    H50     1.111   .     S
C27    C919    1.534   .     S
C28    H52     1.111   .     S
C28    C918    1.534   1_554 S
C28    C1217   1.526   1_554 S
C28    H945    1.112   1_554 S
C29    H55     1.109   .     S
C29    C1513   1.526   1_545 S
C29    H947    1.111   .     S
C29    H948    1.111   .     S
C30    O86     1.413   .     S
C30    H59     1.115   .     S
C30    C31     1.528   .     S
C30    H58     1.116   .     S
C31    H61     1.113   .     S
C31    H60     1.111   .     S
C31    C32     1.526   .     S
C32    H63     1.111   .     S
C32    H62     1.111   .     S
C32    H362    1.111   .     S
C33    H66     1.114   .     S
C33    C34     1.528   .     S
C33    H67     1.116   .     S
C33    O87     1.411   .     S
C34    H68     1.111   .     S
C34    H69     1.112   .     S
C34    C36     1.527   .     S
C35    C37     1.419   .     A
C35    C38     1.430   .     A
C36    H71     1.110   .     S
C36    H72     1.111   .     S
C36    H664    1.111   1_545 S
C37    C932    1.392   .     S
C38    C930    1.431   .     S
C39    C40     1.427   .     A
C39    C929    1.431   1_554 S
C40    O86     1.382   .     S
C40    C41     1.388   .     A
C41    H42     1.083   .     S
C41    C928    1.392   1_554 S
H44    C122    1.113   .     S
H54    C919    1.112   .     S
H56    C920    1.111   1_554 S
H57    C920    1.111   1_554 S
H64    C608    1.088   1_545 S
H65    C626    1.111   1_545 S
H70    C333    1.111   .     S
H73    C312    1.086   .     S
O79    Zn98    1.935   .     S
O79    Zn99    1.932   .     S
O79    Zn97    1.943   .     S
O79    Zn96    1.963   .     S
O80    Zn97    1.930   .     S
O81    Zn99    1.941   .     S
O82    Zn98    1.934   .     S
O83    Zn96    1.925   .     S
O84    C209    1.388   1_455 S
O88    Zn96    1.922   .     S
O89    Zn99    1.925   .     S
O90    Zn97    1.936   .     S
O91    Zn98    1.947   .     S
O92    Zn99    1.942   .     S
O93    Zn96    1.933   .     S
O94    Zn97    1.931   .     S
O95    Zn98    1.924   .     S
Br100  C210    1.933   .     S
C101   C111    1.432   .     S
C101   O189    1.264   .     A
C101   O191    1.267   .     A
C102   C137    1.432   .     A
C102   O186    1.381   .     S
C102   C103    1.390   .     A
C103   H175    1.085   .     S
C103   C996    1.386   .     S
C104   C110    1.464   .     S
C104   O190    1.289   .     A
C104   O192    1.271   .     A
C105   C107    1.404   .     A
C105   C106    1.417   .     A
C105   C994    1.386   1_554 S
C106   C109    1.408   .     A
C106   C138    1.427   .     A
C107   C108    1.390   .     A
C107   H152    1.084   .     S
C108   C120    1.395   .     A
C108   H174    1.083   .     S
C109   C120    1.390   .     A
C109   H173    1.077   .     S
C110   C210    1.355   .     S
C110   O282    1.388   .     S
C112   H176    1.083   .     S
C112   C119    1.398   .     A
C112   C121    1.401   .     A
C113   C116    1.449   .     S
C113   C411    1.330   .     S
C113   H460    1.088   .     S
C114   C115    1.432   .     S
C114   C707    1.330   1_545 S
C114   H766    1.086   1_545 S
C115   O193    1.279   .     A
C115   O187    1.279   .     A
C116   O194    1.271   .     A
C116   O188    1.272   .     A
C117   C120    1.449   .     S
C117   O181    1.272   .     A
C117   O179    1.275   .     A
C118   C119    1.467   .     S
C118   O182    1.286   .     A
C118   O180    1.280   .     A
C119   C123    1.393   .     A
C121   O184    1.389   .     S
C121   C136    1.413   .     A
C122   H142    1.116   .     S
C122   O183    1.413   .     S
C122   C124    1.527   .     S
C123   C134    1.404   .     A
C123   H177    1.075   .     S
C124   C125    1.526   .     S
C124   H144    1.112   .     S
C124   H145    1.112   .     S
C125   H147    1.110   .     S
C125   H148    1.110   .     S
C125   H146    1.111   .     S
C126   O184    1.417   .     S
C126   H150    1.114   .     S
C126   H149    1.111   .     S
C126   C1018   1.534   .     S
C127   H151    1.111   .     S
C127   C1017   1.534   1_554 S
C127   C1316   1.526   1_554 S
C127   H1044   1.112   1_554 S
C128   H154    1.109   .     S
C128   C1612   1.526   1_545 S
C128   H1046   1.111   .     S
C128   H1047   1.111   .     S
C129   O185    1.413   .     S
C129   H158    1.115   .     S
C129   C130    1.528   .     S
C129   H157    1.116   .     S
C130   H160    1.113   .     S
C130   H159    1.111   .     S
C130   C131    1.526   .     S
C131   H162    1.111   .     S
C131   H161    1.111   .     S
C131   H461    1.111   .     S
C132   H165    1.114   .     S
C132   C133    1.528   .     S
C132   H166    1.116   .     S
C132   O186    1.411   .     S
C133   H167    1.111   .     S
C133   H168    1.112   .     S
C133   C135    1.527   .     S
C134   C136    1.419   .     A
C134   C137    1.430   .     A
C135   H170    1.110   .     S
C135   H171    1.111   .     S
C135   H763    1.111   1_545 S
C136   C1031   1.392   .     S
C137   C1029   1.431   .     S
C138   C139    1.427   .     A
C138   C1028   1.431   1_554 S
C139   O185    1.382   .     S
C139   C140    1.388   .     A
C140   H141    1.083   .     S
C140   C1027   1.392   1_554 S
H143   C221    1.113   .     S
H153   C1018   1.112   .     S
H155   C1019   1.111   1_554 S
H156   C1019   1.111   1_554 S
H163   C707    1.088   1_545 S
H164   C725    1.111   1_545 S
H169   C432    1.111   .     S
H172   C411    1.086   .     S
O178   Zn197   1.935   .     S
O178   Zn198   1.932   .     S
O178   Zn196   1.943   .     S
O178   Zn195   1.963   .     S
O179   Zn196   1.930   .     S
O180   Zn198   1.941   .     S
O181   Zn197   1.934   .     S
O182   Zn195   1.925   .     S
O187   Zn195   1.922   .     S
O188   Zn198   1.925   .     S
O189   Zn196   1.936   .     S
O190   Zn197   1.947   .     S
O191   Zn198   1.942   .     S
O192   Zn195   1.933   .     S
O193   Zn196   1.931   .     S
O194   Zn197   1.924   .     S
Br199  C12     1.933   1_655 S
C200   C210    1.432   .     S
C200   O288    1.264   .     A
C200   O290    1.267   .     A
C201   C236    1.432   .     A
C201   O285    1.381   .     S
C201   C202    1.390   .     A
C202   H274    1.085   .     S
C202   C1095   1.386   .     S
C203   C209    1.464   .     S
C203   O289    1.289   .     A
C203   O291    1.271   .     A
C204   C206    1.404   .     A
C204   C205    1.417   .     A
C204   C1093   1.386   1_554 S
C205   C208    1.408   .     A
C205   C237    1.427   .     A
C206   C207    1.390   .     A
C206   H251    1.084   .     S
C207   C219    1.395   .     A
C207   H273    1.083   .     S
C208   C219    1.390   .     A
C208   H272    1.077   .     S
C209   C12     1.355   1_655 S
C209   O84     1.388   1_655 S
C211   H275    1.083   .     S
C211   C218    1.398   .     A
C211   C220    1.401   .     A
C212   C215    1.449   .     S
C212   C510    1.330   .     S
C212   H559    1.088   .     S
C213   C214    1.432   .     S
C213   C806    1.330   1_545 S
C213   H865    1.086   1_545 S
C214   O292    1.279   .     A
C214   O286    1.279   .     A
C215   O293    1.271   .     A
C215   O287    1.272   .     A
C216   C219    1.449   .     S
C216   O280    1.272   .     A
C216   O278    1.275   .     A
C217   C218    1.467   .     S
C217   O281    1.286   .     A
C217   O279    1.280   .     A
C218   C222    1.393   .     A
C220   O283    1.389   .     S
C220   C235    1.413   .     A
C221   H241    1.116   .     S
C221   O282    1.413   .     S
C221   C223    1.527   .     S
C222   C233    1.404   .     A
C222   H276    1.075   .     S
C223   C224    1.526   .     S
C223   H243    1.112   .     S
C223   H244    1.112   .     S
C224   H246    1.110   .     S
C224   H247    1.110   .     S
C224   H245    1.111   .     S
C225   O283    1.417   .     S
C225   H249    1.114   .     S
C225   H248    1.111   .     S
C225   C1117   1.534   .     S
C226   H250    1.111   .     S
C226   C1116   1.534   1_554 S
C226   C1415   1.526   1_554 S
C226   H1143   1.112   1_554 S
C227   H253    1.109   .     S
C227   C1711   1.526   1_545 S
C227   H1145   1.111   .     S
C227   H1146   1.111   .     S
C228   O284    1.413   .     S
C228   H257    1.115   .     S
C228   C229    1.528   .     S
C228   H256    1.116   .     S
C229   H259    1.113   .     S
C229   H258    1.111   .     S
C229   C230    1.526   .     S
C230   H261    1.111   .     S
C230   H260    1.111   .     S
C230   H560    1.111   .     S
C231   H264    1.114   .     S
C231   C232    1.528   .     S
C231   H265    1.116   .     S
C231   O285    1.411   .     S
C232   H266    1.111   .     S
C232   H267    1.112   .     S
C232   C234    1.527   .     S
C233   C235    1.419   .     A
C233   C236    1.430   .     A
C234   H269    1.110   .     S
C234   H270    1.111   .     S
C234   H862    1.111   1_545 S
C235   C1130   1.392   .     S
C236   C1128   1.431   .     S
C237   C238    1.427   .     A
C237   C1127   1.431   1_554 S
C238   O284    1.382   .     S
C238   C239    1.388   .     A
C239   H240    1.083   .     S
C239   C1126   1.392   1_554 S
H242   C23     1.113   1_655 S
H252   C1117   1.112   .     S
H254   C1118   1.111   1_554 S
H255   C1118   1.111   1_554 S
H262   C806    1.088   1_545 S
H263   C824    1.111   1_545 S
H268   C531    1.111   .     S
H271   C510    1.086   .     S
O277   Zn296   1.935   .     S
O277   Zn297   1.932   .     S
O277   Zn295   1.943   .     S
O277   Zn294   1.963   .     S
O278   Zn295   1.930   .     S
O279   Zn297   1.941   .     S
O280   Zn296   1.934   .     S
O281   Zn294   1.925   .     S
O286   Zn294   1.922   .     S
O287   Zn297   1.925   .     S
O288   Zn295   1.936   .     S
O289   Zn296   1.947   .     S
O290   Zn297   1.942   .     S
O291   Zn294   1.933   .     S
O292   Zn295   1.931   .     S
O293   Zn296   1.924   .     S
Br298  C408    1.933   .     S
C299   C309    1.432   .     S
C299   O387    1.264   .     A
C299   O389    1.267   .     A
C300   C335    1.432   .     A
C300   O384    1.381   .     S
C300   C301    1.390   .     A
C301   H373    1.085   .     S
C301   C1194   1.386   .     S
C302   C308    1.464   .     S
C302   O388    1.289   .     A
C302   O390    1.271   .     A
C303   C305    1.404   .     A
C303   C304    1.417   .     A
C303   C1192   1.386   1_554 S
C304   C307    1.408   .     A
C304   C336    1.427   .     A
C305   C306    1.390   .     A
C305   H350    1.084   .     S
C306   C318    1.395   .     A
C306   H372    1.083   .     S
C307   C318    1.390   .     A
C307   H371    1.077   .     S
C308   C408    1.355   .     S
C308   O480    1.388   .     S
C309   Br496   1.933   1_455 S
C309   C506    1.355   1_455 S
C310   H374    1.083   .     S
C310   C317    1.398   .     A
C310   C319    1.401   .     A
C311   C314    1.449   .     S
C311   C609    1.330   .     S
C311   H658    1.088   .     S
C312   C313    1.432   .     S
C313   O391    1.279   .     A
C313   O385    1.279   .     A
C314   O392    1.271   .     A
C314   O386    1.272   .     A
C315   C318    1.449   .     S
C315   O379    1.272   .     A
C315   O377    1.275   .     A
C316   C317    1.467   .     S
C316   O380    1.286   .     A
C316   O378    1.280   .     A
C317   C321    1.393   .     A
C319   O382    1.389   .     S
C319   C334    1.413   .     A
C320   H340    1.116   .     S
C320   O381    1.413   .     S
C320   C322    1.527   .     S
C320   H539    1.113   1_455 S
C321   C332    1.404   .     A
C321   H375    1.075   .     S
C322   C323    1.526   .     S
C322   H342    1.112   .     S
C322   H343    1.112   .     S
C323   H345    1.110   .     S
C323   H346    1.110   .     S
C323   H344    1.111   .     S
C324   O382    1.417   .     S
C324   H348    1.114   .     S
C324   H347    1.111   .     S
C324   C1216   1.534   .     S
C325   H349    1.111   .     S
C325   C1215   1.534   1_554 S
C325   C1514   1.526   1_554 S
C325   H1242   1.112   1_554 S
C326   H352    1.109   .     S
C326   C919    1.526   .     S
C326   H1244   1.111   .     S
C326   H1245   1.111   .     S
C327   O383    1.413   .     S
C327   H356    1.115   .     S
C327   C328    1.528   .     S
C327   H355    1.116   .     S
C328   H358    1.113   .     S
C328   H357    1.111   .     S
C328   C329    1.526   .     S
C329   H360    1.111   .     S
C329   H359    1.111   .     S
C329   H659    1.111   .     S
C330   H363    1.114   .     S
C330   C331    1.528   .     S
C330   H364    1.116   .     S
C330   O384    1.411   .     S
C331   H365    1.111   .     S
C331   H366    1.112   .     S
C331   C333    1.527   .     S
C332   C334    1.419   .     A
C332   C335    1.430   .     A
C333   H368    1.110   .     S
C333   H369    1.111   .     S
C334   C1229   1.392   .     S
C335   C1227   1.431   .     S
C336   C337    1.427   .     A
C336   C1226   1.431   1_554 S
C337   O383    1.382   .     S
C337   C338    1.388   .     A
C338   H339    1.083   .     S
C338   C1225   1.392   1_554 S
H341   C419    1.113   .     S
H351   C1216   1.112   .     S
H353   C1217   1.111   1_554 S
H354   C1217   1.111   1_554 S
H367   C630    1.111   .     S
H370   C609    1.086   .     S
O376   Zn395   1.935   .     S
O376   Zn396   1.932   .     S
O376   Zn394   1.943   .     S
O376   Zn393   1.963   .     S
O377   Zn394   1.930   .     S
O378   Zn396   1.941   .     S
O379   Zn395   1.934   .     S
O380   Zn393   1.925   .     S
O381   C506    1.388   1_455 S
O385   Zn393   1.922   .     S
O386   Zn396   1.925   .     S
O387   Zn394   1.936   .     S
O388   Zn395   1.947   .     S
O389   Zn396   1.942   .     S
O390   Zn393   1.933   .     S
O391   Zn394   1.931   .     S
O392   Zn395   1.924   .     S
Br397  C507    1.933   .     S
C398   C408    1.432   .     S
C398   O486    1.264   .     A
C398   O488    1.267   .     A
C399   C434    1.432   .     A
C399   O483    1.381   .     S
C399   C400    1.390   .     A
C400   H472    1.085   .     S
C400   C1293   1.386   .     S
C401   C407    1.464   .     S
C401   O487    1.289   .     A
C401   O489    1.271   .     A
C402   C404    1.404   .     A
C402   C403    1.417   .     A
C402   C1291   1.386   1_554 S
C403   C406    1.408   .     A
C403   C435    1.427   .     A
C404   C405    1.390   .     A
C404   H449    1.084   .     S
C405   C417    1.395   .     A
C405   H471    1.083   .     S
C406   C417    1.390   .     A
C406   H470    1.077   .     S
C407   C507    1.355   .     S
C407   O579    1.388   .     S
C409   H473    1.083   .     S
C409   C416    1.398   .     A
C409   C418    1.401   .     A
C410   C413    1.449   .     S
C410   C708    1.330   .     S
C410   H757    1.088   .     S
C411   C412    1.432   .     S
C412   O490    1.279   .     A
C412   O484    1.279   .     A
C413   O491    1.271   .     A
C413   O485    1.272   .     A
C414   C417    1.449   .     S
C414   O478    1.272   .     A
C414   O476    1.275   .     A
C415   C416    1.467   .     S
C415   O479    1.286   .     A
C415   O477    1.280   .     A
C416   C420    1.393   .     A
C418   O481    1.389   .     S
C418   C433    1.413   .     A
C419   H439    1.116   .     S
C419   O480    1.413   .     S
C419   C421    1.527   .     S
C420   C431    1.404   .     A
C420   H474    1.075   .     S
C421   C422    1.526   .     S
C421   H441    1.112   .     S
C421   H442    1.112   .     S
C422   H444    1.110   .     S
C422   H445    1.110   .     S
C422   H443    1.111   .     S
C423   O481    1.417   .     S
C423   H447    1.114   .     S
C423   H446    1.111   .     S
C423   C1315   1.534   .     S
C424   H448    1.111   .     S
C424   C1314   1.534   1_554 S
C424   C1613   1.526   1_554 S
C424   H1341   1.112   1_554 S
C425   H451    1.109   .     S
C425   C1018   1.526   .     S
C425   H1343   1.111   .     S
C425   H1344   1.111   .     S
C426   O482    1.413   .     S
C426   H455    1.115   .     S
C426   C427    1.528   .     S
C426   H454    1.116   .     S
C427   H457    1.113   .     S
C427   H456    1.111   .     S
C427   C428    1.526   .     S
C428   H459    1.111   .     S
C428   H458    1.111   .     S
C428   H758    1.111   .     S
C429   H462    1.114   .     S
C429   C430    1.528   .     S
C429   H463    1.116   .     S
C429   O483    1.411   .     S
C430   H464    1.111   .     S
C430   H465    1.112   .     S
C430   C432    1.527   .     S
C431   C433    1.419   .     A
C431   C434    1.430   .     A
C432   H467    1.110   .     S
C432   H468    1.111   .     S
C433   C1328   1.392   .     S
C434   C1326   1.431   .     S
C435   C436    1.427   .     A
C435   C1325   1.431   1_554 S
C436   O482    1.382   .     S
C436   C437    1.388   .     A
C437   H438    1.083   .     S
C437   C1324   1.392   1_554 S
H440   C518    1.113   .     S
H450   C1315   1.112   .     S
H452   C1316   1.111   1_554 S
H453   C1316   1.111   1_554 S
H466   C729    1.111   .     S
H469   C708    1.086   .     S
O475   Zn494   1.935   .     S
O475   Zn495   1.932   .     S
O475   Zn493   1.943   .     S
O475   Zn492   1.963   .     S
O476   Zn493   1.930   .     S
O477   Zn495   1.941   .     S
O478   Zn494   1.934   .     S
O479   Zn492   1.925   .     S
O484   Zn492   1.922   .     S
O485   Zn495   1.925   .     S
O486   Zn493   1.936   .     S
O487   Zn494   1.947   .     S
O488   Zn495   1.942   .     S
O489   Zn492   1.933   .     S
O490   Zn493   1.931   .     S
O491   Zn494   1.924   .     S
Br496  C309    1.933   1_655 S
C497   C507    1.432   .     S
C497   O585    1.264   .     A
C497   O587    1.267   .     A
C498   C533    1.432   .     A
C498   O582    1.381   .     S
C498   C499    1.390   .     A
C499   H571    1.085   .     S
C499   C1392   1.386   .     S
C500   C506    1.464   .     S
C500   O586    1.289   .     A
C500   O588    1.271   .     A
C501   C503    1.404   .     A
C501   C502    1.417   .     A
C501   C1390   1.386   1_554 S
C502   C505    1.408   .     A
C502   C534    1.427   .     A
C503   C504    1.390   .     A
C503   H548    1.084   .     S
C504   C516    1.395   .     A
C504   H570    1.083   .     S
C505   C516    1.390   .     A
C505   H569    1.077   .     S
C506   C309    1.355   1_655 S
C506   O381    1.388   1_655 S
C508   H572    1.083   .     S
C508   C515    1.398   .     A
C508   C517    1.401   .     A
C509   C512    1.449   .     S
C509   C807    1.330   .     S
C509   H856    1.088   .     S
C510   C511    1.432   .     S
C511   O589    1.279   .     A
C511   O583    1.279   .     A
C512   O590    1.271   .     A
C512   O584    1.272   .     A
C513   C516    1.449   .     S
C513   O577    1.272   .     A
C513   O575    1.275   .     A
C514   C515    1.467   .     S
C514   O578    1.286   .     A
C514   O576    1.280   .     A
C515   C519    1.393   .     A
C517   O580    1.389   .     S
C517   C532    1.413   .     A
C518   H538    1.116   .     S
C518   O579    1.413   .     S
C518   C520    1.527   .     S
C519   C530    1.404   .     A
C519   H573    1.075   .     S
C520   C521    1.526   .     S
C520   H540    1.112   .     S
C520   H541    1.112   .     S
C521   H543    1.110   .     S
C521   H544    1.110   .     S
C521   H542    1.111   .     S
C522   O580    1.417   .     S
C522   H546    1.114   .     S
C522   H545    1.111   .     S
C522   C1414   1.534   .     S
C523   H547    1.111   .     S
C523   C1413   1.534   1_554 S
C523   C1712   1.526   1_554 S
C523   H1440   1.112   1_554 S
C524   H550    1.109   .     S
C524   C1117   1.526   .     S
C524   H1442   1.111   .     S
C524   H1443   1.111   .     S
C525   O581    1.413   .     S
C525   H554    1.115   .     S
C525   C526    1.528   .     S
C525   H553    1.116   .     S
C526   H556    1.113   .     S
C526   H555    1.111   .     S
C526   C527    1.526   .     S
C527   H558    1.111   .     S
C527   H557    1.111   .     S
C527   H857    1.111   .     S
C528   H561    1.114   .     S
C528   C529    1.528   .     S
C528   H562    1.116   .     S
C528   O582    1.411   .     S
C529   H563    1.111   .     S
C529   H564    1.112   .     S
C529   C531    1.527   .     S
C530   C532    1.419   .     A
C530   C533    1.430   .     A
C531   H566    1.110   .     S
C531   H567    1.111   .     S
C532   C1427   1.392   .     S
C533   C1425   1.431   .     S
C534   C535    1.427   .     A
C534   C1424   1.431   1_554 S
C535   O581    1.382   .     S
C535   C536    1.388   .     A
C536   H537    1.083   .     S
C536   C1423   1.392   1_554 S
H539   C320    1.113   1_655 S
H549   C1414   1.112   .     S
H551   C1415   1.111   1_554 S
H552   C1415   1.111   1_554 S
H565   C828    1.111   .     S
H568   C807    1.086   .     S
O574   Zn593   1.935   .     S
O574   Zn594   1.932   .     S
O574   Zn592   1.943   .     S
O574   Zn591   1.963   .     S
O575   Zn592   1.930   .     S
O576   Zn594   1.941   .     S
O577   Zn593   1.934   .     S
O578   Zn591   1.925   .     S
O583   Zn591   1.922   .     S
O584   Zn594   1.925   .     S
O585   Zn592   1.936   .     S
O586   Zn593   1.947   .     S
O587   Zn594   1.942   .     S
O588   Zn591   1.933   .     S
O589   Zn592   1.931   .     S
O590   Zn593   1.924   .     S
Br595  C705    1.933   .     S
C596   C606    1.432   .     S
C596   O684    1.264   .     A
C596   O686    1.267   .     A
C597   C632    1.432   .     A
C597   O681    1.381   .     S
C597   C598    1.390   .     A
C598   H670    1.085   .     S
C598   C1491   1.386   .     S
C599   C605    1.464   .     S
C599   O685    1.289   .     A
C599   O687    1.271   .     A
C600   C602    1.404   .     A
C600   C601    1.417   .     A
C600   C1489   1.386   1_554 S
C601   C604    1.408   .     A
C601   C633    1.427   .     A
C602   C603    1.390   .     A
C602   H647    1.084   .     S
C603   C615    1.395   .     A
C603   H669    1.083   .     S
C604   C615    1.390   .     A
C604   H668    1.077   .     S
C605   C705    1.355   .     S
C605   O777    1.388   .     S
C606   Br793   1.933   1_455 S
C606   C803    1.355   1_455 S
C607   H671    1.083   .     S
C607   C614    1.398   .     A
C607   C616    1.401   .     A
C608   C611    1.449   .     S
C608   C15     1.330   1_565 S
C608   H64     1.088   1_565 S
C609   C610    1.432   .     S
C610   O688    1.279   .     A
C610   O682    1.279   .     A
C611   O689    1.271   .     A
C611   O683    1.272   .     A
C612   C615    1.449   .     S
C612   O676    1.272   .     A
C612   O674    1.275   .     A
C613   C614    1.467   .     S
C613   O677    1.286   .     A
C613   O675    1.280   .     A
C614   C618    1.393   .     A
C616   O679    1.389   .     S
C616   C631    1.413   .     A
C617   H637    1.116   .     S
C617   O678    1.413   .     S
C617   C619    1.527   .     S
C617   H836    1.113   1_455 S
C618   C629    1.404   .     A
C618   H672    1.075   .     S
C619   C620    1.526   .     S
C619   H639    1.112   .     S
C619   H640    1.112   .     S
C620   H642    1.110   .     S
C620   H643    1.110   .     S
C620   H641    1.111   .     S
C621   O679    1.417   .     S
C621   H645    1.114   .     S
C621   H644    1.111   .     S
C621   C1513   1.534   .     S
C622   H646    1.111   .     S
C622   C1512   1.534   1_554 S
C622   C920    1.526   1_564 S
C622   H1539   1.112   1_554 S
C623   H649    1.109   .     S
C623   C1216   1.526   .     S
C623   H1541   1.111   .     S
C623   H1542   1.111   .     S
C624   O680    1.413   .     S
C624   H653    1.115   .     S
C624   C625    1.528   .     S
C624   H652    1.116   .     S
C625   H655    1.113   .     S
C625   H654    1.111   .     S
C625   C626    1.526   .     S
C626   H657    1.111   .     S
C626   H656    1.111   .     S
C626   H65     1.111   1_565 S
C627   H660    1.114   .     S
C627   C628    1.528   .     S
C627   H661    1.116   .     S
C627   O681    1.411   .     S
C628   H662    1.111   .     S
C628   H663    1.112   .     S
C628   C630    1.527   .     S
C629   C631    1.419   .     A
C629   C632    1.430   .     A
C630   H665    1.110   .     S
C630   H666    1.111   .     S
C631   C1526   1.392   .     S
C632   C1524   1.431   .     S
C633   C634    1.427   .     A
C633   C1523   1.431   1_554 S
C634   O680    1.382   .     S
C634   C635    1.388   .     A
C635   H636    1.083   .     S
C635   C1522   1.392   1_554 S
H638   C716    1.113   .     S
H648   C1513   1.112   .     S
H650   C1514   1.111   1_554 S
H651   C1514   1.111   1_554 S
H664   C36     1.111   1_565 S
H667   C15     1.086   1_565 S
O673   Zn692   1.935   .     S
O673   Zn693   1.932   .     S
O673   Zn691   1.943   .     S
O673   Zn690   1.963   .     S
O674   Zn691   1.930   .     S
O675   Zn693   1.941   .     S
O676   Zn692   1.934   .     S
O677   Zn690   1.925   .     S
O678   C803    1.388   1_455 S
O682   Zn690   1.922   .     S
O683   Zn693   1.925   .     S
O684   Zn691   1.936   .     S
O685   Zn692   1.947   .     S
O686   Zn693   1.942   .     S
O687   Zn690   1.933   .     S
O688   Zn691   1.931   .     S
O689   Zn692   1.924   .     S
Br694  C804    1.933   .     S
C695   C705    1.432   .     S
C695   O783    1.264   .     A
C695   O785    1.267   .     A
C696   C731    1.432   .     A
C696   O780    1.381   .     S
C696   C697    1.390   .     A
C697   H769    1.085   .     S
C697   C1590   1.386   .     S
C698   C704    1.464   .     S
C698   O784    1.289   .     A
C698   O786    1.271   .     A
C699   C701    1.404   .     A
C699   C700    1.417   .     A
C699   C1588   1.386   1_554 S
C700   C703    1.408   .     A
C700   C732    1.427   .     A
C701   C702    1.390   .     A
C701   H746    1.084   .     S
C702   C714    1.395   .     A
C702   H768    1.083   .     S
C703   C714    1.390   .     A
C703   H767    1.077   .     S
C704   C804    1.355   .     S
C704   O876    1.388   .     S
C706   H770    1.083   .     S
C706   C713    1.398   .     A
C706   C715    1.401   .     A
C707   C710    1.449   .     S
C707   C114    1.330   1_565 S
C707   H163    1.088   1_565 S
C708   C709    1.432   .     S
C709   O787    1.279   .     A
C709   O781    1.279   .     A
C710   O788    1.271   .     A
C710   O782    1.272   .     A
C711   C714    1.449   .     S
C711   O775    1.272   .     A
C711   O773    1.275   .     A
C712   C713    1.467   .     S
C712   O776    1.286   .     A
C712   O774    1.280   .     A
C713   C717    1.393   .     A
C715   O778    1.389   .     S
C715   C730    1.413   .     A
C716   H736    1.116   .     S
C716   O777    1.413   .     S
C716   C718    1.527   .     S
C717   C728    1.404   .     A
C717   H771    1.075   .     S
C718   C719    1.526   .     S
C718   H738    1.112   .     S
C718   H739    1.112   .     S
C719   H741    1.110   .     S
C719   H742    1.110   .     S
C719   H740    1.111   .     S
C720   O778    1.417   .     S
C720   H744    1.114   .     S
C720   H743    1.111   .     S
C720   C1612   1.534   .     S
C721   H745    1.111   .     S
C721   C1611   1.534   1_554 S
C721   C1019   1.526   1_564 S
C721   H1638   1.112   1_554 S
C722   H748    1.109   .     S
C722   C1315   1.526   .     S
C722   H1640   1.111   .     S
C722   H1641   1.111   .     S
C723   O779    1.413   .     S
C723   H752    1.115   .     S
C723   C724    1.528   .     S
C723   H751    1.116   .     S
C724   H754    1.113   .     S
C724   H753    1.111   .     S
C724   C725    1.526   .     S
C725   H756    1.111   .     S
C725   H755    1.111   .     S
C725   H164    1.111   1_565 S
C726   H759    1.114   .     S
C726   C727    1.528   .     S
C726   H760    1.116   .     S
C726   O780    1.411   .     S
C727   H761    1.111   .     S
C727   H762    1.112   .     S
C727   C729    1.527   .     S
C728   C730    1.419   .     A
C728   C731    1.430   .     A
C729   H764    1.110   .     S
C729   H765    1.111   .     S
C730   C1625   1.392   .     S
C731   C1623   1.431   .     S
C732   C733    1.427   .     A
C732   C1622   1.431   1_554 S
C733   O779    1.382   .     S
C733   C734    1.388   .     A
C734   H735    1.083   .     S
C734   C1621   1.392   1_554 S
H737   C815    1.113   .     S
H747   C1612   1.112   .     S
H749   C1613   1.111   1_554 S
H750   C1613   1.111   1_554 S
H763   C135    1.111   1_565 S
H766   C114    1.086   1_565 S
O772   Zn791   1.935   .     S
O772   Zn792   1.932   .     S
O772   Zn790   1.943   .     S
O772   Zn789   1.963   .     S
O773   Zn790   1.930   .     S
O774   Zn792   1.941   .     S
O775   Zn791   1.934   .     S
O776   Zn789   1.925   .     S
O781   Zn789   1.922   .     S
O782   Zn792   1.925   .     S
O783   Zn790   1.936   .     S
O784   Zn791   1.947   .     S
O785   Zn792   1.942   .     S
O786   Zn789   1.933   .     S
O787   Zn790   1.931   .     S
O788   Zn791   1.924   .     S
Br793  C606    1.933   1_655 S
C794   C804    1.432   .     S
C794   O882    1.264   .     A
C794   O884    1.267   .     A
C795   C830    1.432   .     A
C795   O879    1.381   .     S
C795   C796    1.390   .     A
C796   H868    1.085   .     S
C796   C1689   1.386   .     S
C797   C803    1.464   .     S
C797   O883    1.289   .     A
C797   O885    1.271   .     A
C798   C800    1.404   .     A
C798   C799    1.417   .     A
C798   C1687   1.386   1_554 S
C799   C802    1.408   .     A
C799   C831    1.427   .     A
C800   C801    1.390   .     A
C800   H845    1.084   .     S
C801   C813    1.395   .     A
C801   H867    1.083   .     S
C802   C813    1.390   .     A
C802   H866    1.077   .     S
C803   C606    1.355   1_655 S
C803   O678    1.388   1_655 S
C805   H869    1.083   .     S
C805   C812    1.398   .     A
C805   C814    1.401   .     A
C806   C809    1.449   .     S
C806   C213    1.330   1_565 S
C806   H262    1.088   1_565 S
C807   C808    1.432   .     S
C808   O886    1.279   .     A
C808   O880    1.279   .     A
C809   O887    1.271   .     A
C809   O881    1.272   .     A
C810   C813    1.449   .     S
C810   O874    1.272   .     A
C810   O872    1.275   .     A
C811   C812    1.467   .     S
C811   O875    1.286   .     A
C811   O873    1.280   .     A
C812   C816    1.393   .     A
C814   O877    1.389   .     S
C814   C829    1.413   .     A
C815   H835    1.116   .     S
C815   O876    1.413   .     S
C815   C817    1.527   .     S
C816   C827    1.404   .     A
C816   H870    1.075   .     S
C817   C818    1.526   .     S
C817   H837    1.112   .     S
C817   H838    1.112   .     S
C818   H840    1.110   .     S
C818   H841    1.110   .     S
C818   H839    1.111   .     S
C819   O877    1.417   .     S
C819   H843    1.114   .     S
C819   H842    1.111   .     S
C819   C1711   1.534   .     S
C820   H844    1.111   .     S
C820   C1710   1.534   1_554 S
C820   C1118   1.526   1_564 S
C820   H1737   1.112   1_554 S
C821   H847    1.109   .     S
C821   C1414   1.526   .     S
C821   H1739   1.111   .     S
C821   H1740   1.111   .     S
C822   O878    1.413   .     S
C822   H851    1.115   .     S
C822   C823    1.528   .     S
C822   H850    1.116   .     S
C823   H853    1.113   .     S
C823   H852    1.111   .     S
C823   C824    1.526   .     S
C824   H855    1.111   .     S
C824   H854    1.111   .     S
C824   H263    1.111   1_565 S
C825   H858    1.114   .     S
C825   C826    1.528   .     S
C825   H859    1.116   .     S
C825   O879    1.411   .     S
C826   H860    1.111   .     S
C826   H861    1.112   .     S
C826   C828    1.527   .     S
C827   C829    1.419   .     A
C827   C830    1.430   .     A
C828   H863    1.110   .     S
C828   H864    1.111   .     S
C829   C1724   1.392   .     S
C830   C1722   1.431   .     S
C831   C832    1.427   .     A
C831   C1721   1.431   1_554 S
C832   O878    1.382   .     S
C832   C833    1.388   .     A
C833   H834    1.083   .     S
C833   C1720   1.392   1_554 S
H836   C617    1.113   1_655 S
H846   C1711   1.112   .     S
H848   C1712   1.111   1_554 S
H849   C1712   1.111   1_554 S
H862   C234    1.111   1_565 S
H865   C213    1.086   1_565 S
O871   Zn890   1.935   .     S
O871   Zn891   1.932   .     S
O871   Zn889   1.943   .     S
O871   Zn888   1.963   .     S
O872   Zn889   1.930   .     S
O873   Zn891   1.941   .     S
O874   Zn890   1.934   .     S
O875   Zn888   1.925   .     S
O880   Zn888   1.922   .     S
O881   Zn891   1.925   .     S
O882   Zn889   1.936   .     S
O883   Zn890   1.947   .     S
O884   Zn891   1.942   .     S
O885   Zn888   1.933   .     S
O886   Zn889   1.931   .     S
O887   Zn890   1.924   .     S
Br892  C1002   1.933   .     S
C893   C903    1.432   .     S
C893   O981    1.264   .     A
C893   O983    1.267   .     A
C894   C929    1.432   .     A
C894   O978    1.381   .     S
C894   C895    1.390   .     A
C895   H967    1.085   .     S
C895   C6      1.386   1_556 S
C896   C902    1.464   .     S
C896   O982    1.289   .     A
C896   O984    1.271   .     A
C897   C899    1.404   .     A
C897   C898    1.417   .     A
C898   C901    1.408   .     A
C898   C930    1.427   .     A
C899   C900    1.390   .     A
C899   H944    1.084   .     S
C900   C912    1.395   .     A
C900   H966    1.083   .     S
C901   C912    1.390   .     A
C901   H965    1.077   .     S
C902   C1002   1.355   .     S
C902   O1074   1.388   .     S
C903   Br1090  1.933   1_455 S
C903   C1100   1.355   1_455 S
C904   H968    1.083   .     S
C904   C911    1.398   .     A
C904   C913    1.401   .     A
C905   C908    1.449   .     S
C905   C1203   1.330   .     S
C905   H1252   1.088   .     S
C906   C907    1.432   .     S
C906   C1499   1.330   1_545 S
C906   H1558   1.086   1_545 S
C907   O985    1.279   .     A
C907   O979    1.279   .     A
C908   O986    1.271   .     A
C908   O980    1.272   .     A
C909   C912    1.449   .     S
C909   O973    1.272   .     A
C909   O971    1.275   .     A
C910   C911    1.467   .     S
C910   O974    1.286   .     A
C910   O972    1.280   .     A
C911   C915    1.393   .     A
C913   O976    1.389   .     S
C913   C928    1.413   .     A
C914   H934    1.116   .     S
C914   O975    1.413   .     S
C914   C916    1.527   .     S
C914   H1133   1.113   1_455 S
C915   C926    1.404   .     A
C915   H969    1.075   .     S
C916   C917    1.526   .     S
C916   H936    1.112   .     S
C916   H937    1.112   .     S
C917   H939    1.110   .     S
C917   H940    1.110   .     S
C917   H938    1.111   .     S
C918   O976    1.417   .     S
C918   H942    1.114   .     S
C918   H941    1.111   .     S
C918   C28     1.534   1_556 S
C919   H943    1.111   .     S
C920   H946    1.109   .     S
C920   C622    1.526   1_546 S
C920   H56     1.111   1_556 S
C920   H57     1.111   1_556 S
C921   O977    1.413   .     S
C921   H950    1.115   .     S
C921   C922    1.528   .     S
C921   H949    1.116   .     S
C922   H952    1.113   .     S
C922   H951    1.111   .     S
C922   C923    1.526   .     S
C923   H954    1.111   .     S
C923   H953    1.111   .     S
C923   H1253   1.111   .     S
C924   H957    1.114   .     S
C924   C925    1.528   .     S
C924   H958    1.116   .     S
C924   O978    1.411   .     S
C925   H959    1.111   .     S
C925   H960    1.112   .     S
C925   C927    1.527   .     S
C926   C928    1.419   .     A
C926   C929    1.430   .     A
C927   H962    1.110   .     S
C927   H963    1.111   .     S
C927   H1555   1.111   1_545 S
C928   C41     1.392   1_556 S
C929   C39     1.431   1_556 S
C930   C931    1.427   .     A
C931   O977    1.382   .     S
C931   C932    1.388   .     A
C932   H933    1.083   .     S
H935   C1013   1.113   .     S
H945   C28     1.112   1_556 S
H955   C1499   1.088   1_545 S
H956   C1517   1.111   1_545 S
H961   C1224   1.111   .     S
H964   C1203   1.086   .     S
O970   Zn989   1.935   .     S
O970   Zn990   1.932   .     S
O970   Zn988   1.943   .     S
O970   Zn987   1.963   .     S
O971   Zn988   1.930   .     S
O972   Zn990   1.941   .     S
O973   Zn989   1.934   .     S
O974   Zn987   1.925   .     S
O975   C1100   1.388   1_455 S
O979   Zn987   1.922   .     S
O980   Zn990   1.925   .     S
O981   Zn988   1.936   .     S
O982   Zn989   1.947   .     S
O983   Zn990   1.942   .     S
O984   Zn987   1.933   .     S
O985   Zn988   1.931   .     S
O986   Zn989   1.924   .     S
Br991  C1101   1.933   .     S
C992   C1002   1.432   .     S
C992   O1080   1.264   .     A
C992   O1082   1.267   .     A
C993   C1028   1.432   .     A
C993   O1077   1.381   .     S
C993   C994    1.390   .     A
C994   H1066   1.085   .     S
C994   C105    1.386   1_556 S
C995   C1001   1.464   .     S
C995   O1081   1.289   .     A
C995   O1083   1.271   .     A
C996   C998    1.404   .     A
C996   C997    1.417   .     A
C997   C1000   1.408   .     A
C997   C1029   1.427   .     A
C998   C999    1.390   .     A
C998   H1043   1.084   .     S
C999   C1011   1.395   .     A
C999   H1065   1.083   .     S
C1000  C1011   1.390   .     A
C1000  H1064   1.077   .     S
C1001  C1101   1.355   .     S
C1001  O1173   1.388   .     S
C1003  H1067   1.083   .     S
C1003  C1010   1.398   .     A
C1003  C1012   1.401   .     A
C1004  C1007   1.449   .     S
C1004  C1302   1.330   .     S
C1004  H1351   1.088   .     S
C1005  C1006   1.432   .     S
C1005  C1598   1.330   1_545 S
C1005  H1657   1.086   1_545 S
C1006  O1084   1.279   .     A
C1006  O1078   1.279   .     A
C1007  O1085   1.271   .     A
C1007  O1079   1.272   .     A
C1008  C1011   1.449   .     S
C1008  O1072   1.272   .     A
C1008  O1070   1.275   .     A
C1009  C1010   1.467   .     S
C1009  O1073   1.286   .     A
C1009  O1071   1.280   .     A
C1010  C1014   1.393   .     A
C1012  O1075   1.389   .     S
C1012  C1027   1.413   .     A
C1013  H1033   1.116   .     S
C1013  O1074   1.413   .     S
C1013  C1015   1.527   .     S
C1014  C1025   1.404   .     A
C1014  H1068   1.075   .     S
C1015  C1016   1.526   .     S
C1015  H1035   1.112   .     S
C1015  H1036   1.112   .     S
C1016  H1038   1.110   .     S
C1016  H1039   1.110   .     S
C1016  H1037   1.111   .     S
C1017  O1075   1.417   .     S
C1017  H1041   1.114   .     S
C1017  H1040   1.111   .     S
C1017  C127    1.534   1_556 S
C1018  H1042   1.111   .     S
C1019  H1045   1.109   .     S
C1019  C721    1.526   1_546 S
C1019  H155    1.111   1_556 S
C1019  H156    1.111   1_556 S
C1020  O1076   1.413   .     S
C1020  H1049   1.115   .     S
C1020  C1021   1.528   .     S
C1020  H1048   1.116   .     S
C1021  H1051   1.113   .     S
C1021  H1050   1.111   .     S
C1021  C1022   1.526   .     S
C1022  H1053   1.111   .     S
C1022  H1052   1.111   .     S
C1022  H1352   1.111   .     S
C1023  H1056   1.114   .     S
C1023  C1024   1.528   .     S
C1023  H1057   1.116   .     S
C1023  O1077   1.411   .     S
C1024  H1058   1.111   .     S
C1024  H1059   1.112   .     S
C1024  C1026   1.527   .     S
C1025  C1027   1.419   .     A
C1025  C1028   1.430   .     A
C1026  H1061   1.110   .     S
C1026  H1062   1.111   .     S
C1026  H1654   1.111   1_545 S
C1027  C140    1.392   1_556 S
C1028  C138    1.431   1_556 S
C1029  C1030   1.427   .     A
C1030  O1076   1.382   .     S
C1030  C1031   1.388   .     A
C1031  H1032   1.083   .     S
H1034  C1112   1.113   .     S
H1044  C127    1.112   1_556 S
H1054  C1598   1.088   1_545 S
H1055  C1616   1.111   1_545 S
H1060  C1323   1.111   .     S
H1063  C1302   1.086   .     S
O1069  Zn1088  1.935   .     S
O1069  Zn1089  1.932   .     S
O1069  Zn1087  1.943   .     S
O1069  Zn1086  1.963   .     S
O1070  Zn1087  1.930   .     S
O1071  Zn1089  1.941   .     S
O1072  Zn1088  1.934   .     S
O1073  Zn1086  1.925   .     S
O1078  Zn1086  1.922   .     S
O1079  Zn1089  1.925   .     S
O1080  Zn1087  1.936   .     S
O1081  Zn1088  1.947   .     S
O1082  Zn1089  1.942   .     S
O1083  Zn1086  1.933   .     S
O1084  Zn1087  1.931   .     S
O1085  Zn1088  1.924   .     S
Br1090 C903    1.933   1_655 S
C1091  C1101   1.432   .     S
C1091  O1179   1.264   .     A
C1091  O1181   1.267   .     A
C1092  C1127   1.432   .     A
C1092  O1176   1.381   .     S
C1092  C1093   1.390   .     A
C1093  H1165   1.085   .     S
C1093  C204    1.386   1_556 S
C1094  C1100   1.464   .     S
C1094  O1180   1.289   .     A
C1094  O1182   1.271   .     A
C1095  C1097   1.404   .     A
C1095  C1096   1.417   .     A
C1096  C1099   1.408   .     A
C1096  C1128   1.427   .     A
C1097  C1098   1.390   .     A
C1097  H1142   1.084   .     S
C1098  C1110   1.395   .     A
C1098  H1164   1.083   .     S
C1099  C1110   1.390   .     A
C1099  H1163   1.077   .     S
C1100  C903    1.355   1_655 S
C1100  O975    1.388   1_655 S
C1102  H1166   1.083   .     S
C1102  C1109   1.398   .     A
C1102  C1111   1.401   .     A
C1103  C1106   1.449   .     S
C1103  C1401   1.330   .     S
C1103  H1450   1.088   .     S
C1104  C1105   1.432   .     S
C1104  C1697   1.330   1_545 S
C1104  H1756   1.086   1_545 S
C1105  O1183   1.279   .     A
C1105  O1177   1.279   .     A
C1106  O1184   1.271   .     A
C1106  O1178   1.272   .     A
C1107  C1110   1.449   .     S
C1107  O1171   1.272   .     A
C1107  O1169   1.275   .     A
C1108  C1109   1.467   .     S
C1108  O1172   1.286   .     A
C1108  O1170   1.280   .     A
C1109  C1113   1.393   .     A
C1111  O1174   1.389   .     S
C1111  C1126   1.413   .     A
C1112  H1132   1.116   .     S
C1112  O1173   1.413   .     S
C1112  C1114   1.527   .     S
C1113  C1124   1.404   .     A
C1113  H1167   1.075   .     S
C1114  C1115   1.526   .     S
C1114  H1134   1.112   .     S
C1114  H1135   1.112   .     S
C1115  H1137   1.110   .     S
C1115  H1138   1.110   .     S
C1115  H1136   1.111   .     S
C1116  O1174   1.417   .     S
C1116  H1140   1.114   .     S
C1116  H1139   1.111   .     S
C1116  C226    1.534   1_556 S
C1117  H1141   1.111   .     S
C1118  H1144   1.109   .     S
C1118  C820    1.526   1_546 S
C1118  H254    1.111   1_556 S
C1118  H255    1.111   1_556 S
C1119  O1175   1.413   .     S
C1119  H1148   1.115   .     S
C1119  C1120   1.528   .     S
C1119  H1147   1.116   .     S
C1120  H1150   1.113   .     S
C1120  H1149   1.111   .     S
C1120  C1121   1.526   .     S
C1121  H1152   1.111   .     S
C1121  H1151   1.111   .     S
C1121  H1451   1.111   .     S
C1122  H1155   1.114   .     S
C1122  C1123   1.528   .     S
C1122  H1156   1.116   .     S
C1122  O1176   1.411   .     S
C1123  H1157   1.111   .     S
C1123  H1158   1.112   .     S
C1123  C1125   1.527   .     S
C1124  C1126   1.419   .     A
C1124  C1127   1.430   .     A
C1125  H1160   1.110   .     S
C1125  H1161   1.111   .     S
C1125  H1753   1.111   1_545 S
C1126  C239    1.392   1_556 S
C1127  C237    1.431   1_556 S
C1128  C1129   1.427   .     A
C1129  O1175   1.382   .     S
C1129  C1130   1.388   .     A
C1130  H1131   1.083   .     S
H1133  C914    1.113   1_655 S
H1143  C226    1.112   1_556 S
H1153  C1697   1.088   1_545 S
H1154  C1715   1.111   1_545 S
H1159  C1422   1.111   .     S
H1162  C1401   1.086   .     S
O1168  Zn1187  1.935   .     S
O1168  Zn1188  1.932   .     S
O1168  Zn1186  1.943   .     S
O1168  Zn1185  1.963   .     S
O1169  Zn1186  1.930   .     S
O1170  Zn1188  1.941   .     S
O1171  Zn1187  1.934   .     S
O1172  Zn1185  1.925   .     S
O1177  Zn1185  1.922   .     S
O1178  Zn1188  1.925   .     S
O1179  Zn1186  1.936   .     S
O1180  Zn1187  1.947   .     S
O1181  Zn1188  1.942   .     S
O1182  Zn1185  1.933   .     S
O1183  Zn1186  1.931   .     S
O1184  Zn1187  1.924   .     S
Br1189 C1299   1.933   .     S
C1190  C1200   1.432   .     S
C1190  O1278   1.264   .     A
C1190  O1280   1.267   .     A
C1191  C1226   1.432   .     A
C1191  O1275   1.381   .     S
C1191  C1192   1.390   .     A
C1192  H1264   1.085   .     S
C1192  C303    1.386   1_556 S
C1193  C1199   1.464   .     S
C1193  O1279   1.289   .     A
C1193  O1281   1.271   .     A
C1194  C1196   1.404   .     A
C1194  C1195   1.417   .     A
C1195  C1198   1.408   .     A
C1195  C1227   1.427   .     A
C1196  C1197   1.390   .     A
C1196  H1241   1.084   .     S
C1197  C1209   1.395   .     A
C1197  H1263   1.083   .     S
C1198  C1209   1.390   .     A
C1198  H1262   1.077   .     S
C1199  C1299   1.355   .     S
C1199  O1371   1.388   .     S
C1200  Br1387  1.933   1_455 S
C1200  C1397   1.355   1_455 S
C1201  H1265   1.083   .     S
C1201  C1208   1.398   .     A
C1201  C1210   1.401   .     A
C1202  C1205   1.449   .     S
C1202  C1500   1.330   .     S
C1202  H1549   1.088   .     S
C1203  C1204   1.432   .     S
C1204  O1282   1.279   .     A
C1204  O1276   1.279   .     A
C1205  O1283   1.271   .     A
C1205  O1277   1.272   .     A
C1206  C1209   1.449   .     S
C1206  O1270   1.272   .     A
C1206  O1268   1.275   .     A
C1207  C1208   1.467   .     S
C1207  O1271   1.286   .     A
C1207  O1269   1.280   .     A
C1208  C1212   1.393   .     A
C1210  O1273   1.389   .     S
C1210  C1225   1.413   .     A
C1211  H1231   1.116   .     S
C1211  O1272   1.413   .     S
C1211  C1213   1.527   .     S
C1211  H1430   1.113   1_455 S
C1212  C1223   1.404   .     A
C1212  H1266   1.075   .     S
C1213  C1214   1.526   .     S
C1213  H1233   1.112   .     S
C1213  H1234   1.112   .     S
C1214  H1236   1.110   .     S
C1214  H1237   1.110   .     S
C1214  H1235   1.111   .     S
C1215  O1273   1.417   .     S
C1215  H1239   1.114   .     S
C1215  H1238   1.111   .     S
C1215  C325    1.534   1_556 S
C1216  H1240   1.111   .     S
C1217  H1243   1.109   .     S
C1217  C28     1.526   1_556 S
C1217  H353    1.111   1_556 S
C1217  H354    1.111   1_556 S
C1218  O1274   1.413   .     S
C1218  H1247   1.115   .     S
C1218  C1219   1.528   .     S
C1218  H1246   1.116   .     S
C1219  H1249   1.113   .     S
C1219  H1248   1.111   .     S
C1219  C1220   1.526   .     S
C1220  H1251   1.111   .     S
C1220  H1250   1.111   .     S
C1220  H1550   1.111   .     S
C1221  H1254   1.114   .     S
C1221  C1222   1.528   .     S
C1221  H1255   1.116   .     S
C1221  O1275   1.411   .     S
C1222  H1256   1.111   .     S
C1222  H1257   1.112   .     S
C1222  C1224   1.527   .     S
C1223  C1225   1.419   .     A
C1223  C1226   1.430   .     A
C1224  H1259   1.110   .     S
C1224  H1260   1.111   .     S
C1225  C338    1.392   1_556 S
C1226  C336    1.431   1_556 S
C1227  C1228   1.427   .     A
C1228  O1274   1.382   .     S
C1228  C1229   1.388   .     A
C1229  H1230   1.083   .     S
H1232  C1310   1.113   .     S
H1242  C325    1.112   1_556 S
H1258  C1521   1.111   .     S
H1261  C1500   1.086   .     S
O1267  Zn1286  1.935   .     S
O1267  Zn1287  1.932   .     S
O1267  Zn1285  1.943   .     S
O1267  Zn1284  1.963   .     S
O1268  Zn1285  1.930   .     S
O1269  Zn1287  1.941   .     S
O1270  Zn1286  1.934   .     S
O1271  Zn1284  1.925   .     S
O1272  C1397   1.388   1_455 S
O1276  Zn1284  1.922   .     S
O1277  Zn1287  1.925   .     S
O1278  Zn1285  1.936   .     S
O1279  Zn1286  1.947   .     S
O1280  Zn1287  1.942   .     S
O1281  Zn1284  1.933   .     S
O1282  Zn1285  1.931   .     S
O1283  Zn1286  1.924   .     S
Br1288 C1398   1.933   .     S
C1289  C1299   1.432   .     S
C1289  O1377   1.264   .     A
C1289  O1379   1.267   .     A
C1290  C1325   1.432   .     A
C1290  O1374   1.381   .     S
C1290  C1291   1.390   .     A
C1291  H1363   1.085   .     S
C1291  C402    1.386   1_556 S
C1292  C1298   1.464   .     S
C1292  O1378   1.289   .     A
C1292  O1380   1.271   .     A
C1293  C1295   1.404   .     A
C1293  C1294   1.417   .     A
C1294  C1297   1.408   .     A
C1294  C1326   1.427   .     A
C1295  C1296   1.390   .     A
C1295  H1340   1.084   .     S
C1296  C1308   1.395   .     A
C1296  H1362   1.083   .     S
C1297  C1308   1.390   .     A
C1297  H1361   1.077   .     S
C1298  C1398   1.355   .     S
C1298  O1470   1.388   .     S
C1300  H1364   1.083   .     S
C1300  C1307   1.398   .     A
C1300  C1309   1.401   .     A
C1301  C1304   1.449   .     S
C1301  C1599   1.330   .     S
C1301  H1648   1.088   .     S
C1302  C1303   1.432   .     S
C1303  O1381   1.279   .     A
C1303  O1375   1.279   .     A
C1304  O1382   1.271   .     A
C1304  O1376   1.272   .     A
C1305  C1308   1.449   .     S
C1305  O1369   1.272   .     A
C1305  O1367   1.275   .     A
C1306  C1307   1.467   .     S
C1306  O1370   1.286   .     A
C1306  O1368   1.280   .     A
C1307  C1311   1.393   .     A
C1309  O1372   1.389   .     S
C1309  C1324   1.413   .     A
C1310  H1330   1.116   .     S
C1310  O1371   1.413   .     S
C1310  C1312   1.527   .     S
C1311  C1322   1.404   .     A
C1311  H1365   1.075   .     S
C1312  C1313   1.526   .     S
C1312  H1332   1.112   .     S
C1312  H1333   1.112   .     S
C1313  H1335   1.110   .     S
C1313  H1336   1.110   .     S
C1313  H1334   1.111   .     S
C1314  O1372   1.417   .     S
C1314  H1338   1.114   .     S
C1314  H1337   1.111   .     S
C1314  C424    1.534   1_556 S
C1315  H1339   1.111   .     S
C1316  H1342   1.109   .     S
C1316  C127    1.526   1_556 S
C1316  H452    1.111   1_556 S
C1316  H453    1.111   1_556 S
C1317  O1373   1.413   .     S
C1317  H1346   1.115   .     S
C1317  C1318   1.528   .     S
C1317  H1345   1.116   .     S
C1318  H1348   1.113   .     S
C1318  H1347   1.111   .     S
C1318  C1319   1.526   .     S
C1319  H1350   1.111   .     S
C1319  H1349   1.111   .     S
C1319  H1649   1.111   .     S
C1320  H1353   1.114   .     S
C1320  C1321   1.528   .     S
C1320  H1354   1.116   .     S
C1320  O1374   1.411   .     S
C1321  H1355   1.111   .     S
C1321  H1356   1.112   .     S
C1321  C1323   1.527   .     S
C1322  C1324   1.419   .     A
C1322  C1325   1.430   .     A
C1323  H1358   1.110   .     S
C1323  H1359   1.111   .     S
C1324  C437    1.392   1_556 S
C1325  C435    1.431   1_556 S
C1326  C1327   1.427   .     A
C1327  O1373   1.382   .     S
C1327  C1328   1.388   .     A
C1328  H1329   1.083   .     S
H1331  C1409   1.113   .     S
H1341  C424    1.112   1_556 S
H1357  C1620   1.111   .     S
H1360  C1599   1.086   .     S
O1366  Zn1385  1.935   .     S
O1366  Zn1386  1.932   .     S
O1366  Zn1384  1.943   .     S
O1366  Zn1383  1.963   .     S
O1367  Zn1384  1.930   .     S
O1368  Zn1386  1.941   .     S
O1369  Zn1385  1.934   .     S
O1370  Zn1383  1.925   .     S
O1375  Zn1383  1.922   .     S
O1376  Zn1386  1.925   .     S
O1377  Zn1384  1.936   .     S
O1378  Zn1385  1.947   .     S
O1379  Zn1386  1.942   .     S
O1380  Zn1383  1.933   .     S
O1381  Zn1384  1.931   .     S
O1382  Zn1385  1.924   .     S
Br1387 C1200   1.933   1_655 S
C1388  C1398   1.432   .     S
C1388  O1476   1.264   .     A
C1388  O1478   1.267   .     A
C1389  C1424   1.432   .     A
C1389  O1473   1.381   .     S
C1389  C1390   1.390   .     A
C1390  H1462   1.085   .     S
C1390  C501    1.386   1_556 S
C1391  C1397   1.464   .     S
C1391  O1477   1.289   .     A
C1391  O1479   1.271   .     A
C1392  C1394   1.404   .     A
C1392  C1393   1.417   .     A
C1393  C1396   1.408   .     A
C1393  C1425   1.427   .     A
C1394  C1395   1.390   .     A
C1394  H1439   1.084   .     S
C1395  C1407   1.395   .     A
C1395  H1461   1.083   .     S
C1396  C1407   1.390   .     A
C1396  H1460   1.077   .     S
C1397  C1200   1.355   1_655 S
C1397  O1272   1.388   1_655 S
C1399  H1463   1.083   .     S
C1399  C1406   1.398   .     A
C1399  C1408   1.401   .     A
C1400  C1403   1.449   .     S
C1400  C1698   1.330   .     S
C1400  H1747   1.088   .     S
C1401  C1402   1.432   .     S
C1402  O1480   1.279   .     A
C1402  O1474   1.279   .     A
C1403  O1481   1.271   .     A
C1403  O1475   1.272   .     A
C1404  C1407   1.449   .     S
C1404  O1468   1.272   .     A
C1404  O1466   1.275   .     A
C1405  C1406   1.467   .     S
C1405  O1469   1.286   .     A
C1405  O1467   1.280   .     A
C1406  C1410   1.393   .     A
C1408  O1471   1.389   .     S
C1408  C1423   1.413   .     A
C1409  H1429   1.116   .     S
C1409  O1470   1.413   .     S
C1409  C1411   1.527   .     S
C1410  C1421   1.404   .     A
C1410  H1464   1.075   .     S
C1411  C1412   1.526   .     S
C1411  H1431   1.112   .     S
C1411  H1432   1.112   .     S
C1412  H1434   1.110   .     S
C1412  H1435   1.110   .     S
C1412  H1433   1.111   .     S
C1413  O1471   1.417   .     S
C1413  H1437   1.114   .     S
C1413  H1436   1.111   .     S
C1413  C523    1.534   1_556 S
C1414  H1438   1.111   .     S
C1415  H1441   1.109   .     S
C1415  C226    1.526   1_556 S
C1415  H551    1.111   1_556 S
C1415  H552    1.111   1_556 S
C1416  O1472   1.413   .     S
C1416  H1445   1.115   .     S
C1416  C1417   1.528   .     S
C1416  H1444   1.116   .     S
C1417  H1447   1.113   .     S
C1417  H1446   1.111   .     S
C1417  C1418   1.526   .     S
C1418  H1449   1.111   .     S
C1418  H1448   1.111   .     S
C1418  H1748   1.111   .     S
C1419  H1452   1.114   .     S
C1419  C1420   1.528   .     S
C1419  H1453   1.116   .     S
C1419  O1473   1.411   .     S
C1420  H1454   1.111   .     S
C1420  H1455   1.112   .     S
C1420  C1422   1.527   .     S
C1421  C1423   1.419   .     A
C1421  C1424   1.430   .     A
C1422  H1457   1.110   .     S
C1422  H1458   1.111   .     S
C1423  C536    1.392   1_556 S
C1424  C534    1.431   1_556 S
C1425  C1426   1.427   .     A
C1426  O1472   1.382   .     S
C1426  C1427   1.388   .     A
C1427  H1428   1.083   .     S
H1430  C1211   1.113   1_655 S
H1440  C523    1.112   1_556 S
H1456  C1719   1.111   .     S
H1459  C1698   1.086   .     S
O1465  Zn1484  1.935   .     S
O1465  Zn1485  1.932   .     S
O1465  Zn1483  1.943   .     S
O1465  Zn1482  1.963   .     S
O1466  Zn1483  1.930   .     S
O1467  Zn1485  1.941   .     S
O1468  Zn1484  1.934   .     S
O1469  Zn1482  1.925   .     S
O1474  Zn1482  1.922   .     S
O1475  Zn1485  1.925   .     S
O1476  Zn1483  1.936   .     S
O1477  Zn1484  1.947   .     S
O1478  Zn1485  1.942   .     S
O1479  Zn1482  1.933   .     S
O1480  Zn1483  1.931   .     S
O1481  Zn1484  1.924   .     S
Br1486 C1596   1.933   .     S
C1487  C1497   1.432   .     S
C1487  O1575   1.264   .     A
C1487  O1577   1.267   .     A
C1488  C1523   1.432   .     A
C1488  O1572   1.381   .     S
C1488  C1489   1.390   .     A
C1489  H1561   1.085   .     S
C1489  C600    1.386   1_556 S
C1490  C1496   1.464   .     S
C1490  O1576   1.289   .     A
C1490  O1578   1.271   .     A
C1491  C1493   1.404   .     A
C1491  C1492   1.417   .     A
C1492  C1495   1.408   .     A
C1492  C1524   1.427   .     A
C1493  C1494   1.390   .     A
C1493  H1538   1.084   .     S
C1494  C1506   1.395   .     A
C1494  H1560   1.083   .     S
C1495  C1506   1.390   .     A
C1495  H1559   1.077   .     S
C1496  C1596   1.355   .     S
C1496  O1668   1.388   .     S
C1497  Br1684  1.933   1_455 S
C1497  C1694   1.355   1_455 S
C1498  H1562   1.083   .     S
C1498  C1505   1.398   .     A
C1498  C1507   1.401   .     A
C1499  C1502   1.449   .     S
C1499  C906    1.330   1_565 S
C1499  H955    1.088   1_565 S
C1500  C1501   1.432   .     S
C1501  O1579   1.279   .     A
C1501  O1573   1.279   .     A
C1502  O1580   1.271   .     A
C1502  O1574   1.272   .     A
C1503  C1506   1.449   .     S
C1503  O1567   1.272   .     A
C1503  O1565   1.275   .     A
C1504  C1505   1.467   .     S
C1504  O1568   1.286   .     A
C1504  O1566   1.280   .     A
C1505  C1509   1.393   .     A
C1507  O1570   1.389   .     S
C1507  C1522   1.413   .     A
C1508  H1528   1.116   .     S
C1508  O1569   1.413   .     S
C1508  C1510   1.527   .     S
C1508  H1727   1.113   1_455 S
C1509  C1520   1.404   .     A
C1509  H1563   1.075   .     S
C1510  C1511   1.526   .     S
C1510  H1530   1.112   .     S
C1510  H1531   1.112   .     S
C1511  H1533   1.110   .     S
C1511  H1534   1.110   .     S
C1511  H1532   1.111   .     S
C1512  O1570   1.417   .     S
C1512  H1536   1.114   .     S
C1512  H1535   1.111   .     S
C1512  C622    1.534   1_556 S
C1513  H1537   1.111   .     S
C1513  C29     1.526   1_565 S
C1514  H1540   1.109   .     S
C1514  C325    1.526   1_556 S
C1514  H650    1.111   1_556 S
C1514  H651    1.111   1_556 S
C1515  O1571   1.413   .     S
C1515  H1544   1.115   .     S
C1515  C1516   1.528   .     S
C1515  H1543   1.116   .     S
C1516  H1546   1.113   .     S
C1516  H1545   1.111   .     S
C1516  C1517   1.526   .     S
C1517  H1548   1.111   .     S
C1517  H1547   1.111   .     S
C1517  H956    1.111   1_565 S
C1518  H1551   1.114   .     S
C1518  C1519   1.528   .     S
C1518  H1552   1.116   .     S
C1518  O1572   1.411   .     S
C1519  H1553   1.111   .     S
C1519  H1554   1.112   .     S
C1519  C1521   1.527   .     S
C1520  C1522   1.419   .     A
C1520  C1523   1.430   .     A
C1521  H1556   1.110   .     S
C1521  H1557   1.111   .     S
C1522  C635    1.392   1_556 S
C1523  C633    1.431   1_556 S
C1524  C1525   1.427   .     A
C1525  O1571   1.382   .     S
C1525  C1526   1.388   .     A
C1526  H1527   1.083   .     S
H1529  C1607   1.113   .     S
H1539  C622    1.112   1_556 S
H1555  C927    1.111   1_565 S
H1558  C906    1.086   1_565 S
O1564  Zn1583  1.935   .     S
O1564  Zn1584  1.932   .     S
O1564  Zn1582  1.943   .     S
O1564  Zn1581  1.963   .     S
O1565  Zn1582  1.930   .     S
O1566  Zn1584  1.941   .     S
O1567  Zn1583  1.934   .     S
O1568  Zn1581  1.925   .     S
O1569  C1694   1.388   1_455 S
O1573  Zn1581  1.922   .     S
O1574  Zn1584  1.925   .     S
O1575  Zn1582  1.936   .     S
O1576  Zn1583  1.947   .     S
O1577  Zn1584  1.942   .     S
O1578  Zn1581  1.933   .     S
O1579  Zn1582  1.931   .     S
O1580  Zn1583  1.924   .     S
Br1585 C1695   1.933   .     S
C1586  C1596   1.432   .     S
C1586  O1674   1.264   .     A
C1586  O1676   1.267   .     A
C1587  C1622   1.432   .     A
C1587  O1671   1.381   .     S
C1587  C1588   1.390   .     A
C1588  H1660   1.085   .     S
C1588  C699    1.386   1_556 S
C1589  C1595   1.464   .     S
C1589  O1675   1.289   .     A
C1589  O1677   1.271   .     A
C1590  C1592   1.404   .     A
C1590  C1591   1.417   .     A
C1591  C1594   1.408   .     A
C1591  C1623   1.427   .     A
C1592  C1593   1.390   .     A
C1592  H1637   1.084   .     S
C1593  C1605   1.395   .     A
C1593  H1659   1.083   .     S
C1594  C1605   1.390   .     A
C1594  H1658   1.077   .     S
C1595  C1695   1.355   .     S
C1595  O1767   1.388   .     S
C1597  H1661   1.083   .     S
C1597  C1604   1.398   .     A
C1597  C1606   1.401   .     A
C1598  C1601   1.449   .     S
C1598  C1005   1.330   1_565 S
C1598  H1054   1.088   1_565 S
C1599  C1600   1.432   .     S
C1600  O1678   1.279   .     A
C1600  O1672   1.279   .     A
C1601  O1679   1.271   .     A
C1601  O1673   1.272   .     A
C1602  C1605   1.449   .     S
C1602  O1666   1.272   .     A
C1602  O1664   1.275   .     A
C1603  C1604   1.467   .     S
C1603  O1667   1.286   .     A
C1603  O1665   1.280   .     A
C1604  C1608   1.393   .     A
C1606  O1669   1.389   .     S
C1606  C1621   1.413   .     A
C1607  H1627   1.116   .     S
C1607  O1668   1.413   .     S
C1607  C1609   1.527   .     S
C1608  C1619   1.404   .     A
C1608  H1662   1.075   .     S
C1609  C1610   1.526   .     S
C1609  H1629   1.112   .     S
C1609  H1630   1.112   .     S
C1610  H1632   1.110   .     S
C1610  H1633   1.110   .     S
C1610  H1631   1.111   .     S
C1611  O1669   1.417   .     S
C1611  H1635   1.114   .     S
C1611  H1634   1.111   .     S
C1611  C721    1.534   1_556 S
C1612  H1636   1.111   .     S
C1612  C128    1.526   1_565 S
C1613  H1639   1.109   .     S
C1613  C424    1.526   1_556 S
C1613  H749    1.111   1_556 S
C1613  H750    1.111   1_556 S
C1614  O1670   1.413   .     S
C1614  H1643   1.115   .     S
C1614  C1615   1.528   .     S
C1614  H1642   1.116   .     S
C1615  H1645   1.113   .     S
C1615  H1644   1.111   .     S
C1615  C1616   1.526   .     S
C1616  H1647   1.111   .     S
C1616  H1646   1.111   .     S
C1616  H1055   1.111   1_565 S
C1617  H1650   1.114   .     S
C1617  C1618   1.528   .     S
C1617  H1651   1.116   .     S
C1617  O1671   1.411   .     S
C1618  H1652   1.111   .     S
C1618  H1653   1.112   .     S
C1618  C1620   1.527   .     S
C1619  C1621   1.419   .     A
C1619  C1622   1.430   .     A
C1620  H1655   1.110   .     S
C1620  H1656   1.111   .     S
C1621  C734    1.392   1_556 S
C1622  C732    1.431   1_556 S
C1623  C1624   1.427   .     A
C1624  O1670   1.382   .     S
C1624  C1625   1.388   .     A
C1625  H1626   1.083   .     S
H1628  C1706   1.113   .     S
H1638  C721    1.112   1_556 S
H1654  C1026   1.111   1_565 S
H1657  C1005   1.086   1_565 S
O1663  Zn1682  1.935   .     S
O1663  Zn1683  1.932   .     S
O1663  Zn1681  1.943   .     S
O1663  Zn1680  1.963   .     S
O1664  Zn1681  1.930   .     S
O1665  Zn1683  1.941   .     S
O1666  Zn1682  1.934   .     S
O1667  Zn1680  1.925   .     S
O1672  Zn1680  1.922   .     S
O1673  Zn1683  1.925   .     S
O1674  Zn1681  1.936   .     S
O1675  Zn1682  1.947   .     S
O1676  Zn1683  1.942   .     S
O1677  Zn1680  1.933   .     S
O1678  Zn1681  1.931   .     S
O1679  Zn1682  1.924   .     S
Br1684 C1497   1.933   1_655 S
C1685  C1695   1.432   .     S
C1685  O1773   1.264   .     A
C1685  O1775   1.267   .     A
C1686  C1721   1.432   .     A
C1686  O1770   1.381   .     S
C1686  C1687   1.390   .     A
C1687  H1759   1.085   .     S
C1687  C798    1.386   1_556 S
C1688  C1694   1.464   .     S
C1688  O1774   1.289   .     A
C1688  O1776   1.271   .     A
C1689  C1691   1.404   .     A
C1689  C1690   1.417   .     A
C1690  C1693   1.408   .     A
C1690  C1722   1.427   .     A
C1691  C1692   1.390   .     A
C1691  H1736   1.084   .     S
C1692  C1704   1.395   .     A
C1692  H1758   1.083   .     S
C1693  C1704   1.390   .     A
C1693  H1757   1.077   .     S
C1694  C1497   1.355   1_655 S
C1694  O1569   1.388   1_655 S
C1696  H1760   1.083   .     S
C1696  C1703   1.398   .     A
C1696  C1705   1.401   .     A
C1697  C1700   1.449   .     S
C1697  C1104   1.330   1_565 S
C1697  H1153   1.088   1_565 S
C1698  C1699   1.432   .     S
C1699  O1777   1.279   .     A
C1699  O1771   1.279   .     A
C1700  O1778   1.271   .     A
C1700  O1772   1.272   .     A
C1701  C1704   1.449   .     S
C1701  O1765   1.272   .     A
C1701  O1763   1.275   .     A
C1702  C1703   1.467   .     S
C1702  O1766   1.286   .     A
C1702  O1764   1.280   .     A
C1703  C1707   1.393   .     A
C1705  O1768   1.389   .     S
C1705  C1720   1.413   .     A
C1706  H1726   1.116   .     S
C1706  O1767   1.413   .     S
C1706  C1708   1.527   .     S
C1707  C1718   1.404   .     A
C1707  H1761   1.075   .     S
C1708  C1709   1.526   .     S
C1708  H1728   1.112   .     S
C1708  H1729   1.112   .     S
C1709  H1731   1.110   .     S
C1709  H1732   1.110   .     S
C1709  H1730   1.111   .     S
C1710  O1768   1.417   .     S
C1710  H1734   1.114   .     S
C1710  H1733   1.111   .     S
C1710  C820    1.534   1_556 S
C1711  H1735   1.111   .     S
C1711  C227    1.526   1_565 S
C1712  H1738   1.109   .     S
C1712  C523    1.526   1_556 S
C1712  H848    1.111   1_556 S
C1712  H849    1.111   1_556 S
C1713  O1769   1.413   .     S
C1713  H1742   1.115   .     S
C1713  C1714   1.528   .     S
C1713  H1741   1.116   .     S
C1714  H1744   1.113   .     S
C1714  H1743   1.111   .     S
C1714  C1715   1.526   .     S
C1715  H1746   1.111   .     S
C1715  H1745   1.111   .     S
C1715  H1154   1.111   1_565 S
C1716  H1749   1.114   .     S
C1716  C1717   1.528   .     S
C1716  H1750   1.116   .     S
C1716  O1770   1.411   .     S
C1717  H1751   1.111   .     S
C1717  H1752   1.112   .     S
C1717  C1719   1.527   .     S
C1718  C1720   1.419   .     A
C1718  C1721   1.430   .     A
C1719  H1754   1.110   .     S
C1719  H1755   1.111   .     S
C1720  C833    1.392   1_556 S
C1721  C831    1.431   1_556 S
C1722  C1723   1.427   .     A
C1723  O1769   1.382   .     S
C1723  C1724   1.388   .     A
C1724  H1725   1.083   .     S
H1727  C1508   1.113   1_655 S
H1737  C820    1.112   1_556 S
H1753  C1125   1.111   1_565 S
H1756  C1104   1.086   1_565 S
O1762  Zn1781  1.935   .     S
O1762  Zn1782  1.932   .     S
O1762  Zn1780  1.943   .     S
O1762  Zn1779  1.963   .     S
O1763  Zn1780  1.930   .     S
O1764  Zn1782  1.941   .     S
O1765  Zn1781  1.934   .     S
O1766  Zn1779  1.925   .     S
O1771  Zn1779  1.922   .     S
O1772  Zn1782  1.925   .     S
O1773  Zn1780  1.936   .     S
O1774  Zn1781  1.947   .     S
O1775  Zn1782  1.942   .     S
O1776  Zn1779  1.933   .     S
O1777  Zn1780  1.931   .     S
O1778  Zn1781  1.924   .     S
