data_str_m2_o1_o2_pcu_sym.23
_audit_creation_date              2020-01-03
_audit_creation_method            'Materials Studio'
_symmetry_space_group_name_H-M    'P1'
_symmetry_Int_Tables_number       1
_symmetry_cell_setting            triclinic
loop_
_symmetry_equiv_pos_as_xyz
  x,y,z
_cell_length_a                    32.7206
_cell_length_b                    28.5423
_cell_length_c                    30.2525
_cell_angle_alpha                 90.0478
_cell_angle_beta                  90.1469
_cell_angle_gamma                 90.1562
loop_
_atom_site_label
_atom_site_type_symbol
_atom_site_fract_x
_atom_site_fract_y
_atom_site_fract_z
_atom_site_U_iso_or_equiv
_atom_site_adp_type
_atom_site_occupancy
C1     C     0.08726   0.16662   0.25070   0.00000  Uiso   1.00
C2     C     0.31210   0.20804   0.24053   0.00000  Uiso   1.00
C3     C     0.31162   0.12689   0.26518   0.00000  Uiso   1.00
C4     C     0.02075   0.20945   0.24736   0.00000  Uiso   1.00
C5     C     0.15512   0.20639   0.04745   0.00000  Uiso   1.00
C6     C     0.15678   0.12624   0.45250   0.00000  Uiso   1.00
C7     C     0.18052   0.20686   0.45234   0.00000  Uiso   1.00
C8     C     0.18176   0.12712   0.04784   0.00000  Uiso   1.00
C9     C     0.15463   0.20641   0.09338   0.00000  Uiso   1.00
C10    C     0.15639   0.12620   0.40657   0.00000  Uiso   1.00
C11    C     0.17967   0.20699   0.40640   0.00000  Uiso   1.00
C12    C     0.24586   0.16680   0.25054   0.00000  Uiso   1.00
C13    C     0.18080   0.12695   0.09376   0.00000  Uiso   1.00
C14    C     0.16734   0.16664   0.11675   0.00000  Uiso   1.00
C15    C     0.16761   0.16665   0.38329   0.00000  Uiso   1.00
C16    C     0.16873   0.16675   0.02432   0.00000  Uiso   1.00
C17    C     0.16884   0.16657   0.47575   0.00000  Uiso   1.00
C18    C     0.29032   0.16719   0.25184   0.00000  Uiso   1.00
C19    C     0.04244   0.16673   0.25201   0.00000  Uiso   1.00
C20    C     0.04642   0.06032   0.22338   0.00000  Uiso   1.00
C21    C     0.00797   0.03944   0.20192   0.00000  Uiso   1.00
C22    C     0.01917   0.01494   0.15871   0.00000  Uiso   1.00
C23    C     0.16681   0.16666   0.16497   0.00000  Uiso   1.00
C24    C     0.28571   0.24602   0.18106   0.00000  Uiso   1.00
C25    C     0.25330   0.28195   0.16801   0.00000  Uiso   1.00
C26    C     0.24548   0.28171   0.11826   0.00000  Uiso   1.00
C27    C     0.28144   0.10015   0.32838   0.00000  Uiso   1.00
C28    C     0.28528   0.05645   0.35698   0.00000  Uiso   1.00
C29    C     0.26670   0.06390   0.40266   0.00000  Uiso   1.00
C30    C     0.04898   0.26552   0.29245   0.00000  Uiso   1.00
C31    C     0.01144   0.28330   0.31769   0.00000  Uiso   1.00
C32    C     0.02230   0.29327   0.36591   0.00000  Uiso   1.00
C33    C     0.16690   0.16668   0.33505   0.00000  Uiso   1.00
C34    C     0.14841   0.02468   0.21656   0.00000  Uiso   1.00
C35    C     0.18579   0.30863   0.28291   0.00000  Uiso   1.00
C36    C     0.18555   0.02488   0.28305   0.00000  Uiso   1.00
C37    C     0.14784   0.30845   0.21691   0.00000  Uiso   1.00
C38    C     0.02024   0.12459   0.25875   0.00000  Uiso   1.00
Cu39   Cu    0.16667   0.21355   0.25000   0.00000  Uiso   1.00
Cu40   Cu    0.16667   0.11978   0.25000   0.00000  Uiso   1.00
H41    H     0.13373   0.04320   0.18974   0.00000  Uiso   1.00
H42    H     0.14681   0.09474   0.38933   0.00000  Uiso   1.00
H43    H     0.18887   0.23844   0.38901   0.00000  Uiso   1.00
H44    H     0.19111   0.09604   0.11126   0.00000  Uiso   1.00
H45    H     0.06793   0.03109   0.22937   0.00000  Uiso   1.00
H46    H     0.06136   0.08476   0.19965   0.00000  Uiso   1.00
H47    H     0.32678   0.01391   0.22473   0.00000  Uiso   1.00
H48    H     0.31903   0.06759   0.19430   0.00000  Uiso   1.00
H49    H     0.03624   0.03916   0.13668   0.00000  Uiso   1.00
H50    H     0.32445   0.00386   0.14104   0.00000  Uiso   1.00
H51    H     0.03828   0.31697   0.16552   0.00000  Uiso   1.00
H52    H     0.20127   0.29009   0.30920   0.00000  Uiso   1.00
H53    H     0.27452   0.21079   0.17030   0.00000  Uiso   1.00
H54    H     0.31476   0.25381   0.16351   0.00000  Uiso   1.00
H55    H     0.22435   0.27347   0.18516   0.00000  Uiso   1.00
H56    H     0.26294   0.31755   0.17865   0.00000  Uiso   1.00
H57    H     0.27367   0.29141   0.10006   0.00000  Uiso   1.00
H58    H     0.22117   0.30739   0.11013   0.00000  Uiso   1.00
H59    H     0.23531   0.24641   0.10729   0.00000  Uiso   1.00
H60    H     0.24933   0.11252   0.32926   0.00000  Uiso   1.00
H61    H     0.30120   0.12797   0.34348   0.00000  Uiso   1.00
H62    H     0.26976   0.02635   0.34065   0.00000  Uiso   1.00
H63    H     0.20058   0.04358   0.30958   0.00000  Uiso   1.00
H64    H     0.31821   0.04821   0.36070   0.00000  Uiso   1.00
H65    H     0.28180   0.09383   0.41967   0.00000  Uiso   1.00
H66    H     0.27102   0.03186   0.42292   0.00000  Uiso   1.00
H67    H     0.23344   0.07093   0.39974   0.00000  Uiso   1.00
H68    H     0.07209   0.29411   0.29152   0.00000  Uiso   1.00
H69    H     0.06325   0.23619   0.31122   0.00000  Uiso   1.00
H70    H     0.33309   0.31570   0.30181   0.00000  Uiso   1.00
H71    H     0.32013   0.25651   0.31725   0.00000  Uiso   1.00
H72    H     0.03566   0.26167   0.38168   0.00000  Uiso   1.00
H73    H     0.32763   0.30272   0.38447   0.00000  Uiso   1.00
H74    H     0.13250   0.28978   0.19051   0.00000  Uiso   1.00
H75    H     0.04458   0.32263   0.36807   0.00000  Uiso   1.00
H76    H     0.14428   0.23710   0.03006   0.00000  Uiso   1.00
H77    H     0.14701   0.09497   0.46979   0.00000  Uiso   1.00
H78    H     0.19064   0.23812   0.46952   0.00000  Uiso   1.00
H79    H     0.19304   0.09642   0.03076   0.00000  Uiso   1.00
H80    H     0.14392   0.23733   0.11057   0.00000  Uiso   1.00
N81    N     0.16667   0.28402   0.25000   0.00000  Uiso   1.00
N82    N     0.16667   0.04931   0.25000   0.00000  Uiso   1.00
O83    O     0.10655   0.20625   0.24999   0.00000  Uiso   1.00
O84    O     0.29229   0.24843   0.22723   0.00000  Uiso   1.00
O85    O     0.29212   0.08884   0.28421   0.00000  Uiso   1.00
O86    O     0.03966   0.25299   0.24806   0.00000  Uiso   1.00
O87    O     0.22679   0.12709   0.25000   0.00000  Uiso   1.00
O88    O     0.22679   0.20625   0.25000   0.00000  Uiso   1.00
O89    O     0.10655   0.12709   0.24999   0.00000  Uiso   1.00
O90    O     0.16666   0.20626   0.18573   0.00000  Uiso   1.00
O91    O     0.16667   0.12707   0.31427   0.00000  Uiso   1.00
O92    O     0.16667   0.20626   0.31427   0.00000  Uiso   1.00
O93    O     0.16666   0.12707   0.18573   0.00000  Uiso   1.00
O94    O     0.03898   0.08166   0.26494   0.00000  Uiso   1.00
C95    C     0.42060   0.16662   0.25070   0.00000  Uiso   1.00
C96    C     0.64543   0.20804   0.24053   0.00000  Uiso   1.00
C97    C     0.64495   0.12689   0.26518   0.00000  Uiso   1.00
C98    C     0.35408   0.20945   0.24736   0.00000  Uiso   1.00
C99    C     0.48845   0.20639   0.04745   0.00000  Uiso   1.00
C100   C     0.49011   0.12624   0.45250   0.00000  Uiso   1.00
C101   C     0.51385   0.20686   0.45234   0.00000  Uiso   1.00
C102   C     0.51509   0.12712   0.04784   0.00000  Uiso   1.00
C103   C     0.48796   0.20641   0.09338   0.00000  Uiso   1.00
C104   C     0.48972   0.12620   0.40657   0.00000  Uiso   1.00
C105   C     0.51300   0.20699   0.40640   0.00000  Uiso   1.00
C106   C     0.57920   0.16680   0.25054   0.00000  Uiso   1.00
C107   C     0.51414   0.12695   0.09376   0.00000  Uiso   1.00
C108   C     0.50068   0.16664   0.11675   0.00000  Uiso   1.00
C109   C     0.50094   0.16665   0.38329   0.00000  Uiso   1.00
C110   C     0.50206   0.16675   0.02432   0.00000  Uiso   1.00
C111   C     0.50217   0.16657   0.47575   0.00000  Uiso   1.00
C112   C     0.62365   0.16719   0.25184   0.00000  Uiso   1.00
C113   C     0.37577   0.16673   0.25201   0.00000  Uiso   1.00
C114   C     0.37976   0.06032   0.22338   0.00000  Uiso   1.00
C115   C     0.34131   0.03944   0.20192   0.00000  Uiso   1.00
C116   C     0.35250   0.01494   0.15871   0.00000  Uiso   1.00
C117   C     0.50014   0.16666   0.16497   0.00000  Uiso   1.00
C118   C     0.61905   0.24602   0.18106   0.00000  Uiso   1.00
C119   C     0.58663   0.28195   0.16801   0.00000  Uiso   1.00
C120   C     0.57881   0.28171   0.11826   0.00000  Uiso   1.00
C121   C     0.61477   0.10015   0.32838   0.00000  Uiso   1.00
C122   C     0.61861   0.05645   0.35698   0.00000  Uiso   1.00
C123   C     0.60004   0.06390   0.40266   0.00000  Uiso   1.00
C124   C     0.38231   0.26552   0.29245   0.00000  Uiso   1.00
C125   C     0.34477   0.28330   0.31769   0.00000  Uiso   1.00
C126   C     0.35563   0.29327   0.36591   0.00000  Uiso   1.00
C127   C     0.50023   0.16668   0.33505   0.00000  Uiso   1.00
C128   C     0.48175   0.02468   0.21656   0.00000  Uiso   1.00
C129   C     0.51912   0.30863   0.28291   0.00000  Uiso   1.00
C130   C     0.51889   0.02488   0.28305   0.00000  Uiso   1.00
C131   C     0.48118   0.30845   0.21691   0.00000  Uiso   1.00
C132   C     0.35357   0.12459   0.25875   0.00000  Uiso   1.00
Cu133  Cu    0.50000   0.21355   0.25000   0.00000  Uiso   1.00
Cu134  Cu    0.50000   0.11978   0.25000   0.00000  Uiso   1.00
H135   H     0.46706   0.04320   0.18974   0.00000  Uiso   1.00
H136   H     0.48014   0.09474   0.38933   0.00000  Uiso   1.00
H137   H     0.52221   0.23844   0.38901   0.00000  Uiso   1.00
H138   H     0.52445   0.09604   0.11126   0.00000  Uiso   1.00
H139   H     0.40126   0.03109   0.22937   0.00000  Uiso   1.00
H140   H     0.39469   0.08476   0.19965   0.00000  Uiso   1.00
H141   H     0.66012   0.01391   0.22473   0.00000  Uiso   1.00
H142   H     0.65237   0.06759   0.19430   0.00000  Uiso   1.00
H143   H     0.36957   0.03916   0.13668   0.00000  Uiso   1.00
H144   H     0.65778   0.00386   0.14104   0.00000  Uiso   1.00
H145   H     0.37162   0.31697   0.16552   0.00000  Uiso   1.00
H146   H     0.53461   0.29009   0.30920   0.00000  Uiso   1.00
H147   H     0.60786   0.21079   0.17030   0.00000  Uiso   1.00
H148   H     0.64810   0.25381   0.16351   0.00000  Uiso   1.00
H149   H     0.55768   0.27347   0.18516   0.00000  Uiso   1.00
H150   H     0.59628   0.31755   0.17865   0.00000  Uiso   1.00
H151   H     0.60700   0.29141   0.10006   0.00000  Uiso   1.00
H152   H     0.55451   0.30739   0.11013   0.00000  Uiso   1.00
H153   H     0.56864   0.24641   0.10729   0.00000  Uiso   1.00
H154   H     0.58266   0.11252   0.32926   0.00000  Uiso   1.00
H155   H     0.63453   0.12797   0.34348   0.00000  Uiso   1.00
H156   H     0.60309   0.02635   0.34065   0.00000  Uiso   1.00
H157   H     0.53391   0.04358   0.30958   0.00000  Uiso   1.00
H158   H     0.65155   0.04821   0.36070   0.00000  Uiso   1.00
H159   H     0.61513   0.09383   0.41967   0.00000  Uiso   1.00
H160   H     0.60436   0.03186   0.42292   0.00000  Uiso   1.00
H161   H     0.56677   0.07093   0.39974   0.00000  Uiso   1.00
H162   H     0.40542   0.29411   0.29152   0.00000  Uiso   1.00
H163   H     0.39658   0.23619   0.31122   0.00000  Uiso   1.00
H164   H     0.66642   0.31570   0.30181   0.00000  Uiso   1.00
H165   H     0.65346   0.25651   0.31725   0.00000  Uiso   1.00
H166   H     0.36900   0.26167   0.38168   0.00000  Uiso   1.00
H167   H     0.66096   0.30272   0.38447   0.00000  Uiso   1.00
H168   H     0.46584   0.28978   0.19051   0.00000  Uiso   1.00
H169   H     0.37791   0.32263   0.36807   0.00000  Uiso   1.00
H170   H     0.47761   0.23710   0.03006   0.00000  Uiso   1.00
H171   H     0.48035   0.09497   0.46979   0.00000  Uiso   1.00
H172   H     0.52397   0.23812   0.46952   0.00000  Uiso   1.00
H173   H     0.52637   0.09642   0.03076   0.00000  Uiso   1.00
H174   H     0.47726   0.23733   0.11057   0.00000  Uiso   1.00
N175   N     0.50000   0.28402   0.25000   0.00000  Uiso   1.00
N176   N     0.50000   0.04931   0.25000   0.00000  Uiso   1.00
O177   O     0.43988   0.20625   0.24999   0.00000  Uiso   1.00
O178   O     0.62562   0.24843   0.22723   0.00000  Uiso   1.00
O179   O     0.62546   0.08884   0.28421   0.00000  Uiso   1.00
O180   O     0.37300   0.25299   0.24806   0.00000  Uiso   1.00
O181   O     0.56012   0.12709   0.25000   0.00000  Uiso   1.00
O182   O     0.56012   0.20625   0.25000   0.00000  Uiso   1.00
O183   O     0.43988   0.12709   0.24999   0.00000  Uiso   1.00
O184   O     0.50000   0.20626   0.18573   0.00000  Uiso   1.00
O185   O     0.50000   0.12707   0.31427   0.00000  Uiso   1.00
O186   O     0.50000   0.20626   0.31427   0.00000  Uiso   1.00
O187   O     0.50000   0.12707   0.18573   0.00000  Uiso   1.00
O188   O     0.37232   0.08166   0.26494   0.00000  Uiso   1.00
C189   C     0.75393   0.16662   0.25070   0.00000  Uiso   1.00
C190   C     0.97876   0.20804   0.24053   0.00000  Uiso   1.00
C191   C     0.97829   0.12689   0.26518   0.00000  Uiso   1.00
C192   C     0.68741   0.20945   0.24736   0.00000  Uiso   1.00
C193   C     0.82178   0.20639   0.04745   0.00000  Uiso   1.00
C194   C     0.82344   0.12624   0.45250   0.00000  Uiso   1.00
C195   C     0.84719   0.20686   0.45234   0.00000  Uiso   1.00
C196   C     0.84842   0.12712   0.04784   0.00000  Uiso   1.00
C197   C     0.82130   0.20641   0.09338   0.00000  Uiso   1.00
C198   C     0.82306   0.12620   0.40657   0.00000  Uiso   1.00
C199   C     0.84633   0.20699   0.40640   0.00000  Uiso   1.00
C200   C     0.91253   0.16680   0.25054   0.00000  Uiso   1.00
C201   C     0.84747   0.12695   0.09376   0.00000  Uiso   1.00
C202   C     0.83401   0.16664   0.11675   0.00000  Uiso   1.00
C203   C     0.83427   0.16665   0.38329   0.00000  Uiso   1.00
C204   C     0.83539   0.16675   0.02432   0.00000  Uiso   1.00
C205   C     0.83550   0.16657   0.47575   0.00000  Uiso   1.00
C206   C     0.95698   0.16719   0.25184   0.00000  Uiso   1.00
C207   C     0.70910   0.16673   0.25201   0.00000  Uiso   1.00
C208   C     0.71309   0.06032   0.22338   0.00000  Uiso   1.00
C209   C     0.67464   0.03944   0.20192   0.00000  Uiso   1.00
C210   C     0.68584   0.01494   0.15871   0.00000  Uiso   1.00
C211   C     0.83347   0.16666   0.16497   0.00000  Uiso   1.00
C212   C     0.95238   0.24602   0.18106   0.00000  Uiso   1.00
C213   C     0.91997   0.28195   0.16801   0.00000  Uiso   1.00
C214   C     0.91214   0.28171   0.11826   0.00000  Uiso   1.00
C215   C     0.94811   0.10015   0.32838   0.00000  Uiso   1.00
C216   C     0.95195   0.05645   0.35698   0.00000  Uiso   1.00
C217   C     0.93337   0.06390   0.40266   0.00000  Uiso   1.00
C218   C     0.71565   0.26552   0.29245   0.00000  Uiso   1.00
C219   C     0.67810   0.28330   0.31769   0.00000  Uiso   1.00
C220   C     0.68897   0.29327   0.36591   0.00000  Uiso   1.00
C221   C     0.83356   0.16668   0.33505   0.00000  Uiso   1.00
C222   C     0.81508   0.02468   0.21656   0.00000  Uiso   1.00
C223   C     0.85245   0.30863   0.28291   0.00000  Uiso   1.00
C224   C     0.85222   0.02488   0.28305   0.00000  Uiso   1.00
C225   C     0.81451   0.30845   0.21691   0.00000  Uiso   1.00
C226   C     0.68690   0.12459   0.25875   0.00000  Uiso   1.00
Cu227  Cu    0.83333   0.21355   0.25000   0.00000  Uiso   1.00
Cu228  Cu    0.83333   0.11978   0.25000   0.00000  Uiso   1.00
H229   H     0.80039   0.04320   0.18974   0.00000  Uiso   1.00
H230   H     0.81347   0.09474   0.38933   0.00000  Uiso   1.00
H231   H     0.85554   0.23844   0.38901   0.00000  Uiso   1.00
H232   H     0.85778   0.09604   0.11126   0.00000  Uiso   1.00
H233   H     0.73459   0.03109   0.22937   0.00000  Uiso   1.00
H234   H     0.72802   0.08476   0.19965   0.00000  Uiso   1.00
H235   H     0.99345   0.01391   0.22473   0.00000  Uiso   1.00
H236   H     0.98570   0.06759   0.19430   0.00000  Uiso   1.00
H237   H     0.70290   0.03916   0.13668   0.00000  Uiso   1.00
H238   H     0.99111   0.00386   0.14104   0.00000  Uiso   1.00
H239   H     0.70495   0.31697   0.16552   0.00000  Uiso   1.00
H240   H     0.86794   0.29009   0.30920   0.00000  Uiso   1.00
H241   H     0.94119   0.21079   0.17030   0.00000  Uiso   1.00
H242   H     0.98143   0.25381   0.16351   0.00000  Uiso   1.00
H243   H     0.89102   0.27347   0.18516   0.00000  Uiso   1.00
H244   H     0.92961   0.31755   0.17865   0.00000  Uiso   1.00
H245   H     0.94034   0.29141   0.10006   0.00000  Uiso   1.00
H246   H     0.88784   0.30739   0.11013   0.00000  Uiso   1.00
H247   H     0.90197   0.24641   0.10729   0.00000  Uiso   1.00
H248   H     0.91599   0.11252   0.32926   0.00000  Uiso   1.00
H249   H     0.96787   0.12797   0.34348   0.00000  Uiso   1.00
H250   H     0.93643   0.02635   0.34065   0.00000  Uiso   1.00
H251   H     0.86724   0.04358   0.30958   0.00000  Uiso   1.00
H252   H     0.98488   0.04821   0.36070   0.00000  Uiso   1.00
H253   H     0.94847   0.09383   0.41967   0.00000  Uiso   1.00
H254   H     0.93769   0.03186   0.42292   0.00000  Uiso   1.00
H255   H     0.90011   0.07093   0.39974   0.00000  Uiso   1.00
H256   H     0.73876   0.29411   0.29152   0.00000  Uiso   1.00
H257   H     0.72991   0.23619   0.31122   0.00000  Uiso   1.00
H258   H     0.99975   0.31570   0.30181   0.00000  Uiso   1.00
H259   H     0.98680   0.25651   0.31725   0.00000  Uiso   1.00
H260   H     0.70233   0.26167   0.38168   0.00000  Uiso   1.00
H261   H     0.99430   0.30272   0.38447   0.00000  Uiso   1.00
H262   H     0.79917   0.28978   0.19051   0.00000  Uiso   1.00
H263   H     0.71125   0.32263   0.36807   0.00000  Uiso   1.00
H264   H     0.81095   0.23710   0.03006   0.00000  Uiso   1.00
H265   H     0.81368   0.09497   0.46979   0.00000  Uiso   1.00
H266   H     0.85730   0.23812   0.46952   0.00000  Uiso   1.00
H267   H     0.85971   0.09642   0.03076   0.00000  Uiso   1.00
H268   H     0.81059   0.23733   0.11057   0.00000  Uiso   1.00
N269   N     0.83333   0.28402   0.25000   0.00000  Uiso   1.00
N270   N     0.83333   0.04931   0.25000   0.00000  Uiso   1.00
O271   O     0.77321   0.20625   0.24999   0.00000  Uiso   1.00
O272   O     0.95896   0.24843   0.22723   0.00000  Uiso   1.00
O273   O     0.95879   0.08884   0.28421   0.00000  Uiso   1.00
O274   O     0.70633   0.25299   0.24806   0.00000  Uiso   1.00
O275   O     0.89345   0.12709   0.25000   0.00000  Uiso   1.00
O276   O     0.89345   0.20625   0.25000   0.00000  Uiso   1.00
O277   O     0.77321   0.12709   0.24999   0.00000  Uiso   1.00
O278   O     0.83333   0.20626   0.18573   0.00000  Uiso   1.00
O279   O     0.83334   0.12707   0.31427   0.00000  Uiso   1.00
O280   O     0.83334   0.20626   0.31427   0.00000  Uiso   1.00
O281   O     0.83333   0.12707   0.18573   0.00000  Uiso   1.00
O282   O     0.70565   0.08166   0.26494   0.00000  Uiso   1.00
C283   C     0.08726   0.49995   0.25070   0.00000  Uiso   1.00
C284   C     0.31210   0.54138   0.24053   0.00000  Uiso   1.00
C285   C     0.31162   0.46022   0.26518   0.00000  Uiso   1.00
C286   C     0.02075   0.54279   0.24736   0.00000  Uiso   1.00
C287   C     0.15512   0.53972   0.04745   0.00000  Uiso   1.00
C288   C     0.15678   0.45957   0.45250   0.00000  Uiso   1.00
C289   C     0.18052   0.54019   0.45234   0.00000  Uiso   1.00
C290   C     0.18176   0.46045   0.04784   0.00000  Uiso   1.00
C291   C     0.15463   0.53975   0.09338   0.00000  Uiso   1.00
C292   C     0.15639   0.45954   0.40657   0.00000  Uiso   1.00
C293   C     0.17967   0.54032   0.40640   0.00000  Uiso   1.00
C294   C     0.24586   0.50013   0.25054   0.00000  Uiso   1.00
C295   C     0.18080   0.46028   0.09376   0.00000  Uiso   1.00
C296   C     0.16734   0.49998   0.11675   0.00000  Uiso   1.00
C297   C     0.16761   0.49999   0.38329   0.00000  Uiso   1.00
C298   C     0.16873   0.50009   0.02432   0.00000  Uiso   1.00
C299   C     0.16884   0.49990   0.47575   0.00000  Uiso   1.00
C300   C     0.29032   0.50052   0.25184   0.00000  Uiso   1.00
C301   C     0.04244   0.50006   0.25201   0.00000  Uiso   1.00
C302   C     0.04642   0.39365   0.22338   0.00000  Uiso   1.00
C303   C     0.00797   0.37277   0.20192   0.00000  Uiso   1.00
C304   C     0.01917   0.34828   0.15871   0.00000  Uiso   1.00
C305   C     0.16681   0.49999   0.16497   0.00000  Uiso   1.00
C306   C     0.28571   0.57935   0.18106   0.00000  Uiso   1.00
C307   C     0.25330   0.61529   0.16801   0.00000  Uiso   1.00
C308   C     0.24548   0.61504   0.11826   0.00000  Uiso   1.00
C309   C     0.28144   0.43348   0.32838   0.00000  Uiso   1.00
C310   C     0.28528   0.38978   0.35698   0.00000  Uiso   1.00
C311   C     0.26670   0.39723   0.40266   0.00000  Uiso   1.00
C312   C     0.04898   0.59886   0.29245   0.00000  Uiso   1.00
C313   C     0.01144   0.61663   0.31769   0.00000  Uiso   1.00
C314   C     0.02230   0.62661   0.36591   0.00000  Uiso   1.00
C315   C     0.16690   0.50001   0.33505   0.00000  Uiso   1.00
C316   C     0.14841   0.35802   0.21656   0.00000  Uiso   1.00
C317   C     0.18579   0.64196   0.28291   0.00000  Uiso   1.00
C318   C     0.18555   0.35821   0.28305   0.00000  Uiso   1.00
C319   C     0.14784   0.64178   0.21691   0.00000  Uiso   1.00
C320   C     0.02024   0.45792   0.25875   0.00000  Uiso   1.00
Cu321  Cu    0.16667   0.54689   0.25000   0.00000  Uiso   1.00
Cu322  Cu    0.16667   0.45311   0.25000   0.00000  Uiso   1.00
H323   H     0.13373   0.37654   0.18974   0.00000  Uiso   1.00
H324   H     0.14681   0.42808   0.38933   0.00000  Uiso   1.00
H325   H     0.18887   0.57177   0.38901   0.00000  Uiso   1.00
H326   H     0.19111   0.42938   0.11126   0.00000  Uiso   1.00
H327   H     0.06793   0.36442   0.22937   0.00000  Uiso   1.00
H328   H     0.06136   0.41810   0.19965   0.00000  Uiso   1.00
H329   H     0.32678   0.34724   0.22473   0.00000  Uiso   1.00
H330   H     0.31903   0.40092   0.19430   0.00000  Uiso   1.00
H331   H     0.03624   0.37249   0.13668   0.00000  Uiso   1.00
H332   H     0.32445   0.33720   0.14104   0.00000  Uiso   1.00
H333   H     0.03828   0.65031   0.16552   0.00000  Uiso   1.00
H334   H     0.20127   0.62342   0.30920   0.00000  Uiso   1.00
H335   H     0.27452   0.54412   0.17030   0.00000  Uiso   1.00
H336   H     0.31476   0.58714   0.16351   0.00000  Uiso   1.00
H337   H     0.22435   0.60681   0.18516   0.00000  Uiso   1.00
H338   H     0.26294   0.65089   0.17865   0.00000  Uiso   1.00
H339   H     0.27367   0.62475   0.10006   0.00000  Uiso   1.00
H340   H     0.22117   0.64073   0.11013   0.00000  Uiso   1.00
H341   H     0.23531   0.57974   0.10729   0.00000  Uiso   1.00
H342   H     0.24933   0.44585   0.32926   0.00000  Uiso   1.00
H343   H     0.30120   0.46130   0.34348   0.00000  Uiso   1.00
H344   H     0.26976   0.35968   0.34065   0.00000  Uiso   1.00
H345   H     0.20058   0.37691   0.30958   0.00000  Uiso   1.00
H346   H     0.31821   0.38155   0.36070   0.00000  Uiso   1.00
H347   H     0.28180   0.42716   0.41967   0.00000  Uiso   1.00
H348   H     0.27102   0.36520   0.42292   0.00000  Uiso   1.00
H349   H     0.23344   0.40426   0.39974   0.00000  Uiso   1.00
H350   H     0.07209   0.62744   0.29152   0.00000  Uiso   1.00
H351   H     0.06325   0.56952   0.31122   0.00000  Uiso   1.00
H352   H     0.33309   0.64903   0.30181   0.00000  Uiso   1.00
H353   H     0.32013   0.58985   0.31725   0.00000  Uiso   1.00
H354   H     0.03566   0.59500   0.38168   0.00000  Uiso   1.00
H355   H     0.32763   0.63605   0.38447   0.00000  Uiso   1.00
H356   H     0.13250   0.62312   0.19051   0.00000  Uiso   1.00
H357   H     0.04458   0.65596   0.36807   0.00000  Uiso   1.00
H358   H     0.14428   0.57043   0.03006   0.00000  Uiso   1.00
H359   H     0.14701   0.42830   0.46979   0.00000  Uiso   1.00
H360   H     0.19064   0.57145   0.46952   0.00000  Uiso   1.00
H361   H     0.19304   0.42976   0.03076   0.00000  Uiso   1.00
H362   H     0.14392   0.57066   0.11057   0.00000  Uiso   1.00
N363   N     0.16667   0.61736   0.25000   0.00000  Uiso   1.00
N364   N     0.16667   0.38264   0.25000   0.00000  Uiso   1.00
O365   O     0.10655   0.53958   0.24999   0.00000  Uiso   1.00
O366   O     0.29229   0.58177   0.22723   0.00000  Uiso   1.00
O367   O     0.29212   0.42217   0.28421   0.00000  Uiso   1.00
O368   O     0.03966   0.58633   0.24806   0.00000  Uiso   1.00
O369   O     0.22679   0.46042   0.25000   0.00000  Uiso   1.00
O370   O     0.22679   0.53958   0.25000   0.00000  Uiso   1.00
O371   O     0.10655   0.46042   0.24999   0.00000  Uiso   1.00
O372   O     0.16666   0.53959   0.18573   0.00000  Uiso   1.00
O373   O     0.16667   0.46041   0.31427   0.00000  Uiso   1.00
O374   O     0.16667   0.53959   0.31427   0.00000  Uiso   1.00
O375   O     0.16666   0.46041   0.18573   0.00000  Uiso   1.00
O376   O     0.03898   0.41499   0.26494   0.00000  Uiso   1.00
C377   C     0.42060   0.49995   0.25070   0.00000  Uiso   1.00
C378   C     0.64543   0.54138   0.24053   0.00000  Uiso   1.00
C379   C     0.64495   0.46022   0.26518   0.00000  Uiso   1.00
C380   C     0.35408   0.54279   0.24736   0.00000  Uiso   1.00
C381   C     0.48845   0.53972   0.04745   0.00000  Uiso   1.00
C382   C     0.49011   0.45957   0.45250   0.00000  Uiso   1.00
C383   C     0.51385   0.54019   0.45234   0.00000  Uiso   1.00
C384   C     0.51509   0.46045   0.04784   0.00000  Uiso   1.00
C385   C     0.48796   0.53975   0.09338   0.00000  Uiso   1.00
C386   C     0.48972   0.45954   0.40657   0.00000  Uiso   1.00
C387   C     0.51300   0.54032   0.40640   0.00000  Uiso   1.00
C388   C     0.57920   0.50013   0.25054   0.00000  Uiso   1.00
C389   C     0.51414   0.46028   0.09376   0.00000  Uiso   1.00
C390   C     0.50068   0.49998   0.11675   0.00000  Uiso   1.00
C391   C     0.50094   0.49999   0.38329   0.00000  Uiso   1.00
C392   C     0.50206   0.50009   0.02432   0.00000  Uiso   1.00
C393   C     0.50217   0.49990   0.47575   0.00000  Uiso   1.00
C394   C     0.62365   0.50052   0.25184   0.00000  Uiso   1.00
C395   C     0.37577   0.50006   0.25201   0.00000  Uiso   1.00
C396   C     0.37976   0.39365   0.22338   0.00000  Uiso   1.00
C397   C     0.34131   0.37277   0.20192   0.00000  Uiso   1.00
C398   C     0.35250   0.34828   0.15871   0.00000  Uiso   1.00
C399   C     0.50014   0.49999   0.16497   0.00000  Uiso   1.00
C400   C     0.61905   0.57935   0.18106   0.00000  Uiso   1.00
C401   C     0.58663   0.61529   0.16801   0.00000  Uiso   1.00
C402   C     0.57881   0.61504   0.11826   0.00000  Uiso   1.00
C403   C     0.61477   0.43348   0.32838   0.00000  Uiso   1.00
C404   C     0.61861   0.38978   0.35698   0.00000  Uiso   1.00
C405   C     0.60004   0.39723   0.40266   0.00000  Uiso   1.00
C406   C     0.38231   0.59886   0.29245   0.00000  Uiso   1.00
C407   C     0.34477   0.61663   0.31769   0.00000  Uiso   1.00
C408   C     0.35563   0.62661   0.36591   0.00000  Uiso   1.00
C409   C     0.50023   0.50001   0.33505   0.00000  Uiso   1.00
C410   C     0.48175   0.35802   0.21656   0.00000  Uiso   1.00
C411   C     0.51912   0.64196   0.28291   0.00000  Uiso   1.00
C412   C     0.51889   0.35821   0.28305   0.00000  Uiso   1.00
C413   C     0.48118   0.64178   0.21691   0.00000  Uiso   1.00
C414   C     0.35357   0.45792   0.25875   0.00000  Uiso   1.00
Cu415  Cu    0.50000   0.54689   0.25000   0.00000  Uiso   1.00
Cu416  Cu    0.50000   0.45311   0.25000   0.00000  Uiso   1.00
H417   H     0.46706   0.37654   0.18974   0.00000  Uiso   1.00
H418   H     0.48014   0.42808   0.38933   0.00000  Uiso   1.00
H419   H     0.52221   0.57177   0.38901   0.00000  Uiso   1.00
H420   H     0.52445   0.42938   0.11126   0.00000  Uiso   1.00
H421   H     0.40126   0.36442   0.22937   0.00000  Uiso   1.00
H422   H     0.39469   0.41810   0.19965   0.00000  Uiso   1.00
H423   H     0.66012   0.34724   0.22473   0.00000  Uiso   1.00
H424   H     0.65237   0.40092   0.19430   0.00000  Uiso   1.00
H425   H     0.36957   0.37249   0.13668   0.00000  Uiso   1.00
H426   H     0.65778   0.33720   0.14104   0.00000  Uiso   1.00
H427   H     0.37162   0.65031   0.16552   0.00000  Uiso   1.00
H428   H     0.53461   0.62342   0.30920   0.00000  Uiso   1.00
H429   H     0.60786   0.54412   0.17030   0.00000  Uiso   1.00
H430   H     0.64810   0.58714   0.16351   0.00000  Uiso   1.00
H431   H     0.55768   0.60681   0.18516   0.00000  Uiso   1.00
H432   H     0.59628   0.65089   0.17865   0.00000  Uiso   1.00
H433   H     0.60700   0.62475   0.10006   0.00000  Uiso   1.00
H434   H     0.55451   0.64073   0.11013   0.00000  Uiso   1.00
H435   H     0.56864   0.57974   0.10729   0.00000  Uiso   1.00
H436   H     0.58266   0.44585   0.32926   0.00000  Uiso   1.00
H437   H     0.63453   0.46130   0.34348   0.00000  Uiso   1.00
H438   H     0.60309   0.35968   0.34065   0.00000  Uiso   1.00
H439   H     0.53391   0.37691   0.30958   0.00000  Uiso   1.00
H440   H     0.65155   0.38155   0.36070   0.00000  Uiso   1.00
H441   H     0.61513   0.42716   0.41967   0.00000  Uiso   1.00
H442   H     0.60436   0.36520   0.42292   0.00000  Uiso   1.00
H443   H     0.56677   0.40426   0.39974   0.00000  Uiso   1.00
H444   H     0.40542   0.62744   0.29152   0.00000  Uiso   1.00
H445   H     0.39658   0.56952   0.31122   0.00000  Uiso   1.00
H446   H     0.66642   0.64903   0.30181   0.00000  Uiso   1.00
H447   H     0.65346   0.58985   0.31725   0.00000  Uiso   1.00
H448   H     0.36900   0.59500   0.38168   0.00000  Uiso   1.00
H449   H     0.66096   0.63605   0.38447   0.00000  Uiso   1.00
H450   H     0.46584   0.62312   0.19051   0.00000  Uiso   1.00
H451   H     0.37791   0.65596   0.36807   0.00000  Uiso   1.00
H452   H     0.47761   0.57043   0.03006   0.00000  Uiso   1.00
H453   H     0.48035   0.42830   0.46979   0.00000  Uiso   1.00
H454   H     0.52397   0.57145   0.46952   0.00000  Uiso   1.00
H455   H     0.52637   0.42976   0.03076   0.00000  Uiso   1.00
H456   H     0.47726   0.57066   0.11057   0.00000  Uiso   1.00
N457   N     0.50000   0.61736   0.25000   0.00000  Uiso   1.00
N458   N     0.50000   0.38264   0.25000   0.00000  Uiso   1.00
O459   O     0.43988   0.53958   0.24999   0.00000  Uiso   1.00
O460   O     0.62562   0.58177   0.22723   0.00000  Uiso   1.00
O461   O     0.62546   0.42217   0.28421   0.00000  Uiso   1.00
O462   O     0.37300   0.58633   0.24806   0.00000  Uiso   1.00
O463   O     0.56012   0.46042   0.25000   0.00000  Uiso   1.00
O464   O     0.56012   0.53958   0.25000   0.00000  Uiso   1.00
O465   O     0.43988   0.46042   0.24999   0.00000  Uiso   1.00
O466   O     0.50000   0.53959   0.18573   0.00000  Uiso   1.00
O467   O     0.50000   0.46041   0.31427   0.00000  Uiso   1.00
O468   O     0.50000   0.53959   0.31427   0.00000  Uiso   1.00
O469   O     0.50000   0.46041   0.18573   0.00000  Uiso   1.00
O470   O     0.37232   0.41499   0.26494   0.00000  Uiso   1.00
C471   C     0.75393   0.49995   0.25070   0.00000  Uiso   1.00
C472   C     0.97876   0.54138   0.24053   0.00000  Uiso   1.00
C473   C     0.97829   0.46022   0.26518   0.00000  Uiso   1.00
C474   C     0.68741   0.54279   0.24736   0.00000  Uiso   1.00
C475   C     0.82178   0.53972   0.04745   0.00000  Uiso   1.00
C476   C     0.82344   0.45957   0.45250   0.00000  Uiso   1.00
C477   C     0.84719   0.54019   0.45234   0.00000  Uiso   1.00
C478   C     0.84842   0.46045   0.04784   0.00000  Uiso   1.00
C479   C     0.82130   0.53975   0.09338   0.00000  Uiso   1.00
C480   C     0.82306   0.45954   0.40657   0.00000  Uiso   1.00
C481   C     0.84633   0.54032   0.40640   0.00000  Uiso   1.00
C482   C     0.91253   0.50013   0.25054   0.00000  Uiso   1.00
C483   C     0.84747   0.46028   0.09376   0.00000  Uiso   1.00
C484   C     0.83401   0.49998   0.11675   0.00000  Uiso   1.00
C485   C     0.83427   0.49999   0.38329   0.00000  Uiso   1.00
C486   C     0.83539   0.50009   0.02432   0.00000  Uiso   1.00
C487   C     0.83550   0.49990   0.47575   0.00000  Uiso   1.00
C488   C     0.95698   0.50052   0.25184   0.00000  Uiso   1.00
C489   C     0.70910   0.50006   0.25201   0.00000  Uiso   1.00
C490   C     0.71309   0.39365   0.22338   0.00000  Uiso   1.00
C491   C     0.67464   0.37277   0.20192   0.00000  Uiso   1.00
C492   C     0.68584   0.34828   0.15871   0.00000  Uiso   1.00
C493   C     0.83347   0.49999   0.16497   0.00000  Uiso   1.00
C494   C     0.95238   0.57935   0.18106   0.00000  Uiso   1.00
C495   C     0.91997   0.61529   0.16801   0.00000  Uiso   1.00
C496   C     0.91214   0.61504   0.11826   0.00000  Uiso   1.00
C497   C     0.94811   0.43348   0.32838   0.00000  Uiso   1.00
C498   C     0.95195   0.38978   0.35698   0.00000  Uiso   1.00
C499   C     0.93337   0.39723   0.40266   0.00000  Uiso   1.00
C500   C     0.71565   0.59886   0.29245   0.00000  Uiso   1.00
C501   C     0.67810   0.61663   0.31769   0.00000  Uiso   1.00
C502   C     0.68897   0.62661   0.36591   0.00000  Uiso   1.00
C503   C     0.83356   0.50001   0.33505   0.00000  Uiso   1.00
C504   C     0.81508   0.35802   0.21656   0.00000  Uiso   1.00
C505   C     0.85245   0.64196   0.28291   0.00000  Uiso   1.00
C506   C     0.85222   0.35821   0.28305   0.00000  Uiso   1.00
C507   C     0.81451   0.64178   0.21691   0.00000  Uiso   1.00
C508   C     0.68690   0.45792   0.25875   0.00000  Uiso   1.00
Cu509  Cu    0.83333   0.54689   0.25000   0.00000  Uiso   1.00
Cu510  Cu    0.83333   0.45311   0.25000   0.00000  Uiso   1.00
H511   H     0.80039   0.37654   0.18974   0.00000  Uiso   1.00
H512   H     0.81347   0.42808   0.38933   0.00000  Uiso   1.00
H513   H     0.85554   0.57177   0.38901   0.00000  Uiso   1.00
H514   H     0.85778   0.42938   0.11126   0.00000  Uiso   1.00
H515   H     0.73459   0.36442   0.22937   0.00000  Uiso   1.00
H516   H     0.72802   0.41810   0.19965   0.00000  Uiso   1.00
H517   H     0.99345   0.34724   0.22473   0.00000  Uiso   1.00
H518   H     0.98570   0.40092   0.19430   0.00000  Uiso   1.00
H519   H     0.70290   0.37249   0.13668   0.00000  Uiso   1.00
H520   H     0.99111   0.33720   0.14104   0.00000  Uiso   1.00
H521   H     0.70495   0.65031   0.16552   0.00000  Uiso   1.00
H522   H     0.86794   0.62342   0.30920   0.00000  Uiso   1.00
H523   H     0.94119   0.54412   0.17030   0.00000  Uiso   1.00
H524   H     0.98143   0.58714   0.16351   0.00000  Uiso   1.00
H525   H     0.89102   0.60681   0.18516   0.00000  Uiso   1.00
H526   H     0.92961   0.65089   0.17865   0.00000  Uiso   1.00
H527   H     0.94034   0.62475   0.10006   0.00000  Uiso   1.00
H528   H     0.88784   0.64073   0.11013   0.00000  Uiso   1.00
H529   H     0.90197   0.57974   0.10729   0.00000  Uiso   1.00
H530   H     0.91599   0.44585   0.32926   0.00000  Uiso   1.00
H531   H     0.96787   0.46130   0.34348   0.00000  Uiso   1.00
H532   H     0.93643   0.35968   0.34065   0.00000  Uiso   1.00
H533   H     0.86724   0.37691   0.30958   0.00000  Uiso   1.00
H534   H     0.98488   0.38155   0.36070   0.00000  Uiso   1.00
H535   H     0.94847   0.42716   0.41967   0.00000  Uiso   1.00
H536   H     0.93769   0.36520   0.42292   0.00000  Uiso   1.00
H537   H     0.90011   0.40426   0.39974   0.00000  Uiso   1.00
H538   H     0.73876   0.62744   0.29152   0.00000  Uiso   1.00
H539   H     0.72991   0.56952   0.31122   0.00000  Uiso   1.00
H540   H     0.99975   0.64903   0.30181   0.00000  Uiso   1.00
H541   H     0.98680   0.58985   0.31725   0.00000  Uiso   1.00
H542   H     0.70233   0.59500   0.38168   0.00000  Uiso   1.00
H543   H     0.99430   0.63605   0.38447   0.00000  Uiso   1.00
H544   H     0.79917   0.62312   0.19051   0.00000  Uiso   1.00
H545   H     0.71125   0.65596   0.36807   0.00000  Uiso   1.00
H546   H     0.81095   0.57043   0.03006   0.00000  Uiso   1.00
H547   H     0.81368   0.42830   0.46979   0.00000  Uiso   1.00
H548   H     0.85730   0.57145   0.46952   0.00000  Uiso   1.00
H549   H     0.85971   0.42976   0.03076   0.00000  Uiso   1.00
H550   H     0.81059   0.57066   0.11057   0.00000  Uiso   1.00
N551   N     0.83333   0.61736   0.25000   0.00000  Uiso   1.00
N552   N     0.83333   0.38264   0.25000   0.00000  Uiso   1.00
O553   O     0.77321   0.53958   0.24999   0.00000  Uiso   1.00
O554   O     0.95896   0.58177   0.22723   0.00000  Uiso   1.00
O555   O     0.95879   0.42217   0.28421   0.00000  Uiso   1.00
O556   O     0.70633   0.58633   0.24806   0.00000  Uiso   1.00
O557   O     0.89345   0.46042   0.25000   0.00000  Uiso   1.00
O558   O     0.89345   0.53958   0.25000   0.00000  Uiso   1.00
O559   O     0.77321   0.46042   0.24999   0.00000  Uiso   1.00
O560   O     0.83333   0.53959   0.18573   0.00000  Uiso   1.00
O561   O     0.83334   0.46041   0.31427   0.00000  Uiso   1.00
O562   O     0.83334   0.53959   0.31427   0.00000  Uiso   1.00
O563   O     0.83333   0.46041   0.18573   0.00000  Uiso   1.00
O564   O     0.70565   0.41499   0.26494   0.00000  Uiso   1.00
C565   C     0.08726   0.83329   0.25070   0.00000  Uiso   1.00
C566   C     0.31210   0.87471   0.24053   0.00000  Uiso   1.00
C567   C     0.31162   0.79355   0.26518   0.00000  Uiso   1.00
C568   C     0.02075   0.87612   0.24736   0.00000  Uiso   1.00
C569   C     0.15512   0.87305   0.04745   0.00000  Uiso   1.00
C570   C     0.15678   0.79291   0.45250   0.00000  Uiso   1.00
C571   C     0.18052   0.87352   0.45234   0.00000  Uiso   1.00
C572   C     0.18176   0.79378   0.04784   0.00000  Uiso   1.00
C573   C     0.15463   0.87308   0.09338   0.00000  Uiso   1.00
C574   C     0.15639   0.79287   0.40657   0.00000  Uiso   1.00
C575   C     0.17967   0.87365   0.40640   0.00000  Uiso   1.00
C576   C     0.24586   0.83346   0.25054   0.00000  Uiso   1.00
C577   C     0.18080   0.79362   0.09376   0.00000  Uiso   1.00
C578   C     0.16734   0.83331   0.11675   0.00000  Uiso   1.00
C579   C     0.16761   0.83332   0.38329   0.00000  Uiso   1.00
C580   C     0.16873   0.83342   0.02432   0.00000  Uiso   1.00
C581   C     0.16884   0.83324   0.47575   0.00000  Uiso   1.00
C582   C     0.29032   0.83386   0.25184   0.00000  Uiso   1.00
C583   C     0.04244   0.83340   0.25201   0.00000  Uiso   1.00
C584   C     0.04642   0.72698   0.22338   0.00000  Uiso   1.00
C585   C     0.00797   0.70610   0.20192   0.00000  Uiso   1.00
C586   C     0.01917   0.68161   0.15871   0.00000  Uiso   1.00
C587   C     0.16681   0.83332   0.16497   0.00000  Uiso   1.00
C588   C     0.28571   0.91269   0.18106   0.00000  Uiso   1.00
C589   C     0.25330   0.94862   0.16801   0.00000  Uiso   1.00
C590   C     0.24548   0.94837   0.11826   0.00000  Uiso   1.00
C591   C     0.28144   0.76682   0.32838   0.00000  Uiso   1.00
C592   C     0.28528   0.72311   0.35698   0.00000  Uiso   1.00
C593   C     0.26670   0.73056   0.40266   0.00000  Uiso   1.00
C594   C     0.04898   0.93219   0.29245   0.00000  Uiso   1.00
C595   C     0.01144   0.94997   0.31769   0.00000  Uiso   1.00
C596   C     0.02230   0.95994   0.36591   0.00000  Uiso   1.00
C597   C     0.16690   0.83334   0.33505   0.00000  Uiso   1.00
C598   C     0.14841   0.69135   0.21656   0.00000  Uiso   1.00
C599   C     0.18579   0.97529   0.28291   0.00000  Uiso   1.00
C600   C     0.18555   0.69155   0.28305   0.00000  Uiso   1.00
C601   C     0.14784   0.97512   0.21691   0.00000  Uiso   1.00
C602   C     0.02024   0.79126   0.25875   0.00000  Uiso   1.00
Cu603  Cu    0.16667   0.88022   0.25000   0.00000  Uiso   1.00
Cu604  Cu    0.16667   0.78645   0.25000   0.00000  Uiso   1.00
H605   H     0.13373   0.70987   0.18974   0.00000  Uiso   1.00
H606   H     0.14681   0.76141   0.38933   0.00000  Uiso   1.00
H607   H     0.18887   0.90510   0.38901   0.00000  Uiso   1.00
H608   H     0.19111   0.76271   0.11126   0.00000  Uiso   1.00
H609   H     0.06793   0.69775   0.22937   0.00000  Uiso   1.00
H610   H     0.06136   0.75143   0.19965   0.00000  Uiso   1.00
H611   H     0.32678   0.68057   0.22473   0.00000  Uiso   1.00
H612   H     0.31903   0.73426   0.19430   0.00000  Uiso   1.00
H613   H     0.03624   0.70583   0.13668   0.00000  Uiso   1.00
H614   H     0.32445   0.67053   0.14104   0.00000  Uiso   1.00
H615   H     0.03828   0.98364   0.16552   0.00000  Uiso   1.00
H616   H     0.20127   0.95675   0.30920   0.00000  Uiso   1.00
H617   H     0.27452   0.87745   0.17030   0.00000  Uiso   1.00
H618   H     0.31476   0.92048   0.16351   0.00000  Uiso   1.00
H619   H     0.22435   0.94014   0.18516   0.00000  Uiso   1.00
H620   H     0.26294   0.98422   0.17865   0.00000  Uiso   1.00
H621   H     0.27367   0.95808   0.10006   0.00000  Uiso   1.00
H622   H     0.22117   0.97406   0.11013   0.00000  Uiso   1.00
H623   H     0.23531   0.91308   0.10729   0.00000  Uiso   1.00
H624   H     0.24933   0.77918   0.32926   0.00000  Uiso   1.00
H625   H     0.30120   0.79463   0.34348   0.00000  Uiso   1.00
H626   H     0.26976   0.69301   0.34065   0.00000  Uiso   1.00
H627   H     0.20058   0.71024   0.30958   0.00000  Uiso   1.00
H628   H     0.31821   0.71488   0.36070   0.00000  Uiso   1.00
H629   H     0.28180   0.76049   0.41967   0.00000  Uiso   1.00
H630   H     0.27102   0.69853   0.42292   0.00000  Uiso   1.00
H631   H     0.23344   0.73759   0.39974   0.00000  Uiso   1.00
H632   H     0.07209   0.96077   0.29152   0.00000  Uiso   1.00
H633   H     0.06325   0.90285   0.31122   0.00000  Uiso   1.00
H634   H     0.33309   0.98236   0.30181   0.00000  Uiso   1.00
H635   H     0.32013   0.92318   0.31725   0.00000  Uiso   1.00
H636   H     0.03566   0.92833   0.38168   0.00000  Uiso   1.00
H637   H     0.32763   0.96939   0.38447   0.00000  Uiso   1.00
H638   H     0.13250   0.95645   0.19051   0.00000  Uiso   1.00
H639   H     0.04458   0.98929   0.36807   0.00000  Uiso   1.00
H640   H     0.14428   0.90376   0.03006   0.00000  Uiso   1.00
H641   H     0.14701   0.76164   0.46979   0.00000  Uiso   1.00
H642   H     0.19064   0.90478   0.46952   0.00000  Uiso   1.00
H643   H     0.19304   0.76309   0.03076   0.00000  Uiso   1.00
H644   H     0.14392   0.90399   0.11057   0.00000  Uiso   1.00
N645   N     0.16667   0.95069   0.25000   0.00000  Uiso   1.00
N646   N     0.16667   0.71598   0.25000   0.00000  Uiso   1.00
O647   O     0.10655   0.87291   0.24999   0.00000  Uiso   1.00
O648   O     0.29229   0.91510   0.22723   0.00000  Uiso   1.00
O649   O     0.29212   0.75550   0.28421   0.00000  Uiso   1.00
O650   O     0.03966   0.91966   0.24806   0.00000  Uiso   1.00
O651   O     0.22679   0.79375   0.25000   0.00000  Uiso   1.00
O652   O     0.22679   0.87291   0.25000   0.00000  Uiso   1.00
O653   O     0.10655   0.79375   0.24999   0.00000  Uiso   1.00
O654   O     0.16666   0.87293   0.18573   0.00000  Uiso   1.00
O655   O     0.16667   0.79374   0.31427   0.00000  Uiso   1.00
O656   O     0.16667   0.87293   0.31427   0.00000  Uiso   1.00
O657   O     0.16666   0.79374   0.18573   0.00000  Uiso   1.00
O658   O     0.03898   0.74832   0.26494   0.00000  Uiso   1.00
C659   C     0.42060   0.83329   0.25070   0.00000  Uiso   1.00
C660   C     0.64543   0.87471   0.24053   0.00000  Uiso   1.00
C661   C     0.64495   0.79355   0.26518   0.00000  Uiso   1.00
C662   C     0.35408   0.87612   0.24736   0.00000  Uiso   1.00
C663   C     0.48845   0.87305   0.04745   0.00000  Uiso   1.00
C664   C     0.49011   0.79291   0.45250   0.00000  Uiso   1.00
C665   C     0.51385   0.87352   0.45234   0.00000  Uiso   1.00
C666   C     0.51509   0.79378   0.04784   0.00000  Uiso   1.00
C667   C     0.48796   0.87308   0.09338   0.00000  Uiso   1.00
C668   C     0.48972   0.79287   0.40657   0.00000  Uiso   1.00
C669   C     0.51300   0.87365   0.40640   0.00000  Uiso   1.00
C670   C     0.57920   0.83346   0.25054   0.00000  Uiso   1.00
C671   C     0.51414   0.79362   0.09376   0.00000  Uiso   1.00
C672   C     0.50068   0.83331   0.11675   0.00000  Uiso   1.00
C673   C     0.50094   0.83332   0.38329   0.00000  Uiso   1.00
C674   C     0.50206   0.83342   0.02432   0.00000  Uiso   1.00
C675   C     0.50217   0.83324   0.47575   0.00000  Uiso   1.00
C676   C     0.62365   0.83386   0.25184   0.00000  Uiso   1.00
C677   C     0.37577   0.83340   0.25201   0.00000  Uiso   1.00
C678   C     0.37976   0.72698   0.22338   0.00000  Uiso   1.00
C679   C     0.34131   0.70610   0.20192   0.00000  Uiso   1.00
C680   C     0.35250   0.68161   0.15871   0.00000  Uiso   1.00
C681   C     0.50014   0.83332   0.16497   0.00000  Uiso   1.00
C682   C     0.61905   0.91269   0.18106   0.00000  Uiso   1.00
C683   C     0.58663   0.94862   0.16801   0.00000  Uiso   1.00
C684   C     0.57881   0.94837   0.11826   0.00000  Uiso   1.00
C685   C     0.61477   0.76682   0.32838   0.00000  Uiso   1.00
C686   C     0.61861   0.72311   0.35698   0.00000  Uiso   1.00
C687   C     0.60004   0.73056   0.40266   0.00000  Uiso   1.00
C688   C     0.38231   0.93219   0.29245   0.00000  Uiso   1.00
C689   C     0.34477   0.94997   0.31769   0.00000  Uiso   1.00
C690   C     0.35563   0.95994   0.36591   0.00000  Uiso   1.00
C691   C     0.50023   0.83334   0.33505   0.00000  Uiso   1.00
C692   C     0.48175   0.69135   0.21656   0.00000  Uiso   1.00
C693   C     0.51912   0.97529   0.28291   0.00000  Uiso   1.00
C694   C     0.51889   0.69155   0.28305   0.00000  Uiso   1.00
C695   C     0.48118   0.97512   0.21691   0.00000  Uiso   1.00
C696   C     0.35357   0.79126   0.25875   0.00000  Uiso   1.00
Cu697  Cu    0.50000   0.88022   0.25000   0.00000  Uiso   1.00
Cu698  Cu    0.50000   0.78645   0.25000   0.00000  Uiso   1.00
H699   H     0.46706   0.70987   0.18974   0.00000  Uiso   1.00
H700   H     0.48014   0.76141   0.38933   0.00000  Uiso   1.00
H701   H     0.52221   0.90510   0.38901   0.00000  Uiso   1.00
H702   H     0.52445   0.76271   0.11126   0.00000  Uiso   1.00
H703   H     0.40126   0.69775   0.22937   0.00000  Uiso   1.00
H704   H     0.39469   0.75143   0.19965   0.00000  Uiso   1.00
H705   H     0.66012   0.68057   0.22473   0.00000  Uiso   1.00
H706   H     0.65237   0.73426   0.19430   0.00000  Uiso   1.00
H707   H     0.36957   0.70583   0.13668   0.00000  Uiso   1.00
H708   H     0.65778   0.67053   0.14104   0.00000  Uiso   1.00
H709   H     0.37162   0.98364   0.16552   0.00000  Uiso   1.00
H710   H     0.53461   0.95675   0.30920   0.00000  Uiso   1.00
H711   H     0.60786   0.87745   0.17030   0.00000  Uiso   1.00
H712   H     0.64810   0.92048   0.16351   0.00000  Uiso   1.00
H713   H     0.55768   0.94014   0.18516   0.00000  Uiso   1.00
H714   H     0.59628   0.98422   0.17865   0.00000  Uiso   1.00
H715   H     0.60700   0.95808   0.10006   0.00000  Uiso   1.00
H716   H     0.55451   0.97406   0.11013   0.00000  Uiso   1.00
H717   H     0.56864   0.91308   0.10729   0.00000  Uiso   1.00
H718   H     0.58266   0.77918   0.32926   0.00000  Uiso   1.00
H719   H     0.63453   0.79463   0.34348   0.00000  Uiso   1.00
H720   H     0.60309   0.69301   0.34065   0.00000  Uiso   1.00
H721   H     0.53391   0.71024   0.30958   0.00000  Uiso   1.00
H722   H     0.65155   0.71488   0.36070   0.00000  Uiso   1.00
H723   H     0.61513   0.76049   0.41967   0.00000  Uiso   1.00
H724   H     0.60436   0.69853   0.42292   0.00000  Uiso   1.00
H725   H     0.56677   0.73759   0.39974   0.00000  Uiso   1.00
H726   H     0.40542   0.96077   0.29152   0.00000  Uiso   1.00
H727   H     0.39658   0.90285   0.31122   0.00000  Uiso   1.00
H728   H     0.66642   0.98236   0.30181   0.00000  Uiso   1.00
H729   H     0.65346   0.92318   0.31725   0.00000  Uiso   1.00
H730   H     0.36900   0.92833   0.38168   0.00000  Uiso   1.00
H731   H     0.66096   0.96939   0.38447   0.00000  Uiso   1.00
H732   H     0.46584   0.95645   0.19051   0.00000  Uiso   1.00
H733   H     0.37791   0.98929   0.36807   0.00000  Uiso   1.00
H734   H     0.47761   0.90376   0.03006   0.00000  Uiso   1.00
H735   H     0.48035   0.76164   0.46979   0.00000  Uiso   1.00
H736   H     0.52397   0.90478   0.46952   0.00000  Uiso   1.00
H737   H     0.52637   0.76309   0.03076   0.00000  Uiso   1.00
H738   H     0.47726   0.90399   0.11057   0.00000  Uiso   1.00
N739   N     0.50000   0.95069   0.25000   0.00000  Uiso   1.00
N740   N     0.50000   0.71598   0.25000   0.00000  Uiso   1.00
O741   O     0.43988   0.87291   0.24999   0.00000  Uiso   1.00
O742   O     0.62562   0.91510   0.22723   0.00000  Uiso   1.00
O743   O     0.62546   0.75550   0.28421   0.00000  Uiso   1.00
O744   O     0.37300   0.91966   0.24806   0.00000  Uiso   1.00
O745   O     0.56012   0.79375   0.25000   0.00000  Uiso   1.00
O746   O     0.56012   0.87291   0.25000   0.00000  Uiso   1.00
O747   O     0.43988   0.79375   0.24999   0.00000  Uiso   1.00
O748   O     0.50000   0.87293   0.18573   0.00000  Uiso   1.00
O749   O     0.50000   0.79374   0.31427   0.00000  Uiso   1.00
O750   O     0.50000   0.87293   0.31427   0.00000  Uiso   1.00
O751   O     0.50000   0.79374   0.18573   0.00000  Uiso   1.00
O752   O     0.37232   0.74832   0.26494   0.00000  Uiso   1.00
C753   C     0.75393   0.83329   0.25070   0.00000  Uiso   1.00
C754   C     0.97876   0.87471   0.24053   0.00000  Uiso   1.00
C755   C     0.97829   0.79355   0.26518   0.00000  Uiso   1.00
C756   C     0.68741   0.87612   0.24736   0.00000  Uiso   1.00
C757   C     0.82178   0.87305   0.04745   0.00000  Uiso   1.00
C758   C     0.82344   0.79291   0.45250   0.00000  Uiso   1.00
C759   C     0.84719   0.87352   0.45234   0.00000  Uiso   1.00
C760   C     0.84842   0.79378   0.04784   0.00000  Uiso   1.00
C761   C     0.82130   0.87308   0.09338   0.00000  Uiso   1.00
C762   C     0.82306   0.79287   0.40657   0.00000  Uiso   1.00
C763   C     0.84633   0.87365   0.40640   0.00000  Uiso   1.00
C764   C     0.91253   0.83346   0.25054   0.00000  Uiso   1.00
C765   C     0.84747   0.79362   0.09376   0.00000  Uiso   1.00
C766   C     0.83401   0.83331   0.11675   0.00000  Uiso   1.00
C767   C     0.83427   0.83332   0.38329   0.00000  Uiso   1.00
C768   C     0.83539   0.83342   0.02432   0.00000  Uiso   1.00
C769   C     0.83550   0.83324   0.47575   0.00000  Uiso   1.00
C770   C     0.95698   0.83386   0.25184   0.00000  Uiso   1.00
C771   C     0.70910   0.83340   0.25201   0.00000  Uiso   1.00
C772   C     0.71309   0.72698   0.22338   0.00000  Uiso   1.00
C773   C     0.67464   0.70610   0.20192   0.00000  Uiso   1.00
C774   C     0.68584   0.68161   0.15871   0.00000  Uiso   1.00
C775   C     0.83347   0.83332   0.16497   0.00000  Uiso   1.00
C776   C     0.95238   0.91269   0.18106   0.00000  Uiso   1.00
C777   C     0.91997   0.94862   0.16801   0.00000  Uiso   1.00
C778   C     0.91214   0.94837   0.11826   0.00000  Uiso   1.00
C779   C     0.94811   0.76682   0.32838   0.00000  Uiso   1.00
C780   C     0.95195   0.72311   0.35698   0.00000  Uiso   1.00
C781   C     0.93337   0.73056   0.40266   0.00000  Uiso   1.00
C782   C     0.71565   0.93219   0.29245   0.00000  Uiso   1.00
C783   C     0.67810   0.94997   0.31769   0.00000  Uiso   1.00
C784   C     0.68897   0.95994   0.36591   0.00000  Uiso   1.00
C785   C     0.83356   0.83334   0.33505   0.00000  Uiso   1.00
C786   C     0.81508   0.69135   0.21656   0.00000  Uiso   1.00
C787   C     0.85245   0.97529   0.28291   0.00000  Uiso   1.00
C788   C     0.85222   0.69155   0.28305   0.00000  Uiso   1.00
C789   C     0.81451   0.97512   0.21691   0.00000  Uiso   1.00
C790   C     0.68690   0.79126   0.25875   0.00000  Uiso   1.00
Cu791  Cu    0.83333   0.88022   0.25000   0.00000  Uiso   1.00
Cu792  Cu    0.83333   0.78645   0.25000   0.00000  Uiso   1.00
H793   H     0.80039   0.70987   0.18974   0.00000  Uiso   1.00
H794   H     0.81347   0.76141   0.38933   0.00000  Uiso   1.00
H795   H     0.85554   0.90510   0.38901   0.00000  Uiso   1.00
H796   H     0.85778   0.76271   0.11126   0.00000  Uiso   1.00
H797   H     0.73459   0.69775   0.22937   0.00000  Uiso   1.00
H798   H     0.72802   0.75143   0.19965   0.00000  Uiso   1.00
H799   H     0.99345   0.68057   0.22473   0.00000  Uiso   1.00
H800   H     0.98570   0.73426   0.19430   0.00000  Uiso   1.00
H801   H     0.70290   0.70583   0.13668   0.00000  Uiso   1.00
H802   H     0.99111   0.67053   0.14104   0.00000  Uiso   1.00
H803   H     0.70495   0.98364   0.16552   0.00000  Uiso   1.00
H804   H     0.86794   0.95675   0.30920   0.00000  Uiso   1.00
H805   H     0.94119   0.87745   0.17030   0.00000  Uiso   1.00
H806   H     0.98143   0.92048   0.16351   0.00000  Uiso   1.00
H807   H     0.89102   0.94014   0.18516   0.00000  Uiso   1.00
H808   H     0.92961   0.98422   0.17865   0.00000  Uiso   1.00
H809   H     0.94034   0.95808   0.10006   0.00000  Uiso   1.00
H810   H     0.88784   0.97406   0.11013   0.00000  Uiso   1.00
H811   H     0.90197   0.91308   0.10729   0.00000  Uiso   1.00
H812   H     0.91599   0.77918   0.32926   0.00000  Uiso   1.00
H813   H     0.96787   0.79463   0.34348   0.00000  Uiso   1.00
H814   H     0.93643   0.69301   0.34065   0.00000  Uiso   1.00
H815   H     0.86724   0.71024   0.30958   0.00000  Uiso   1.00
H816   H     0.98488   0.71488   0.36070   0.00000  Uiso   1.00
H817   H     0.94847   0.76049   0.41967   0.00000  Uiso   1.00
H818   H     0.93769   0.69853   0.42292   0.00000  Uiso   1.00
H819   H     0.90011   0.73759   0.39974   0.00000  Uiso   1.00
H820   H     0.73876   0.96077   0.29152   0.00000  Uiso   1.00
H821   H     0.72991   0.90285   0.31122   0.00000  Uiso   1.00
H822   H     0.99975   0.98236   0.30181   0.00000  Uiso   1.00
H823   H     0.98680   0.92318   0.31725   0.00000  Uiso   1.00
H824   H     0.70233   0.92833   0.38168   0.00000  Uiso   1.00
H825   H     0.99430   0.96939   0.38447   0.00000  Uiso   1.00
H826   H     0.79917   0.95645   0.19051   0.00000  Uiso   1.00
H827   H     0.71125   0.98929   0.36807   0.00000  Uiso   1.00
H828   H     0.81095   0.90376   0.03006   0.00000  Uiso   1.00
H829   H     0.81368   0.76164   0.46979   0.00000  Uiso   1.00
H830   H     0.85730   0.90478   0.46952   0.00000  Uiso   1.00
H831   H     0.85971   0.76309   0.03076   0.00000  Uiso   1.00
H832   H     0.81059   0.90399   0.11057   0.00000  Uiso   1.00
N833   N     0.83333   0.95069   0.25000   0.00000  Uiso   1.00
N834   N     0.83333   0.71598   0.25000   0.00000  Uiso   1.00
O835   O     0.77321   0.87291   0.24999   0.00000  Uiso   1.00
O836   O     0.95896   0.91510   0.22723   0.00000  Uiso   1.00
O837   O     0.95879   0.75550   0.28421   0.00000  Uiso   1.00
O838   O     0.70633   0.91966   0.24806   0.00000  Uiso   1.00
O839   O     0.89345   0.79375   0.25000   0.00000  Uiso   1.00
O840   O     0.89345   0.87291   0.25000   0.00000  Uiso   1.00
O841   O     0.77321   0.79375   0.24999   0.00000  Uiso   1.00
O842   O     0.83333   0.87293   0.18573   0.00000  Uiso   1.00
O843   O     0.83334   0.79374   0.31427   0.00000  Uiso   1.00
O844   O     0.83334   0.87293   0.31427   0.00000  Uiso   1.00
O845   O     0.83333   0.79374   0.18573   0.00000  Uiso   1.00
O846   O     0.70565   0.74832   0.26494   0.00000  Uiso   1.00
C847   C     0.08726   0.16662   0.75070   0.00000  Uiso   1.00
C848   C     0.31210   0.20804   0.74053   0.00000  Uiso   1.00
C849   C     0.31162   0.12689   0.76518   0.00000  Uiso   1.00
C850   C     0.02075   0.20945   0.74736   0.00000  Uiso   1.00
C851   C     0.15512   0.20639   0.54745   0.00000  Uiso   1.00
C852   C     0.15678   0.12624   0.95250   0.00000  Uiso   1.00
C853   C     0.18052   0.20686   0.95234   0.00000  Uiso   1.00
C854   C     0.18176   0.12712   0.54784   0.00000  Uiso   1.00
C855   C     0.15463   0.20641   0.59338   0.00000  Uiso   1.00
C856   C     0.15639   0.12620   0.90657   0.00000  Uiso   1.00
C857   C     0.17967   0.20699   0.90640   0.00000  Uiso   1.00
C858   C     0.24586   0.16680   0.75054   0.00000  Uiso   1.00
C859   C     0.18080   0.12695   0.59376   0.00000  Uiso   1.00
C860   C     0.16734   0.16664   0.61675   0.00000  Uiso   1.00
C861   C     0.16761   0.16665   0.88329   0.00000  Uiso   1.00
C862   C     0.16873   0.16675   0.52432   0.00000  Uiso   1.00
C863   C     0.16884   0.16657   0.97575   0.00000  Uiso   1.00
C864   C     0.29032   0.16719   0.75184   0.00000  Uiso   1.00
C865   C     0.04244   0.16673   0.75201   0.00000  Uiso   1.00
C866   C     0.04642   0.06032   0.72338   0.00000  Uiso   1.00
C867   C     0.00797   0.03944   0.70192   0.00000  Uiso   1.00
C868   C     0.01917   0.01494   0.65871   0.00000  Uiso   1.00
C869   C     0.16681   0.16666   0.66497   0.00000  Uiso   1.00
C870   C     0.28571   0.24602   0.68106   0.00000  Uiso   1.00
C871   C     0.25330   0.28195   0.66801   0.00000  Uiso   1.00
C872   C     0.24548   0.28171   0.61826   0.00000  Uiso   1.00
C873   C     0.28144   0.10015   0.82838   0.00000  Uiso   1.00
C874   C     0.28528   0.05645   0.85698   0.00000  Uiso   1.00
C875   C     0.26670   0.06390   0.90266   0.00000  Uiso   1.00
C876   C     0.04898   0.26552   0.79245   0.00000  Uiso   1.00
C877   C     0.01144   0.28330   0.81769   0.00000  Uiso   1.00
C878   C     0.02230   0.29327   0.86591   0.00000  Uiso   1.00
C879   C     0.16690   0.16668   0.83505   0.00000  Uiso   1.00
C880   C     0.14841   0.02468   0.71656   0.00000  Uiso   1.00
C881   C     0.18579   0.30863   0.78291   0.00000  Uiso   1.00
C882   C     0.18555   0.02488   0.78305   0.00000  Uiso   1.00
C883   C     0.14784   0.30845   0.71691   0.00000  Uiso   1.00
C884   C     0.02024   0.12459   0.75875   0.00000  Uiso   1.00
Cu885  Cu    0.16667   0.21355   0.75000   0.00000  Uiso   1.00
Cu886  Cu    0.16667   0.11978   0.75000   0.00000  Uiso   1.00
H887   H     0.13373   0.04320   0.68974   0.00000  Uiso   1.00
H888   H     0.14681   0.09474   0.88933   0.00000  Uiso   1.00
H889   H     0.18887   0.23844   0.88901   0.00000  Uiso   1.00
H890   H     0.19111   0.09604   0.61126   0.00000  Uiso   1.00
H891   H     0.06793   0.03109   0.72937   0.00000  Uiso   1.00
H892   H     0.06136   0.08476   0.69965   0.00000  Uiso   1.00
H893   H     0.32678   0.01391   0.72473   0.00000  Uiso   1.00
H894   H     0.31903   0.06759   0.69430   0.00000  Uiso   1.00
H895   H     0.03624   0.03916   0.63668   0.00000  Uiso   1.00
H896   H     0.32445   0.00386   0.64104   0.00000  Uiso   1.00
H897   H     0.03828   0.31697   0.66552   0.00000  Uiso   1.00
H898   H     0.20127   0.29009   0.80920   0.00000  Uiso   1.00
H899   H     0.27452   0.21079   0.67030   0.00000  Uiso   1.00
H900   H     0.31476   0.25381   0.66351   0.00000  Uiso   1.00
H901   H     0.22435   0.27347   0.68516   0.00000  Uiso   1.00
H902   H     0.26294   0.31755   0.67865   0.00000  Uiso   1.00
H903   H     0.27367   0.29141   0.60006   0.00000  Uiso   1.00
H904   H     0.22117   0.30739   0.61013   0.00000  Uiso   1.00
H905   H     0.23531   0.24641   0.60729   0.00000  Uiso   1.00
H906   H     0.24933   0.11252   0.82926   0.00000  Uiso   1.00
H907   H     0.30120   0.12797   0.84348   0.00000  Uiso   1.00
H908   H     0.26976   0.02635   0.84065   0.00000  Uiso   1.00
H909   H     0.20058   0.04358   0.80958   0.00000  Uiso   1.00
H910   H     0.31821   0.04821   0.86070   0.00000  Uiso   1.00
H911   H     0.28180   0.09383   0.91967   0.00000  Uiso   1.00
H912   H     0.27102   0.03186   0.92292   0.00000  Uiso   1.00
H913   H     0.23344   0.07093   0.89974   0.00000  Uiso   1.00
H914   H     0.07209   0.29411   0.79152   0.00000  Uiso   1.00
H915   H     0.06325   0.23619   0.81122   0.00000  Uiso   1.00
H916   H     0.33309   0.31570   0.80181   0.00000  Uiso   1.00
H917   H     0.32013   0.25651   0.81725   0.00000  Uiso   1.00
H918   H     0.03566   0.26167   0.88168   0.00000  Uiso   1.00
H919   H     0.32763   0.30272   0.88447   0.00000  Uiso   1.00
H920   H     0.13250   0.28978   0.69051   0.00000  Uiso   1.00
H921   H     0.04458   0.32263   0.86807   0.00000  Uiso   1.00
H922   H     0.14428   0.23710   0.53006   0.00000  Uiso   1.00
H923   H     0.14701   0.09497   0.96979   0.00000  Uiso   1.00
H924   H     0.19064   0.23812   0.96952   0.00000  Uiso   1.00
H925   H     0.19304   0.09642   0.53076   0.00000  Uiso   1.00
H926   H     0.14392   0.23733   0.61057   0.00000  Uiso   1.00
N927   N     0.16667   0.28402   0.75000   0.00000  Uiso   1.00
N928   N     0.16667   0.04931   0.75000   0.00000  Uiso   1.00
O929   O     0.10655   0.20625   0.74999   0.00000  Uiso   1.00
O930   O     0.29229   0.24843   0.72723   0.00000  Uiso   1.00
O931   O     0.29212   0.08884   0.78421   0.00000  Uiso   1.00
O932   O     0.03966   0.25299   0.74806   0.00000  Uiso   1.00
O933   O     0.22679   0.12709   0.75000   0.00000  Uiso   1.00
O934   O     0.22679   0.20625   0.75000   0.00000  Uiso   1.00
O935   O     0.10655   0.12709   0.74999   0.00000  Uiso   1.00
O936   O     0.16666   0.20626   0.68573   0.00000  Uiso   1.00
O937   O     0.16667   0.12707   0.81427   0.00000  Uiso   1.00
O938   O     0.16667   0.20626   0.81427   0.00000  Uiso   1.00
O939   O     0.16666   0.12707   0.68573   0.00000  Uiso   1.00
O940   O     0.03898   0.08166   0.76494   0.00000  Uiso   1.00
C941   C     0.42060   0.16662   0.75070   0.00000  Uiso   1.00
C942   C     0.64543   0.20804   0.74053   0.00000  Uiso   1.00
C943   C     0.64495   0.12689   0.76518   0.00000  Uiso   1.00
C944   C     0.35408   0.20945   0.74736   0.00000  Uiso   1.00
C945   C     0.48845   0.20639   0.54745   0.00000  Uiso   1.00
C946   C     0.49011   0.12624   0.95250   0.00000  Uiso   1.00
C947   C     0.51385   0.20686   0.95234   0.00000  Uiso   1.00
C948   C     0.51509   0.12712   0.54784   0.00000  Uiso   1.00
C949   C     0.48796   0.20641   0.59338   0.00000  Uiso   1.00
C950   C     0.48972   0.12620   0.90657   0.00000  Uiso   1.00
C951   C     0.51300   0.20699   0.90640   0.00000  Uiso   1.00
C952   C     0.57920   0.16680   0.75054   0.00000  Uiso   1.00
C953   C     0.51414   0.12695   0.59376   0.00000  Uiso   1.00
C954   C     0.50068   0.16664   0.61675   0.00000  Uiso   1.00
C955   C     0.50094   0.16665   0.88329   0.00000  Uiso   1.00
C956   C     0.50206   0.16675   0.52432   0.00000  Uiso   1.00
C957   C     0.50217   0.16657   0.97575   0.00000  Uiso   1.00
C958   C     0.62365   0.16719   0.75184   0.00000  Uiso   1.00
C959   C     0.37577   0.16673   0.75201   0.00000  Uiso   1.00
C960   C     0.37976   0.06032   0.72338   0.00000  Uiso   1.00
C961   C     0.34131   0.03944   0.70192   0.00000  Uiso   1.00
C962   C     0.35250   0.01494   0.65871   0.00000  Uiso   1.00
C963   C     0.50014   0.16666   0.66497   0.00000  Uiso   1.00
C964   C     0.61905   0.24602   0.68106   0.00000  Uiso   1.00
C965   C     0.58663   0.28195   0.66801   0.00000  Uiso   1.00
C966   C     0.57881   0.28171   0.61826   0.00000  Uiso   1.00
C967   C     0.61477   0.10015   0.82838   0.00000  Uiso   1.00
C968   C     0.61861   0.05645   0.85698   0.00000  Uiso   1.00
C969   C     0.60004   0.06390   0.90266   0.00000  Uiso   1.00
C970   C     0.38231   0.26552   0.79245   0.00000  Uiso   1.00
C971   C     0.34477   0.28330   0.81769   0.00000  Uiso   1.00
C972   C     0.35563   0.29327   0.86591   0.00000  Uiso   1.00
C973   C     0.50023   0.16668   0.83505   0.00000  Uiso   1.00
C974   C     0.48175   0.02468   0.71656   0.00000  Uiso   1.00
C975   C     0.51912   0.30863   0.78291   0.00000  Uiso   1.00
C976   C     0.51889   0.02488   0.78305   0.00000  Uiso   1.00
C977   C     0.48118   0.30845   0.71691   0.00000  Uiso   1.00
C978   C     0.35357   0.12459   0.75875   0.00000  Uiso   1.00
Cu979  Cu    0.50000   0.21355   0.75000   0.00000  Uiso   1.00
Cu980  Cu    0.50000   0.11978   0.75000   0.00000  Uiso   1.00
H981   H     0.46706   0.04320   0.68974   0.00000  Uiso   1.00
H982   H     0.48014   0.09474   0.88933   0.00000  Uiso   1.00
H983   H     0.52221   0.23844   0.88901   0.00000  Uiso   1.00
H984   H     0.52445   0.09604   0.61126   0.00000  Uiso   1.00
H985   H     0.40126   0.03109   0.72937   0.00000  Uiso   1.00
H986   H     0.39469   0.08476   0.69965   0.00000  Uiso   1.00
H987   H     0.66012   0.01391   0.72473   0.00000  Uiso   1.00
H988   H     0.65237   0.06759   0.69430   0.00000  Uiso   1.00
H989   H     0.36957   0.03916   0.63668   0.00000  Uiso   1.00
H990   H     0.65778   0.00386   0.64104   0.00000  Uiso   1.00
H991   H     0.37162   0.31697   0.66552   0.00000  Uiso   1.00
H992   H     0.53461   0.29009   0.80920   0.00000  Uiso   1.00
H993   H     0.60786   0.21079   0.67030   0.00000  Uiso   1.00
H994   H     0.64810   0.25381   0.66351   0.00000  Uiso   1.00
H995   H     0.55768   0.27347   0.68516   0.00000  Uiso   1.00
H996   H     0.59628   0.31755   0.67865   0.00000  Uiso   1.00
H997   H     0.60700   0.29141   0.60006   0.00000  Uiso   1.00
H998   H     0.55451   0.30739   0.61013   0.00000  Uiso   1.00
H999   H     0.56864   0.24641   0.60729   0.00000  Uiso   1.00
H1000  H     0.58266   0.11252   0.82926   0.00000  Uiso   1.00
H1001  H     0.63453   0.12797   0.84348   0.00000  Uiso   1.00
H1002  H     0.60309   0.02635   0.84065   0.00000  Uiso   1.00
H1003  H     0.53391   0.04358   0.80958   0.00000  Uiso   1.00
H1004  H     0.65155   0.04821   0.86070   0.00000  Uiso   1.00
H1005  H     0.61513   0.09383   0.91967   0.00000  Uiso   1.00
H1006  H     0.60436   0.03186   0.92292   0.00000  Uiso   1.00
H1007  H     0.56677   0.07093   0.89974   0.00000  Uiso   1.00
H1008  H     0.40542   0.29411   0.79152   0.00000  Uiso   1.00
H1009  H     0.39658   0.23619   0.81122   0.00000  Uiso   1.00
H1010  H     0.66642   0.31570   0.80181   0.00000  Uiso   1.00
H1011  H     0.65346   0.25651   0.81725   0.00000  Uiso   1.00
H1012  H     0.36900   0.26167   0.88168   0.00000  Uiso   1.00
H1013  H     0.66096   0.30272   0.88447   0.00000  Uiso   1.00
H1014  H     0.46584   0.28978   0.69051   0.00000  Uiso   1.00
H1015  H     0.37791   0.32263   0.86807   0.00000  Uiso   1.00
H1016  H     0.47761   0.23710   0.53006   0.00000  Uiso   1.00
H1017  H     0.48035   0.09497   0.96979   0.00000  Uiso   1.00
H1018  H     0.52397   0.23812   0.96952   0.00000  Uiso   1.00
H1019  H     0.52637   0.09642   0.53076   0.00000  Uiso   1.00
H1020  H     0.47726   0.23733   0.61057   0.00000  Uiso   1.00
N1021  N     0.50000   0.28402   0.75000   0.00000  Uiso   1.00
N1022  N     0.50000   0.04931   0.75000   0.00000  Uiso   1.00
O1023  O     0.43988   0.20625   0.74999   0.00000  Uiso   1.00
O1024  O     0.62562   0.24843   0.72723   0.00000  Uiso   1.00
O1025  O     0.62546   0.08884   0.78421   0.00000  Uiso   1.00
O1026  O     0.37300   0.25299   0.74806   0.00000  Uiso   1.00
O1027  O     0.56012   0.12709   0.75000   0.00000  Uiso   1.00
O1028  O     0.56012   0.20625   0.75000   0.00000  Uiso   1.00
O1029  O     0.43988   0.12709   0.74999   0.00000  Uiso   1.00
O1030  O     0.50000   0.20626   0.68573   0.00000  Uiso   1.00
O1031  O     0.50000   0.12707   0.81427   0.00000  Uiso   1.00
O1032  O     0.50000   0.20626   0.81427   0.00000  Uiso   1.00
O1033  O     0.50000   0.12707   0.68573   0.00000  Uiso   1.00
O1034  O     0.37232   0.08166   0.76494   0.00000  Uiso   1.00
C1035  C     0.75393   0.16662   0.75070   0.00000  Uiso   1.00
C1036  C     0.97876   0.20804   0.74053   0.00000  Uiso   1.00
C1037  C     0.97829   0.12689   0.76518   0.00000  Uiso   1.00
C1038  C     0.68741   0.20945   0.74736   0.00000  Uiso   1.00
C1039  C     0.82178   0.20639   0.54745   0.00000  Uiso   1.00
C1040  C     0.82344   0.12624   0.95250   0.00000  Uiso   1.00
C1041  C     0.84719   0.20686   0.95234   0.00000  Uiso   1.00
C1042  C     0.84842   0.12712   0.54784   0.00000  Uiso   1.00
C1043  C     0.82130   0.20641   0.59338   0.00000  Uiso   1.00
C1044  C     0.82306   0.12620   0.90657   0.00000  Uiso   1.00
C1045  C     0.84633   0.20699   0.90640   0.00000  Uiso   1.00
C1046  C     0.91253   0.16680   0.75054   0.00000  Uiso   1.00
C1047  C     0.84747   0.12695   0.59376   0.00000  Uiso   1.00
C1048  C     0.83401   0.16664   0.61675   0.00000  Uiso   1.00
C1049  C     0.83427   0.16665   0.88329   0.00000  Uiso   1.00
C1050  C     0.83539   0.16675   0.52432   0.00000  Uiso   1.00
C1051  C     0.83550   0.16657   0.97575   0.00000  Uiso   1.00
C1052  C     0.95698   0.16719   0.75184   0.00000  Uiso   1.00
C1053  C     0.70910   0.16673   0.75201   0.00000  Uiso   1.00
C1054  C     0.71309   0.06032   0.72338   0.00000  Uiso   1.00
C1055  C     0.67464   0.03944   0.70192   0.00000  Uiso   1.00
C1056  C     0.68584   0.01494   0.65871   0.00000  Uiso   1.00
C1057  C     0.83347   0.16666   0.66497   0.00000  Uiso   1.00
C1058  C     0.95238   0.24602   0.68106   0.00000  Uiso   1.00
C1059  C     0.91997   0.28195   0.66801   0.00000  Uiso   1.00
C1060  C     0.91214   0.28171   0.61826   0.00000  Uiso   1.00
C1061  C     0.94811   0.10015   0.82838   0.00000  Uiso   1.00
C1062  C     0.95195   0.05645   0.85698   0.00000  Uiso   1.00
C1063  C     0.93337   0.06390   0.90266   0.00000  Uiso   1.00
C1064  C     0.71565   0.26552   0.79245   0.00000  Uiso   1.00
C1065  C     0.67810   0.28330   0.81769   0.00000  Uiso   1.00
C1066  C     0.68897   0.29327   0.86591   0.00000  Uiso   1.00
C1067  C     0.83356   0.16668   0.83505   0.00000  Uiso   1.00
C1068  C     0.81508   0.02468   0.71656   0.00000  Uiso   1.00
C1069  C     0.85245   0.30863   0.78291   0.00000  Uiso   1.00
C1070  C     0.85222   0.02488   0.78305   0.00000  Uiso   1.00
C1071  C     0.81451   0.30845   0.71691   0.00000  Uiso   1.00
C1072  C     0.68690   0.12459   0.75875   0.00000  Uiso   1.00
Cu1073 Cu    0.83333   0.21355   0.75000   0.00000  Uiso   1.00
Cu1074 Cu    0.83333   0.11978   0.75000   0.00000  Uiso   1.00
H1075  H     0.80039   0.04320   0.68974   0.00000  Uiso   1.00
H1076  H     0.81347   0.09474   0.88933   0.00000  Uiso   1.00
H1077  H     0.85554   0.23844   0.88901   0.00000  Uiso   1.00
H1078  H     0.85778   0.09604   0.61126   0.00000  Uiso   1.00
H1079  H     0.73459   0.03109   0.72937   0.00000  Uiso   1.00
H1080  H     0.72802   0.08476   0.69965   0.00000  Uiso   1.00
H1081  H     0.99345   0.01391   0.72473   0.00000  Uiso   1.00
H1082  H     0.98570   0.06759   0.69430   0.00000  Uiso   1.00
H1083  H     0.70290   0.03916   0.63668   0.00000  Uiso   1.00
H1084  H     0.99111   0.00386   0.64104   0.00000  Uiso   1.00
H1085  H     0.70495   0.31697   0.66552   0.00000  Uiso   1.00
H1086  H     0.86794   0.29009   0.80920   0.00000  Uiso   1.00
H1087  H     0.94119   0.21079   0.67030   0.00000  Uiso   1.00
H1088  H     0.98143   0.25381   0.66351   0.00000  Uiso   1.00
H1089  H     0.89102   0.27347   0.68516   0.00000  Uiso   1.00
H1090  H     0.92961   0.31755   0.67865   0.00000  Uiso   1.00
H1091  H     0.94034   0.29141   0.60006   0.00000  Uiso   1.00
H1092  H     0.88784   0.30739   0.61013   0.00000  Uiso   1.00
H1093  H     0.90197   0.24641   0.60729   0.00000  Uiso   1.00
H1094  H     0.91599   0.11252   0.82926   0.00000  Uiso   1.00
H1095  H     0.96787   0.12797   0.84348   0.00000  Uiso   1.00
H1096  H     0.93643   0.02635   0.84065   0.00000  Uiso   1.00
H1097  H     0.86724   0.04358   0.80958   0.00000  Uiso   1.00
H1098  H     0.98488   0.04821   0.86070   0.00000  Uiso   1.00
H1099  H     0.94847   0.09383   0.91967   0.00000  Uiso   1.00
H1100  H     0.93769   0.03186   0.92292   0.00000  Uiso   1.00
H1101  H     0.90011   0.07093   0.89974   0.00000  Uiso   1.00
H1102  H     0.73876   0.29411   0.79152   0.00000  Uiso   1.00
H1103  H     0.72991   0.23619   0.81122   0.00000  Uiso   1.00
H1104  H     0.99975   0.31570   0.80181   0.00000  Uiso   1.00
H1105  H     0.98680   0.25651   0.81725   0.00000  Uiso   1.00
H1106  H     0.70233   0.26167   0.88168   0.00000  Uiso   1.00
H1107  H     0.99430   0.30272   0.88447   0.00000  Uiso   1.00
H1108  H     0.79917   0.28978   0.69051   0.00000  Uiso   1.00
H1109  H     0.71125   0.32263   0.86807   0.00000  Uiso   1.00
H1110  H     0.81095   0.23710   0.53006   0.00000  Uiso   1.00
H1111  H     0.81368   0.09497   0.96979   0.00000  Uiso   1.00
H1112  H     0.85730   0.23812   0.96952   0.00000  Uiso   1.00
H1113  H     0.85971   0.09642   0.53076   0.00000  Uiso   1.00
H1114  H     0.81059   0.23733   0.61057   0.00000  Uiso   1.00
N1115  N     0.83333   0.28402   0.75000   0.00000  Uiso   1.00
N1116  N     0.83333   0.04931   0.75000   0.00000  Uiso   1.00
O1117  O     0.77321   0.20625   0.74999   0.00000  Uiso   1.00
O1118  O     0.95896   0.24843   0.72723   0.00000  Uiso   1.00
O1119  O     0.95879   0.08884   0.78421   0.00000  Uiso   1.00
O1120  O     0.70633   0.25299   0.74806   0.00000  Uiso   1.00
O1121  O     0.89345   0.12709   0.75000   0.00000  Uiso   1.00
O1122  O     0.89345   0.20625   0.75000   0.00000  Uiso   1.00
O1123  O     0.77321   0.12709   0.74999   0.00000  Uiso   1.00
O1124  O     0.83333   0.20626   0.68573   0.00000  Uiso   1.00
O1125  O     0.83334   0.12707   0.81427   0.00000  Uiso   1.00
O1126  O     0.83334   0.20626   0.81427   0.00000  Uiso   1.00
O1127  O     0.83333   0.12707   0.68573   0.00000  Uiso   1.00
O1128  O     0.70565   0.08166   0.76494   0.00000  Uiso   1.00
C1129  C     0.08726   0.49995   0.75070   0.00000  Uiso   1.00
C1130  C     0.31210   0.54138   0.74053   0.00000  Uiso   1.00
C1131  C     0.31162   0.46022   0.76518   0.00000  Uiso   1.00
C1132  C     0.02075   0.54279   0.74736   0.00000  Uiso   1.00
C1133  C     0.15512   0.53972   0.54745   0.00000  Uiso   1.00
C1134  C     0.15678   0.45957   0.95250   0.00000  Uiso   1.00
C1135  C     0.18052   0.54019   0.95234   0.00000  Uiso   1.00
C1136  C     0.18176   0.46045   0.54784   0.00000  Uiso   1.00
C1137  C     0.15463   0.53975   0.59338   0.00000  Uiso   1.00
C1138  C     0.15639   0.45954   0.90657   0.00000  Uiso   1.00
C1139  C     0.17967   0.54032   0.90640   0.00000  Uiso   1.00
C1140  C     0.24586   0.50013   0.75054   0.00000  Uiso   1.00
C1141  C     0.18080   0.46028   0.59376   0.00000  Uiso   1.00
C1142  C     0.16734   0.49998   0.61675   0.00000  Uiso   1.00
C1143  C     0.16761   0.49999   0.88329   0.00000  Uiso   1.00
C1144  C     0.16873   0.50009   0.52432   0.00000  Uiso   1.00
C1145  C     0.16884   0.49990   0.97575   0.00000  Uiso   1.00
C1146  C     0.29032   0.50052   0.75184   0.00000  Uiso   1.00
C1147  C     0.04244   0.50006   0.75201   0.00000  Uiso   1.00
C1148  C     0.04642   0.39365   0.72338   0.00000  Uiso   1.00
C1149  C     0.00797   0.37277   0.70192   0.00000  Uiso   1.00
C1150  C     0.01917   0.34828   0.65871   0.00000  Uiso   1.00
C1151  C     0.16681   0.49999   0.66497   0.00000  Uiso   1.00
C1152  C     0.28571   0.57935   0.68106   0.00000  Uiso   1.00
C1153  C     0.25330   0.61529   0.66801   0.00000  Uiso   1.00
C1154  C     0.24548   0.61504   0.61826   0.00000  Uiso   1.00
C1155  C     0.28144   0.43348   0.82838   0.00000  Uiso   1.00
C1156  C     0.28528   0.38978   0.85698   0.00000  Uiso   1.00
C1157  C     0.26670   0.39723   0.90266   0.00000  Uiso   1.00
C1158  C     0.04898   0.59886   0.79245   0.00000  Uiso   1.00
C1159  C     0.01144   0.61663   0.81769   0.00000  Uiso   1.00
C1160  C     0.02230   0.62661   0.86591   0.00000  Uiso   1.00
C1161  C     0.16690   0.50001   0.83505   0.00000  Uiso   1.00
C1162  C     0.14841   0.35802   0.71656   0.00000  Uiso   1.00
C1163  C     0.18579   0.64196   0.78291   0.00000  Uiso   1.00
C1164  C     0.18555   0.35821   0.78305   0.00000  Uiso   1.00
C1165  C     0.14784   0.64178   0.71691   0.00000  Uiso   1.00
C1166  C     0.02024   0.45792   0.75875   0.00000  Uiso   1.00
Cu1167 Cu    0.16667   0.54689   0.75000   0.00000  Uiso   1.00
Cu1168 Cu    0.16667   0.45311   0.75000   0.00000  Uiso   1.00
H1169  H     0.13373   0.37654   0.68974   0.00000  Uiso   1.00
H1170  H     0.14681   0.42808   0.88933   0.00000  Uiso   1.00
H1171  H     0.18887   0.57177   0.88901   0.00000  Uiso   1.00
H1172  H     0.19111   0.42938   0.61126   0.00000  Uiso   1.00
H1173  H     0.06793   0.36442   0.72937   0.00000  Uiso   1.00
H1174  H     0.06136   0.41810   0.69965   0.00000  Uiso   1.00
H1175  H     0.32678   0.34724   0.72473   0.00000  Uiso   1.00
H1176  H     0.31903   0.40092   0.69430   0.00000  Uiso   1.00
H1177  H     0.03624   0.37249   0.63668   0.00000  Uiso   1.00
H1178  H     0.32445   0.33720   0.64104   0.00000  Uiso   1.00
H1179  H     0.03828   0.65031   0.66552   0.00000  Uiso   1.00
H1180  H     0.20127   0.62342   0.80920   0.00000  Uiso   1.00
H1181  H     0.27452   0.54412   0.67030   0.00000  Uiso   1.00
H1182  H     0.31476   0.58714   0.66351   0.00000  Uiso   1.00
H1183  H     0.22435   0.60681   0.68516   0.00000  Uiso   1.00
H1184  H     0.26294   0.65089   0.67865   0.00000  Uiso   1.00
H1185  H     0.27367   0.62475   0.60006   0.00000  Uiso   1.00
H1186  H     0.22117   0.64073   0.61013   0.00000  Uiso   1.00
H1187  H     0.23531   0.57974   0.60729   0.00000  Uiso   1.00
H1188  H     0.24933   0.44585   0.82926   0.00000  Uiso   1.00
H1189  H     0.30120   0.46130   0.84348   0.00000  Uiso   1.00
H1190  H     0.26976   0.35968   0.84065   0.00000  Uiso   1.00
H1191  H     0.20058   0.37691   0.80958   0.00000  Uiso   1.00
H1192  H     0.31821   0.38155   0.86070   0.00000  Uiso   1.00
H1193  H     0.28180   0.42716   0.91967   0.00000  Uiso   1.00
H1194  H     0.27102   0.36520   0.92292   0.00000  Uiso   1.00
H1195  H     0.23344   0.40426   0.89974   0.00000  Uiso   1.00
H1196  H     0.07209   0.62744   0.79152   0.00000  Uiso   1.00
H1197  H     0.06325   0.56952   0.81122   0.00000  Uiso   1.00
H1198  H     0.33309   0.64903   0.80181   0.00000  Uiso   1.00
H1199  H     0.32013   0.58985   0.81725   0.00000  Uiso   1.00
H1200  H     0.03566   0.59500   0.88168   0.00000  Uiso   1.00
H1201  H     0.32763   0.63605   0.88447   0.00000  Uiso   1.00
H1202  H     0.13250   0.62312   0.69051   0.00000  Uiso   1.00
H1203  H     0.04458   0.65596   0.86807   0.00000  Uiso   1.00
H1204  H     0.14428   0.57043   0.53006   0.00000  Uiso   1.00
H1205  H     0.14701   0.42830   0.96979   0.00000  Uiso   1.00
H1206  H     0.19064   0.57145   0.96952   0.00000  Uiso   1.00
H1207  H     0.19304   0.42976   0.53076   0.00000  Uiso   1.00
H1208  H     0.14392   0.57066   0.61057   0.00000  Uiso   1.00
N1209  N     0.16667   0.61736   0.75000   0.00000  Uiso   1.00
N1210  N     0.16667   0.38264   0.75000   0.00000  Uiso   1.00
O1211  O     0.10655   0.53958   0.74999   0.00000  Uiso   1.00
O1212  O     0.29229   0.58177   0.72723   0.00000  Uiso   1.00
O1213  O     0.29212   0.42217   0.78421   0.00000  Uiso   1.00
O1214  O     0.03966   0.58633   0.74806   0.00000  Uiso   1.00
O1215  O     0.22679   0.46042   0.75000   0.00000  Uiso   1.00
O1216  O     0.22679   0.53958   0.75000   0.00000  Uiso   1.00
O1217  O     0.10655   0.46042   0.74999   0.00000  Uiso   1.00
O1218  O     0.16666   0.53959   0.68573   0.00000  Uiso   1.00
O1219  O     0.16667   0.46041   0.81427   0.00000  Uiso   1.00
O1220  O     0.16667   0.53959   0.81427   0.00000  Uiso   1.00
O1221  O     0.16666   0.46041   0.68573   0.00000  Uiso   1.00
O1222  O     0.03898   0.41499   0.76494   0.00000  Uiso   1.00
C1223  C     0.42060   0.49995   0.75070   0.00000  Uiso   1.00
C1224  C     0.64543   0.54138   0.74053   0.00000  Uiso   1.00
C1225  C     0.64495   0.46022   0.76518   0.00000  Uiso   1.00
C1226  C     0.35408   0.54279   0.74736   0.00000  Uiso   1.00
C1227  C     0.48845   0.53972   0.54745   0.00000  Uiso   1.00
C1228  C     0.49011   0.45957   0.95250   0.00000  Uiso   1.00
C1229  C     0.51385   0.54019   0.95234   0.00000  Uiso   1.00
C1230  C     0.51509   0.46045   0.54784   0.00000  Uiso   1.00
C1231  C     0.48796   0.53975   0.59338   0.00000  Uiso   1.00
C1232  C     0.48972   0.45954   0.90657   0.00000  Uiso   1.00
C1233  C     0.51300   0.54032   0.90640   0.00000  Uiso   1.00
C1234  C     0.57920   0.50013   0.75054   0.00000  Uiso   1.00
C1235  C     0.51414   0.46028   0.59376   0.00000  Uiso   1.00
C1236  C     0.50068   0.49998   0.61675   0.00000  Uiso   1.00
C1237  C     0.50094   0.49999   0.88329   0.00000  Uiso   1.00
C1238  C     0.50206   0.50009   0.52432   0.00000  Uiso   1.00
C1239  C     0.50217   0.49990   0.97575   0.00000  Uiso   1.00
C1240  C     0.62365   0.50052   0.75184   0.00000  Uiso   1.00
C1241  C     0.37577   0.50006   0.75201   0.00000  Uiso   1.00
C1242  C     0.37976   0.39365   0.72338   0.00000  Uiso   1.00
C1243  C     0.34131   0.37277   0.70192   0.00000  Uiso   1.00
C1244  C     0.35250   0.34828   0.65871   0.00000  Uiso   1.00
C1245  C     0.50014   0.49999   0.66497   0.00000  Uiso   1.00
C1246  C     0.61905   0.57935   0.68106   0.00000  Uiso   1.00
C1247  C     0.58663   0.61529   0.66801   0.00000  Uiso   1.00
C1248  C     0.57881   0.61504   0.61826   0.00000  Uiso   1.00
C1249  C     0.61477   0.43348   0.82838   0.00000  Uiso   1.00
C1250  C     0.61861   0.38978   0.85698   0.00000  Uiso   1.00
C1251  C     0.60004   0.39723   0.90266   0.00000  Uiso   1.00
C1252  C     0.38231   0.59886   0.79245   0.00000  Uiso   1.00
C1253  C     0.34477   0.61663   0.81769   0.00000  Uiso   1.00
C1254  C     0.35563   0.62661   0.86591   0.00000  Uiso   1.00
C1255  C     0.50023   0.50001   0.83505   0.00000  Uiso   1.00
C1256  C     0.48175   0.35802   0.71656   0.00000  Uiso   1.00
C1257  C     0.51912   0.64196   0.78291   0.00000  Uiso   1.00
C1258  C     0.51889   0.35821   0.78305   0.00000  Uiso   1.00
C1259  C     0.48118   0.64178   0.71691   0.00000  Uiso   1.00
C1260  C     0.35357   0.45792   0.75875   0.00000  Uiso   1.00
Cu1261 Cu    0.50000   0.54689   0.75000   0.00000  Uiso   1.00
Cu1262 Cu    0.50000   0.45311   0.75000   0.00000  Uiso   1.00
H1263  H     0.46706   0.37654   0.68974   0.00000  Uiso   1.00
H1264  H     0.48014   0.42808   0.88933   0.00000  Uiso   1.00
H1265  H     0.52221   0.57177   0.88901   0.00000  Uiso   1.00
H1266  H     0.52445   0.42938   0.61126   0.00000  Uiso   1.00
H1267  H     0.40126   0.36442   0.72937   0.00000  Uiso   1.00
H1268  H     0.39469   0.41810   0.69965   0.00000  Uiso   1.00
H1269  H     0.66012   0.34724   0.72473   0.00000  Uiso   1.00
H1270  H     0.65237   0.40092   0.69430   0.00000  Uiso   1.00
H1271  H     0.36957   0.37249   0.63668   0.00000  Uiso   1.00
H1272  H     0.65778   0.33720   0.64104   0.00000  Uiso   1.00
H1273  H     0.37162   0.65031   0.66552   0.00000  Uiso   1.00
H1274  H     0.53461   0.62342   0.80920   0.00000  Uiso   1.00
H1275  H     0.60786   0.54412   0.67030   0.00000  Uiso   1.00
H1276  H     0.64810   0.58714   0.66351   0.00000  Uiso   1.00
H1277  H     0.55768   0.60681   0.68516   0.00000  Uiso   1.00
H1278  H     0.59628   0.65089   0.67865   0.00000  Uiso   1.00
H1279  H     0.60700   0.62475   0.60006   0.00000  Uiso   1.00
H1280  H     0.55451   0.64073   0.61013   0.00000  Uiso   1.00
H1281  H     0.56864   0.57974   0.60729   0.00000  Uiso   1.00
H1282  H     0.58266   0.44585   0.82926   0.00000  Uiso   1.00
H1283  H     0.63453   0.46130   0.84348   0.00000  Uiso   1.00
H1284  H     0.60309   0.35968   0.84065   0.00000  Uiso   1.00
H1285  H     0.53391   0.37691   0.80958   0.00000  Uiso   1.00
H1286  H     0.65155   0.38155   0.86070   0.00000  Uiso   1.00
H1287  H     0.61513   0.42716   0.91967   0.00000  Uiso   1.00
H1288  H     0.60436   0.36520   0.92292   0.00000  Uiso   1.00
H1289  H     0.56677   0.40426   0.89974   0.00000  Uiso   1.00
H1290  H     0.40542   0.62744   0.79152   0.00000  Uiso   1.00
H1291  H     0.39658   0.56952   0.81122   0.00000  Uiso   1.00
H1292  H     0.66642   0.64903   0.80181   0.00000  Uiso   1.00
H1293  H     0.65346   0.58985   0.81725   0.00000  Uiso   1.00
H1294  H     0.36900   0.59500   0.88168   0.00000  Uiso   1.00
H1295  H     0.66096   0.63605   0.88447   0.00000  Uiso   1.00
H1296  H     0.46584   0.62312   0.69051   0.00000  Uiso   1.00
H1297  H     0.37791   0.65596   0.86807   0.00000  Uiso   1.00
H1298  H     0.47761   0.57043   0.53006   0.00000  Uiso   1.00
H1299  H     0.48035   0.42830   0.96979   0.00000  Uiso   1.00
H1300  H     0.52397   0.57145   0.96952   0.00000  Uiso   1.00
H1301  H     0.52637   0.42976   0.53076   0.00000  Uiso   1.00
H1302  H     0.47726   0.57066   0.61057   0.00000  Uiso   1.00
N1303  N     0.50000   0.61736   0.75000   0.00000  Uiso   1.00
N1304  N     0.50000   0.38264   0.75000   0.00000  Uiso   1.00
O1305  O     0.43988   0.53958   0.74999   0.00000  Uiso   1.00
O1306  O     0.62562   0.58177   0.72723   0.00000  Uiso   1.00
O1307  O     0.62546   0.42217   0.78421   0.00000  Uiso   1.00
O1308  O     0.37300   0.58633   0.74806   0.00000  Uiso   1.00
O1309  O     0.56012   0.46042   0.75000   0.00000  Uiso   1.00
O1310  O     0.56012   0.53958   0.75000   0.00000  Uiso   1.00
O1311  O     0.43988   0.46042   0.74999   0.00000  Uiso   1.00
O1312  O     0.50000   0.53959   0.68573   0.00000  Uiso   1.00
O1313  O     0.50000   0.46041   0.81427   0.00000  Uiso   1.00
O1314  O     0.50000   0.53959   0.81427   0.00000  Uiso   1.00
O1315  O     0.50000   0.46041   0.68573   0.00000  Uiso   1.00
O1316  O     0.37232   0.41499   0.76494   0.00000  Uiso   1.00
C1317  C     0.75393   0.49995   0.75070   0.00000  Uiso   1.00
C1318  C     0.97876   0.54138   0.74053   0.00000  Uiso   1.00
C1319  C     0.97829   0.46022   0.76518   0.00000  Uiso   1.00
C1320  C     0.68741   0.54279   0.74736   0.00000  Uiso   1.00
C1321  C     0.82178   0.53972   0.54745   0.00000  Uiso   1.00
C1322  C     0.82344   0.45957   0.95250   0.00000  Uiso   1.00
C1323  C     0.84719   0.54019   0.95234   0.00000  Uiso   1.00
C1324  C     0.84842   0.46045   0.54784   0.00000  Uiso   1.00
C1325  C     0.82130   0.53975   0.59338   0.00000  Uiso   1.00
C1326  C     0.82306   0.45954   0.90657   0.00000  Uiso   1.00
C1327  C     0.84633   0.54032   0.90640   0.00000  Uiso   1.00
C1328  C     0.91253   0.50013   0.75054   0.00000  Uiso   1.00
C1329  C     0.84747   0.46028   0.59376   0.00000  Uiso   1.00
C1330  C     0.83401   0.49998   0.61675   0.00000  Uiso   1.00
C1331  C     0.83427   0.49999   0.88329   0.00000  Uiso   1.00
C1332  C     0.83539   0.50009   0.52432   0.00000  Uiso   1.00
C1333  C     0.83550   0.49990   0.97575   0.00000  Uiso   1.00
C1334  C     0.95698   0.50052   0.75184   0.00000  Uiso   1.00
C1335  C     0.70910   0.50006   0.75201   0.00000  Uiso   1.00
C1336  C     0.71309   0.39365   0.72338   0.00000  Uiso   1.00
C1337  C     0.67464   0.37277   0.70192   0.00000  Uiso   1.00
C1338  C     0.68584   0.34828   0.65871   0.00000  Uiso   1.00
C1339  C     0.83347   0.49999   0.66497   0.00000  Uiso   1.00
C1340  C     0.95238   0.57935   0.68106   0.00000  Uiso   1.00
C1341  C     0.91997   0.61529   0.66801   0.00000  Uiso   1.00
C1342  C     0.91214   0.61504   0.61826   0.00000  Uiso   1.00
C1343  C     0.94811   0.43348   0.82838   0.00000  Uiso   1.00
C1344  C     0.95195   0.38978   0.85698   0.00000  Uiso   1.00
C1345  C     0.93337   0.39723   0.90266   0.00000  Uiso   1.00
C1346  C     0.71565   0.59886   0.79245   0.00000  Uiso   1.00
C1347  C     0.67810   0.61663   0.81769   0.00000  Uiso   1.00
C1348  C     0.68897   0.62661   0.86591   0.00000  Uiso   1.00
C1349  C     0.83356   0.50001   0.83505   0.00000  Uiso   1.00
C1350  C     0.81508   0.35802   0.71656   0.00000  Uiso   1.00
C1351  C     0.85245   0.64196   0.78291   0.00000  Uiso   1.00
C1352  C     0.85222   0.35821   0.78305   0.00000  Uiso   1.00
C1353  C     0.81451   0.64178   0.71691   0.00000  Uiso   1.00
C1354  C     0.68690   0.45792   0.75875   0.00000  Uiso   1.00
Cu1355 Cu    0.83333   0.54689   0.75000   0.00000  Uiso   1.00
Cu1356 Cu    0.83333   0.45311   0.75000   0.00000  Uiso   1.00
H1357  H     0.80039   0.37654   0.68974   0.00000  Uiso   1.00
H1358  H     0.81347   0.42808   0.88933   0.00000  Uiso   1.00
H1359  H     0.85554   0.57177   0.88901   0.00000  Uiso   1.00
H1360  H     0.85778   0.42938   0.61126   0.00000  Uiso   1.00
H1361  H     0.73459   0.36442   0.72937   0.00000  Uiso   1.00
H1362  H     0.72802   0.41810   0.69965   0.00000  Uiso   1.00
H1363  H     0.99345   0.34724   0.72473   0.00000  Uiso   1.00
H1364  H     0.98570   0.40092   0.69430   0.00000  Uiso   1.00
H1365  H     0.70290   0.37249   0.63668   0.00000  Uiso   1.00
H1366  H     0.99111   0.33720   0.64104   0.00000  Uiso   1.00
H1367  H     0.70495   0.65031   0.66552   0.00000  Uiso   1.00
H1368  H     0.86794   0.62342   0.80920   0.00000  Uiso   1.00
H1369  H     0.94119   0.54412   0.67030   0.00000  Uiso   1.00
H1370  H     0.98143   0.58714   0.66351   0.00000  Uiso   1.00
H1371  H     0.89102   0.60681   0.68516   0.00000  Uiso   1.00
H1372  H     0.92961   0.65089   0.67865   0.00000  Uiso   1.00
H1373  H     0.94034   0.62475   0.60006   0.00000  Uiso   1.00
H1374  H     0.88784   0.64073   0.61013   0.00000  Uiso   1.00
H1375  H     0.90197   0.57974   0.60729   0.00000  Uiso   1.00
H1376  H     0.91599   0.44585   0.82926   0.00000  Uiso   1.00
H1377  H     0.96787   0.46130   0.84348   0.00000  Uiso   1.00
H1378  H     0.93643   0.35968   0.84065   0.00000  Uiso   1.00
H1379  H     0.86724   0.37691   0.80958   0.00000  Uiso   1.00
H1380  H     0.98488   0.38155   0.86070   0.00000  Uiso   1.00
H1381  H     0.94847   0.42716   0.91967   0.00000  Uiso   1.00
H1382  H     0.93769   0.36520   0.92292   0.00000  Uiso   1.00
H1383  H     0.90011   0.40426   0.89974   0.00000  Uiso   1.00
H1384  H     0.73876   0.62744   0.79152   0.00000  Uiso   1.00
H1385  H     0.72991   0.56952   0.81122   0.00000  Uiso   1.00
H1386  H     0.99975   0.64903   0.80181   0.00000  Uiso   1.00
H1387  H     0.98680   0.58985   0.81725   0.00000  Uiso   1.00
H1388  H     0.70233   0.59500   0.88168   0.00000  Uiso   1.00
H1389  H     0.99430   0.63605   0.88447   0.00000  Uiso   1.00
H1390  H     0.79917   0.62312   0.69051   0.00000  Uiso   1.00
H1391  H     0.71125   0.65596   0.86807   0.00000  Uiso   1.00
H1392  H     0.81095   0.57043   0.53006   0.00000  Uiso   1.00
H1393  H     0.81368   0.42830   0.96979   0.00000  Uiso   1.00
H1394  H     0.85730   0.57145   0.96952   0.00000  Uiso   1.00
H1395  H     0.85971   0.42976   0.53076   0.00000  Uiso   1.00
H1396  H     0.81059   0.57066   0.61057   0.00000  Uiso   1.00
N1397  N     0.83333   0.61736   0.75000   0.00000  Uiso   1.00
N1398  N     0.83333   0.38264   0.75000   0.00000  Uiso   1.00
O1399  O     0.77321   0.53958   0.74999   0.00000  Uiso   1.00
O1400  O     0.95896   0.58177   0.72723   0.00000  Uiso   1.00
O1401  O     0.95879   0.42217   0.78421   0.00000  Uiso   1.00
O1402  O     0.70633   0.58633   0.74806   0.00000  Uiso   1.00
O1403  O     0.89345   0.46042   0.75000   0.00000  Uiso   1.00
O1404  O     0.89345   0.53958   0.75000   0.00000  Uiso   1.00
O1405  O     0.77321   0.46042   0.74999   0.00000  Uiso   1.00
O1406  O     0.83333   0.53959   0.68573   0.00000  Uiso   1.00
O1407  O     0.83334   0.46041   0.81427   0.00000  Uiso   1.00
O1408  O     0.83334   0.53959   0.81427   0.00000  Uiso   1.00
O1409  O     0.83333   0.46041   0.68573   0.00000  Uiso   1.00
O1410  O     0.70565   0.41499   0.76494   0.00000  Uiso   1.00
C1411  C     0.08726   0.83329   0.75070   0.00000  Uiso   1.00
C1412  C     0.31210   0.87471   0.74053   0.00000  Uiso   1.00
C1413  C     0.31162   0.79355   0.76518   0.00000  Uiso   1.00
C1414  C     0.02075   0.87612   0.74736   0.00000  Uiso   1.00
C1415  C     0.15512   0.87305   0.54745   0.00000  Uiso   1.00
C1416  C     0.15678   0.79291   0.95250   0.00000  Uiso   1.00
C1417  C     0.18052   0.87352   0.95234   0.00000  Uiso   1.00
C1418  C     0.18176   0.79378   0.54784   0.00000  Uiso   1.00
C1419  C     0.15463   0.87308   0.59338   0.00000  Uiso   1.00
C1420  C     0.15639   0.79287   0.90657   0.00000  Uiso   1.00
C1421  C     0.17967   0.87365   0.90640   0.00000  Uiso   1.00
C1422  C     0.24586   0.83346   0.75054   0.00000  Uiso   1.00
C1423  C     0.18080   0.79362   0.59376   0.00000  Uiso   1.00
C1424  C     0.16734   0.83331   0.61675   0.00000  Uiso   1.00
C1425  C     0.16761   0.83332   0.88329   0.00000  Uiso   1.00
C1426  C     0.16873   0.83342   0.52432   0.00000  Uiso   1.00
C1427  C     0.16884   0.83324   0.97575   0.00000  Uiso   1.00
C1428  C     0.29032   0.83386   0.75184   0.00000  Uiso   1.00
C1429  C     0.04244   0.83340   0.75201   0.00000  Uiso   1.00
C1430  C     0.04642   0.72698   0.72338   0.00000  Uiso   1.00
C1431  C     0.00797   0.70610   0.70192   0.00000  Uiso   1.00
C1432  C     0.01917   0.68161   0.65871   0.00000  Uiso   1.00
C1433  C     0.16681   0.83332   0.66497   0.00000  Uiso   1.00
C1434  C     0.28571   0.91269   0.68106   0.00000  Uiso   1.00
C1435  C     0.25330   0.94862   0.66801   0.00000  Uiso   1.00
C1436  C     0.24548   0.94837   0.61826   0.00000  Uiso   1.00
C1437  C     0.28144   0.76682   0.82838   0.00000  Uiso   1.00
C1438  C     0.28528   0.72311   0.85698   0.00000  Uiso   1.00
C1439  C     0.26670   0.73056   0.90266   0.00000  Uiso   1.00
C1440  C     0.04898   0.93219   0.79245   0.00000  Uiso   1.00
C1441  C     0.01144   0.94997   0.81769   0.00000  Uiso   1.00
C1442  C     0.02230   0.95994   0.86591   0.00000  Uiso   1.00
C1443  C     0.16690   0.83334   0.83505   0.00000  Uiso   1.00
C1444  C     0.14841   0.69135   0.71656   0.00000  Uiso   1.00
C1445  C     0.18579   0.97529   0.78291   0.00000  Uiso   1.00
C1446  C     0.18555   0.69155   0.78305   0.00000  Uiso   1.00
C1447  C     0.14784   0.97512   0.71691   0.00000  Uiso   1.00
C1448  C     0.02024   0.79126   0.75875   0.00000  Uiso   1.00
Cu1449 Cu    0.16667   0.88022   0.75000   0.00000  Uiso   1.00
Cu1450 Cu    0.16667   0.78645   0.75000   0.00000  Uiso   1.00
H1451  H     0.13373   0.70987   0.68974   0.00000  Uiso   1.00
H1452  H     0.14681   0.76141   0.88933   0.00000  Uiso   1.00
H1453  H     0.18887   0.90510   0.88901   0.00000  Uiso   1.00
H1454  H     0.19111   0.76271   0.61126   0.00000  Uiso   1.00
H1455  H     0.06793   0.69775   0.72937   0.00000  Uiso   1.00
H1456  H     0.06136   0.75143   0.69965   0.00000  Uiso   1.00
H1457  H     0.32678   0.68057   0.72473   0.00000  Uiso   1.00
H1458  H     0.31903   0.73426   0.69430   0.00000  Uiso   1.00
H1459  H     0.03624   0.70583   0.63668   0.00000  Uiso   1.00
H1460  H     0.32445   0.67053   0.64104   0.00000  Uiso   1.00
H1461  H     0.03828   0.98364   0.66552   0.00000  Uiso   1.00
H1462  H     0.20127   0.95675   0.80920   0.00000  Uiso   1.00
H1463  H     0.27452   0.87745   0.67030   0.00000  Uiso   1.00
H1464  H     0.31476   0.92048   0.66351   0.00000  Uiso   1.00
H1465  H     0.22435   0.94014   0.68516   0.00000  Uiso   1.00
H1466  H     0.26294   0.98422   0.67865   0.00000  Uiso   1.00
H1467  H     0.27367   0.95808   0.60006   0.00000  Uiso   1.00
H1468  H     0.22117   0.97406   0.61013   0.00000  Uiso   1.00
H1469  H     0.23531   0.91308   0.60729   0.00000  Uiso   1.00
H1470  H     0.24933   0.77918   0.82926   0.00000  Uiso   1.00
H1471  H     0.30120   0.79463   0.84348   0.00000  Uiso   1.00
H1472  H     0.26976   0.69301   0.84065   0.00000  Uiso   1.00
H1473  H     0.20058   0.71024   0.80958   0.00000  Uiso   1.00
H1474  H     0.31821   0.71488   0.86070   0.00000  Uiso   1.00
H1475  H     0.28180   0.76049   0.91967   0.00000  Uiso   1.00
H1476  H     0.27102   0.69853   0.92292   0.00000  Uiso   1.00
H1477  H     0.23344   0.73759   0.89974   0.00000  Uiso   1.00
H1478  H     0.07209   0.96077   0.79152   0.00000  Uiso   1.00
H1479  H     0.06325   0.90285   0.81122   0.00000  Uiso   1.00
H1480  H     0.33309   0.98236   0.80181   0.00000  Uiso   1.00
H1481  H     0.32013   0.92318   0.81725   0.00000  Uiso   1.00
H1482  H     0.03566   0.92833   0.88168   0.00000  Uiso   1.00
H1483  H     0.32763   0.96939   0.88447   0.00000  Uiso   1.00
H1484  H     0.13250   0.95645   0.69051   0.00000  Uiso   1.00
H1485  H     0.04458   0.98929   0.86807   0.00000  Uiso   1.00
H1486  H     0.14428   0.90376   0.53006   0.00000  Uiso   1.00
H1487  H     0.14701   0.76164   0.96979   0.00000  Uiso   1.00
H1488  H     0.19064   0.90478   0.96952   0.00000  Uiso   1.00
H1489  H     0.19304   0.76309   0.53076   0.00000  Uiso   1.00
H1490  H     0.14392   0.90399   0.61057   0.00000  Uiso   1.00
N1491  N     0.16667   0.95069   0.75000   0.00000  Uiso   1.00
N1492  N     0.16667   0.71598   0.75000   0.00000  Uiso   1.00
O1493  O     0.10655   0.87291   0.74999   0.00000  Uiso   1.00
O1494  O     0.29229   0.91510   0.72723   0.00000  Uiso   1.00
O1495  O     0.29212   0.75550   0.78421   0.00000  Uiso   1.00
O1496  O     0.03966   0.91966   0.74806   0.00000  Uiso   1.00
O1497  O     0.22679   0.79375   0.75000   0.00000  Uiso   1.00
O1498  O     0.22679   0.87291   0.75000   0.00000  Uiso   1.00
O1499  O     0.10655   0.79375   0.74999   0.00000  Uiso   1.00
O1500  O     0.16666   0.87293   0.68573   0.00000  Uiso   1.00
O1501  O     0.16667   0.79374   0.81427   0.00000  Uiso   1.00
O1502  O     0.16667   0.87293   0.81427   0.00000  Uiso   1.00
O1503  O     0.16666   0.79374   0.68573   0.00000  Uiso   1.00
O1504  O     0.03898   0.74832   0.76494   0.00000  Uiso   1.00
C1505  C     0.42060   0.83329   0.75070   0.00000  Uiso   1.00
C1506  C     0.64543   0.87471   0.74053   0.00000  Uiso   1.00
C1507  C     0.64495   0.79355   0.76518   0.00000  Uiso   1.00
C1508  C     0.35408   0.87612   0.74736   0.00000  Uiso   1.00
C1509  C     0.48845   0.87305   0.54745   0.00000  Uiso   1.00
C1510  C     0.49011   0.79291   0.95250   0.00000  Uiso   1.00
C1511  C     0.51385   0.87352   0.95234   0.00000  Uiso   1.00
C1512  C     0.51509   0.79378   0.54784   0.00000  Uiso   1.00
C1513  C     0.48796   0.87308   0.59338   0.00000  Uiso   1.00
C1514  C     0.48972   0.79287   0.90657   0.00000  Uiso   1.00
C1515  C     0.51300   0.87365   0.90640   0.00000  Uiso   1.00
C1516  C     0.57920   0.83346   0.75054   0.00000  Uiso   1.00
C1517  C     0.51414   0.79362   0.59376   0.00000  Uiso   1.00
C1518  C     0.50068   0.83331   0.61675   0.00000  Uiso   1.00
C1519  C     0.50094   0.83332   0.88329   0.00000  Uiso   1.00
C1520  C     0.50206   0.83342   0.52432   0.00000  Uiso   1.00
C1521  C     0.50217   0.83324   0.97575   0.00000  Uiso   1.00
C1522  C     0.62365   0.83386   0.75184   0.00000  Uiso   1.00
C1523  C     0.37577   0.83340   0.75201   0.00000  Uiso   1.00
C1524  C     0.37976   0.72698   0.72338   0.00000  Uiso   1.00
C1525  C     0.34131   0.70610   0.70192   0.00000  Uiso   1.00
C1526  C     0.35250   0.68161   0.65871   0.00000  Uiso   1.00
C1527  C     0.50014   0.83332   0.66497   0.00000  Uiso   1.00
C1528  C     0.61905   0.91269   0.68106   0.00000  Uiso   1.00
C1529  C     0.58663   0.94862   0.66801   0.00000  Uiso   1.00
C1530  C     0.57881   0.94837   0.61826   0.00000  Uiso   1.00
C1531  C     0.61477   0.76682   0.82838   0.00000  Uiso   1.00
C1532  C     0.61861   0.72311   0.85698   0.00000  Uiso   1.00
C1533  C     0.60004   0.73056   0.90266   0.00000  Uiso   1.00
C1534  C     0.38231   0.93219   0.79245   0.00000  Uiso   1.00
C1535  C     0.34477   0.94997   0.81769   0.00000  Uiso   1.00
C1536  C     0.35563   0.95994   0.86591   0.00000  Uiso   1.00
C1537  C     0.50023   0.83334   0.83505   0.00000  Uiso   1.00
C1538  C     0.48175   0.69135   0.71656   0.00000  Uiso   1.00
C1539  C     0.51912   0.97529   0.78291   0.00000  Uiso   1.00
C1540  C     0.51889   0.69155   0.78305   0.00000  Uiso   1.00
C1541  C     0.48118   0.97512   0.71691   0.00000  Uiso   1.00
C1542  C     0.35357   0.79126   0.75875   0.00000  Uiso   1.00
Cu1543 Cu    0.50000   0.88022   0.75000   0.00000  Uiso   1.00
Cu1544 Cu    0.50000   0.78645   0.75000   0.00000  Uiso   1.00
H1545  H     0.46706   0.70987   0.68974   0.00000  Uiso   1.00
H1546  H     0.48014   0.76141   0.88933   0.00000  Uiso   1.00
H1547  H     0.52221   0.90510   0.88901   0.00000  Uiso   1.00
H1548  H     0.52445   0.76271   0.61126   0.00000  Uiso   1.00
H1549  H     0.40126   0.69775   0.72937   0.00000  Uiso   1.00
H1550  H     0.39469   0.75143   0.69965   0.00000  Uiso   1.00
H1551  H     0.66012   0.68057   0.72473   0.00000  Uiso   1.00
H1552  H     0.65237   0.73426   0.69430   0.00000  Uiso   1.00
H1553  H     0.36957   0.70583   0.63668   0.00000  Uiso   1.00
H1554  H     0.65778   0.67053   0.64104   0.00000  Uiso   1.00
H1555  H     0.37162   0.98364   0.66552   0.00000  Uiso   1.00
H1556  H     0.53461   0.95675   0.80920   0.00000  Uiso   1.00
H1557  H     0.60786   0.87745   0.67030   0.00000  Uiso   1.00
H1558  H     0.64810   0.92048   0.66351   0.00000  Uiso   1.00
H1559  H     0.55768   0.94014   0.68516   0.00000  Uiso   1.00
H1560  H     0.59628   0.98422   0.67865   0.00000  Uiso   1.00
H1561  H     0.60700   0.95808   0.60006   0.00000  Uiso   1.00
H1562  H     0.55451   0.97406   0.61013   0.00000  Uiso   1.00
H1563  H     0.56864   0.91308   0.60729   0.00000  Uiso   1.00
H1564  H     0.58266   0.77918   0.82926   0.00000  Uiso   1.00
H1565  H     0.63453   0.79463   0.84348   0.00000  Uiso   1.00
H1566  H     0.60309   0.69301   0.84065   0.00000  Uiso   1.00
H1567  H     0.53391   0.71024   0.80958   0.00000  Uiso   1.00
H1568  H     0.65155   0.71488   0.86070   0.00000  Uiso   1.00
H1569  H     0.61513   0.76049   0.91967   0.00000  Uiso   1.00
H1570  H     0.60436   0.69853   0.92292   0.00000  Uiso   1.00
H1571  H     0.56677   0.73759   0.89974   0.00000  Uiso   1.00
H1572  H     0.40542   0.96077   0.79152   0.00000  Uiso   1.00
H1573  H     0.39658   0.90285   0.81122   0.00000  Uiso   1.00
H1574  H     0.66642   0.98236   0.80181   0.00000  Uiso   1.00
H1575  H     0.65346   0.92318   0.81725   0.00000  Uiso   1.00
H1576  H     0.36900   0.92833   0.88168   0.00000  Uiso   1.00
H1577  H     0.66096   0.96939   0.88447   0.00000  Uiso   1.00
H1578  H     0.46584   0.95645   0.69051   0.00000  Uiso   1.00
H1579  H     0.37791   0.98929   0.86807   0.00000  Uiso   1.00
H1580  H     0.47761   0.90376   0.53006   0.00000  Uiso   1.00
H1581  H     0.48035   0.76164   0.96979   0.00000  Uiso   1.00
H1582  H     0.52397   0.90478   0.96952   0.00000  Uiso   1.00
H1583  H     0.52637   0.76309   0.53076   0.00000  Uiso   1.00
H1584  H     0.47726   0.90399   0.61057   0.00000  Uiso   1.00
N1585  N     0.50000   0.95069   0.75000   0.00000  Uiso   1.00
N1586  N     0.50000   0.71598   0.75000   0.00000  Uiso   1.00
O1587  O     0.43988   0.87291   0.74999   0.00000  Uiso   1.00
O1588  O     0.62562   0.91510   0.72723   0.00000  Uiso   1.00
O1589  O     0.62546   0.75550   0.78421   0.00000  Uiso   1.00
O1590  O     0.37300   0.91966   0.74806   0.00000  Uiso   1.00
O1591  O     0.56012   0.79375   0.75000   0.00000  Uiso   1.00
O1592  O     0.56012   0.87291   0.75000   0.00000  Uiso   1.00
O1593  O     0.43988   0.79375   0.74999   0.00000  Uiso   1.00
O1594  O     0.50000   0.87293   0.68573   0.00000  Uiso   1.00
O1595  O     0.50000   0.79374   0.81427   0.00000  Uiso   1.00
O1596  O     0.50000   0.87293   0.81427   0.00000  Uiso   1.00
O1597  O     0.50000   0.79374   0.68573   0.00000  Uiso   1.00
O1598  O     0.37232   0.74832   0.76494   0.00000  Uiso   1.00
C1599  C     0.75393   0.83329   0.75070   0.00000  Uiso   1.00
C1600  C     0.97876   0.87471   0.74053   0.00000  Uiso   1.00
C1601  C     0.97829   0.79355   0.76518   0.00000  Uiso   1.00
C1602  C     0.68741   0.87612   0.74736   0.00000  Uiso   1.00
C1603  C     0.82178   0.87305   0.54745   0.00000  Uiso   1.00
C1604  C     0.82344   0.79291   0.95250   0.00000  Uiso   1.00
C1605  C     0.84719   0.87352   0.95234   0.00000  Uiso   1.00
C1606  C     0.84842   0.79378   0.54784   0.00000  Uiso   1.00
C1607  C     0.82130   0.87308   0.59338   0.00000  Uiso   1.00
C1608  C     0.82306   0.79287   0.90657   0.00000  Uiso   1.00
C1609  C     0.84633   0.87365   0.90640   0.00000  Uiso   1.00
C1610  C     0.91253   0.83346   0.75054   0.00000  Uiso   1.00
C1611  C     0.84747   0.79362   0.59376   0.00000  Uiso   1.00
C1612  C     0.83401   0.83331   0.61675   0.00000  Uiso   1.00
C1613  C     0.83427   0.83332   0.88329   0.00000  Uiso   1.00
C1614  C     0.83539   0.83342   0.52432   0.00000  Uiso   1.00
C1615  C     0.83550   0.83324   0.97575   0.00000  Uiso   1.00
C1616  C     0.95698   0.83386   0.75184   0.00000  Uiso   1.00
C1617  C     0.70910   0.83340   0.75201   0.00000  Uiso   1.00
C1618  C     0.71309   0.72698   0.72338   0.00000  Uiso   1.00
C1619  C     0.67464   0.70610   0.70192   0.00000  Uiso   1.00
C1620  C     0.68584   0.68161   0.65871   0.00000  Uiso   1.00
C1621  C     0.83347   0.83332   0.66497   0.00000  Uiso   1.00
C1622  C     0.95238   0.91269   0.68106   0.00000  Uiso   1.00
C1623  C     0.91997   0.94862   0.66801   0.00000  Uiso   1.00
C1624  C     0.91214   0.94837   0.61826   0.00000  Uiso   1.00
C1625  C     0.94811   0.76682   0.82838   0.00000  Uiso   1.00
C1626  C     0.95195   0.72311   0.85698   0.00000  Uiso   1.00
C1627  C     0.93337   0.73056   0.90266   0.00000  Uiso   1.00
C1628  C     0.71565   0.93219   0.79245   0.00000  Uiso   1.00
C1629  C     0.67810   0.94997   0.81769   0.00000  Uiso   1.00
C1630  C     0.68897   0.95994   0.86591   0.00000  Uiso   1.00
C1631  C     0.83356   0.83334   0.83505   0.00000  Uiso   1.00
C1632  C     0.81508   0.69135   0.71656   0.00000  Uiso   1.00
C1633  C     0.85245   0.97529   0.78291   0.00000  Uiso   1.00
C1634  C     0.85222   0.69155   0.78305   0.00000  Uiso   1.00
C1635  C     0.81451   0.97512   0.71691   0.00000  Uiso   1.00
C1636  C     0.68690   0.79126   0.75875   0.00000  Uiso   1.00
Cu1637 Cu    0.83333   0.88022   0.75000   0.00000  Uiso   1.00
Cu1638 Cu    0.83333   0.78645   0.75000   0.00000  Uiso   1.00
H1639  H     0.80039   0.70987   0.68974   0.00000  Uiso   1.00
H1640  H     0.81347   0.76141   0.88933   0.00000  Uiso   1.00
H1641  H     0.85554   0.90510   0.88901   0.00000  Uiso   1.00
H1642  H     0.85778   0.76271   0.61126   0.00000  Uiso   1.00
H1643  H     0.73459   0.69775   0.72937   0.00000  Uiso   1.00
H1644  H     0.72802   0.75143   0.69965   0.00000  Uiso   1.00
H1645  H     0.99345   0.68057   0.72473   0.00000  Uiso   1.00
H1646  H     0.98570   0.73426   0.69430   0.00000  Uiso   1.00
H1647  H     0.70290   0.70583   0.63668   0.00000  Uiso   1.00
H1648  H     0.99111   0.67053   0.64104   0.00000  Uiso   1.00
H1649  H     0.70495   0.98364   0.66552   0.00000  Uiso   1.00
H1650  H     0.86794   0.95675   0.80920   0.00000  Uiso   1.00
H1651  H     0.94119   0.87745   0.67030   0.00000  Uiso   1.00
H1652  H     0.98143   0.92048   0.66351   0.00000  Uiso   1.00
H1653  H     0.89102   0.94014   0.68516   0.00000  Uiso   1.00
H1654  H     0.92961   0.98422   0.67865   0.00000  Uiso   1.00
H1655  H     0.94034   0.95808   0.60006   0.00000  Uiso   1.00
H1656  H     0.88784   0.97406   0.61013   0.00000  Uiso   1.00
H1657  H     0.90197   0.91308   0.60729   0.00000  Uiso   1.00
H1658  H     0.91599   0.77918   0.82926   0.00000  Uiso   1.00
H1659  H     0.96787   0.79463   0.84348   0.00000  Uiso   1.00
H1660  H     0.93643   0.69301   0.84065   0.00000  Uiso   1.00
H1661  H     0.86724   0.71024   0.80958   0.00000  Uiso   1.00
H1662  H     0.98488   0.71488   0.86070   0.00000  Uiso   1.00
H1663  H     0.94847   0.76049   0.91967   0.00000  Uiso   1.00
H1664  H     0.93769   0.69853   0.92292   0.00000  Uiso   1.00
H1665  H     0.90011   0.73759   0.89974   0.00000  Uiso   1.00
H1666  H     0.73876   0.96077   0.79152   0.00000  Uiso   1.00
H1667  H     0.72991   0.90285   0.81122   0.00000  Uiso   1.00
H1668  H     0.99975   0.98236   0.80181   0.00000  Uiso   1.00
H1669  H     0.98680   0.92318   0.81725   0.00000  Uiso   1.00
H1670  H     0.70233   0.92833   0.88168   0.00000  Uiso   1.00
H1671  H     0.99430   0.96939   0.88447   0.00000  Uiso   1.00
H1672  H     0.79917   0.95645   0.69051   0.00000  Uiso   1.00
H1673  H     0.71125   0.98929   0.86807   0.00000  Uiso   1.00
H1674  H     0.81095   0.90376   0.53006   0.00000  Uiso   1.00
H1675  H     0.81368   0.76164   0.96979   0.00000  Uiso   1.00
H1676  H     0.85730   0.90478   0.96952   0.00000  Uiso   1.00
H1677  H     0.85971   0.76309   0.53076   0.00000  Uiso   1.00
H1678  H     0.81059   0.90399   0.61057   0.00000  Uiso   1.00
N1679  N     0.83333   0.95069   0.75000   0.00000  Uiso   1.00
N1680  N     0.83333   0.71598   0.75000   0.00000  Uiso   1.00
O1681  O     0.77321   0.87291   0.74999   0.00000  Uiso   1.00
O1682  O     0.95896   0.91510   0.72723   0.00000  Uiso   1.00
O1683  O     0.95879   0.75550   0.78421   0.00000  Uiso   1.00
O1684  O     0.70633   0.91966   0.74806   0.00000  Uiso   1.00
O1685  O     0.89345   0.79375   0.75000   0.00000  Uiso   1.00
O1686  O     0.89345   0.87291   0.75000   0.00000  Uiso   1.00
O1687  O     0.77321   0.79375   0.74999   0.00000  Uiso   1.00
O1688  O     0.83333   0.87293   0.68573   0.00000  Uiso   1.00
O1689  O     0.83334   0.79374   0.81427   0.00000  Uiso   1.00
O1690  O     0.83334   0.87293   0.81427   0.00000  Uiso   1.00
O1691  O     0.83333   0.79374   0.68573   0.00000  Uiso   1.00
O1692  O     0.70565   0.74832   0.76494   0.00000  Uiso   1.00
loop_
_geom_bond_atom_site_label_1
_geom_bond_atom_site_label_2
_geom_bond_distance
_geom_bond_site_symmetry_2
_ccdc_geom_bond_type
C1     C19     1.467   .     S
C1     O89     1.294   .     A
C1     O83     1.294   .     A
C2     C18     1.408   .     A
C2     O84     1.384   .     S
C2     C98     1.389   .     S
C3     C18     1.406   .     A
C3     O85     1.385   .     S
C3     C132    1.389   .     S
C4     C19     1.420   .     A
C4     O86     1.387   .     S
C4     C190    1.389   1_455 S
C5     C16     1.404   .     A
C5     C9      1.390   .     A
C5     H76     1.083   .     S
C6     H77     1.083   .     S
C6     C17     1.404   .     A
C6     C10     1.389   .     A
C7     C11     1.390   .     A
C7     C17     1.404   .     A
C7     H78     1.083   .     S
C8     C13     1.390   .     A
C8     H79     1.083   .     S
C8     C16     1.404   .     A
C9     H80     1.083   .     S
C9     C14     1.401   .     A
C10    H42     1.083   .     S
C10    C15     1.402   .     A
C11    C15     1.402   .     A
C11    H43     1.083   .     S
C12    O88     1.289   .     A
C12    O87     1.293   .     A
C12    C18     1.455   .     S
C13    C14     1.402   .     A
C13    H44     1.083   .     S
C14    C23     1.459   .     S
C15    C33     1.459   .     S
C16    C863    1.469   1_554 S
C17    C862    1.469   .     S
C19    C38     1.419   .     A
C20    H45     1.108   .     S
C20    O94     1.418   .     S
C20    C21     1.533   .     S
C20    H46     1.114   .     S
C21    C22     1.528   .     S
C21    H235    1.111   1_455 S
C21    H236    1.110   1_455 S
C22    H49     1.111   .     S
C22    H238    1.106   1_455 S
C22    H615    1.111   1_545 S
C23    O93     1.293   .     A
C23    O90     1.293   .     A
C24    H54     1.112   .     S
C24    C25     1.529   .     S
C24    H53     1.117   .     S
C24    O84     1.414   .     S
C25    H56     1.110   .     S
C25    H55     1.107   .     S
C25    C26     1.526   .     S
C26    H59     1.110   .     S
C26    H58     1.110   .     S
C26    H57     1.110   .     S
C27    H60     1.110   .     S
C27    O85     1.419   .     S
C27    H61     1.119   .     S
C27    C28     1.524   .     S
C28    C29     1.526   .     S
C28    H64     1.109   .     S
C28    H62     1.112   .     S
C29    H67     1.111   .     S
C29    H65     1.111   .     S
C29    H66     1.110   .     S
C30    C31     1.535   .     S
C30    O86     1.422   .     S
C30    H69     1.115   .     S
C30    H68     1.111   .     S
C31    C32     1.527   .     S
C31    H258    1.111   1_455 S
C31    H259    1.110   1_455 S
C32    H75     1.111   .     S
C32    H72     1.111   .     S
C32    H261    1.110   1_455 S
C33    O91     1.293   .     A
C33    O92     1.293   .     A
C34    H41     1.081   .     S
C34    N82     1.366   .     A
C34    C601    1.415   1_545 S
C35    N81     1.367   .     A
C35    H52     1.081   .     S
C35    C318    1.415   .     S
C36    N82     1.367   .     A
C36    H63     1.080   .     S
C36    C599    1.415   1_545 S
C37    H74     1.081   .     S
C37    N81     1.367   .     A
C37    C316    1.415   .     S
C38    O94     1.384   .     S
C38    C191    1.389   1_455 S
Cu39   O90     1.955   .     S
Cu39   O88     1.979   .     S
Cu39   N81     2.011   .     S
Cu39   Cu40    2.677   .     S
Cu39   O92     1.956   .     S
Cu39   O83     1.978   .     S
Cu40   O93     1.956   .     S
Cu40   O87     1.978   .     S
Cu40   O89     1.979   .     S
Cu40   N82     2.011   .     S
Cu40   O91     1.955   .     S
H47    C115    1.111   .     S
H48    C115    1.110   .     S
H50    C116    1.106   .     S
H51    C304    1.111   .     S
H70    C125    1.111   .     S
H71    C125    1.110   .     S
H73    C126    1.110   .     S
C95    C113    1.467   .     S
C95    O183    1.294   .     A
C95    O177    1.294   .     A
C96    C112    1.408   .     A
C96    O178    1.384   .     S
C96    C192    1.389   .     S
C97    C112    1.406   .     A
C97    O179    1.385   .     S
C97    C226    1.389   .     S
C98    C113    1.420   .     A
C98    O180    1.387   .     S
C99    C110    1.404   .     A
C99    C103    1.390   .     A
C99    H170    1.083   .     S
C100   H171    1.083   .     S
C100   C111    1.404   .     A
C100   C104    1.389   .     A
C101   C105    1.390   .     A
C101   C111    1.404   .     A
C101   H172    1.083   .     S
C102   C107    1.390   .     A
C102   H173    1.083   .     S
C102   C110    1.404   .     A
C103   H174    1.083   .     S
C103   C108    1.401   .     A
C104   H136    1.083   .     S
C104   C109    1.402   .     A
C105   C109    1.402   .     A
C105   H137    1.083   .     S
C106   O182    1.289   .     A
C106   O181    1.293   .     A
C106   C112    1.455   .     S
C107   C108    1.402   .     A
C107   H138    1.083   .     S
C108   C117    1.459   .     S
C109   C127    1.459   .     S
C110   C957    1.469   1_554 S
C111   C956    1.469   .     S
C113   C132    1.419   .     A
C114   H139    1.108   .     S
C114   O188    1.418   .     S
C114   C115    1.533   .     S
C114   H140    1.114   .     S
C115   C116    1.528   .     S
C116   H143    1.111   .     S
C116   H709    1.111   1_545 S
C117   O187    1.293   .     A
C117   O184    1.293   .     A
C118   H148    1.112   .     S
C118   C119    1.529   .     S
C118   H147    1.117   .     S
C118   O178    1.414   .     S
C119   H150    1.110   .     S
C119   H149    1.107   .     S
C119   C120    1.526   .     S
C120   H153    1.110   .     S
C120   H152    1.110   .     S
C120   H151    1.110   .     S
C121   H154    1.110   .     S
C121   O179    1.419   .     S
C121   H155    1.119   .     S
C121   C122    1.524   .     S
C122   C123    1.526   .     S
C122   H158    1.109   .     S
C122   H156    1.112   .     S
C123   H161    1.111   .     S
C123   H159    1.111   .     S
C123   H160    1.110   .     S
C124   C125    1.535   .     S
C124   O180    1.422   .     S
C124   H163    1.115   .     S
C124   H162    1.111   .     S
C125   C126    1.527   .     S
C126   H169    1.111   .     S
C126   H166    1.111   .     S
C127   O185    1.293   .     A
C127   O186    1.293   .     A
C128   H135    1.081   .     S
C128   N176    1.366   .     A
C128   C695    1.415   1_545 S
C129   N175    1.367   .     A
C129   H146    1.081   .     S
C129   C412    1.415   .     S
C130   N176    1.367   .     A
C130   H157    1.080   .     S
C130   C693    1.415   1_545 S
C131   H168    1.081   .     S
C131   N175    1.367   .     A
C131   C410    1.415   .     S
C132   O188    1.384   .     S
Cu133  O184    1.955   .     S
Cu133  O182    1.979   .     S
Cu133  N175    2.011   .     S
Cu133  Cu134   2.677   .     S
Cu133  O186    1.956   .     S
Cu133  O177    1.978   .     S
Cu134  O187    1.956   .     S
Cu134  O181    1.978   .     S
Cu134  O183    1.979   .     S
Cu134  N176    2.011   .     S
Cu134  O185    1.955   .     S
H141   C209    1.111   .     S
H142   C209    1.110   .     S
H144   C210    1.106   .     S
H145   C398    1.111   .     S
H164   C219    1.111   .     S
H165   C219    1.110   .     S
H167   C220    1.110   .     S
C189   C207    1.467   .     S
C189   O277    1.294   .     A
C189   O271    1.294   .     A
C190   C206    1.408   .     A
C190   O272    1.384   .     S
C190   C4      1.389   1_655 S
C191   C206    1.406   .     A
C191   O273    1.385   .     S
C191   C38     1.389   1_655 S
C192   C207    1.420   .     A
C192   O274    1.387   .     S
C193   C204    1.404   .     A
C193   C197    1.390   .     A
C193   H264    1.083   .     S
C194   H265    1.083   .     S
C194   C205    1.404   .     A
C194   C198    1.389   .     A
C195   C199    1.390   .     A
C195   C205    1.404   .     A
C195   H266    1.083   .     S
C196   C201    1.390   .     A
C196   H267    1.083   .     S
C196   C204    1.404   .     A
C197   H268    1.083   .     S
C197   C202    1.401   .     A
C198   H230    1.083   .     S
C198   C203    1.402   .     A
C199   C203    1.402   .     A
C199   H231    1.083   .     S
C200   O276    1.289   .     A
C200   O275    1.293   .     A
C200   C206    1.455   .     S
C201   C202    1.402   .     A
C201   H232    1.083   .     S
C202   C211    1.459   .     S
C203   C221    1.459   .     S
C204   C1051   1.469   1_554 S
C205   C1050   1.469   .     S
C207   C226    1.419   .     A
C208   H233    1.108   .     S
C208   O282    1.418   .     S
C208   C209    1.533   .     S
C208   H234    1.114   .     S
C209   C210    1.528   .     S
C210   H237    1.111   .     S
C210   H803    1.111   1_545 S
C211   O281    1.293   .     A
C211   O278    1.293   .     A
C212   H242    1.112   .     S
C212   C213    1.529   .     S
C212   H241    1.117   .     S
C212   O272    1.414   .     S
C213   H244    1.110   .     S
C213   H243    1.107   .     S
C213   C214    1.526   .     S
C214   H247    1.110   .     S
C214   H246    1.110   .     S
C214   H245    1.110   .     S
C215   H248    1.110   .     S
C215   O273    1.419   .     S
C215   H249    1.119   .     S
C215   C216    1.524   .     S
C216   C217    1.526   .     S
C216   H252    1.109   .     S
C216   H250    1.112   .     S
C217   H255    1.111   .     S
C217   H253    1.111   .     S
C217   H254    1.110   .     S
C218   C219    1.535   .     S
C218   O274    1.422   .     S
C218   H257    1.115   .     S
C218   H256    1.111   .     S
C219   C220    1.527   .     S
C220   H263    1.111   .     S
C220   H260    1.111   .     S
C221   O279    1.293   .     A
C221   O280    1.293   .     A
C222   H229    1.081   .     S
C222   N270    1.366   .     A
C222   C789    1.415   1_545 S
C223   N269    1.367   .     A
C223   H240    1.081   .     S
C223   C506    1.415   .     S
C224   N270    1.367   .     A
C224   H251    1.080   .     S
C224   C787    1.415   1_545 S
C225   H262    1.081   .     S
C225   N269    1.367   .     A
C225   C504    1.415   .     S
C226   O282    1.384   .     S
Cu227  O278    1.955   .     S
Cu227  O276    1.979   .     S
Cu227  N269    2.011   .     S
Cu227  Cu228   2.677   .     S
Cu227  O280    1.956   .     S
Cu227  O271    1.978   .     S
Cu228  O281    1.956   .     S
Cu228  O275    1.978   .     S
Cu228  O277    1.979   .     S
Cu228  N270    2.011   .     S
Cu228  O279    1.955   .     S
H235   C21     1.111   1_655 S
H236   C21     1.110   1_655 S
H238   C22     1.106   1_655 S
H239   C492    1.111   .     S
H258   C31     1.111   1_655 S
H259   C31     1.110   1_655 S
H261   C32     1.110   1_655 S
C283   C301    1.467   .     S
C283   O371    1.294   .     A
C283   O365    1.294   .     A
C284   C300    1.408   .     A
C284   O366    1.384   .     S
C284   C380    1.389   .     S
C285   C300    1.406   .     A
C285   O367    1.385   .     S
C285   C414    1.389   .     S
C286   C301    1.420   .     A
C286   O368    1.387   .     S
C286   C472    1.389   1_455 S
C287   C298    1.404   .     A
C287   C291    1.390   .     A
C287   H358    1.083   .     S
C288   H359    1.083   .     S
C288   C299    1.404   .     A
C288   C292    1.389   .     A
C289   C293    1.390   .     A
C289   C299    1.404   .     A
C289   H360    1.083   .     S
C290   C295    1.390   .     A
C290   H361    1.083   .     S
C290   C298    1.404   .     A
C291   H362    1.083   .     S
C291   C296    1.401   .     A
C292   H324    1.083   .     S
C292   C297    1.402   .     A
C293   C297    1.402   .     A
C293   H325    1.083   .     S
C294   O370    1.289   .     A
C294   O369    1.293   .     A
C294   C300    1.455   .     S
C295   C296    1.402   .     A
C295   H326    1.083   .     S
C296   C305    1.459   .     S
C297   C315    1.459   .     S
C298   C1145   1.469   1_554 S
C299   C1144   1.469   .     S
C301   C320    1.419   .     A
C302   H327    1.108   .     S
C302   O376    1.418   .     S
C302   C303    1.533   .     S
C302   H328    1.114   .     S
C303   C304    1.528   .     S
C303   H517    1.111   1_455 S
C303   H518    1.110   1_455 S
C304   H331    1.111   .     S
C304   H520    1.106   1_455 S
C305   O375    1.293   .     A
C305   O372    1.293   .     A
C306   H336    1.112   .     S
C306   C307    1.529   .     S
C306   H335    1.117   .     S
C306   O366    1.414   .     S
C307   H338    1.110   .     S
C307   H337    1.107   .     S
C307   C308    1.526   .     S
C308   H341    1.110   .     S
C308   H340    1.110   .     S
C308   H339    1.110   .     S
C309   H342    1.110   .     S
C309   O367    1.419   .     S
C309   H343    1.119   .     S
C309   C310    1.524   .     S
C310   C311    1.526   .     S
C310   H346    1.109   .     S
C310   H344    1.112   .     S
C311   H349    1.111   .     S
C311   H347    1.111   .     S
C311   H348    1.110   .     S
C312   C313    1.535   .     S
C312   O368    1.422   .     S
C312   H351    1.115   .     S
C312   H350    1.111   .     S
C313   C314    1.527   .     S
C313   H540    1.111   1_455 S
C313   H541    1.110   1_455 S
C314   H357    1.111   .     S
C314   H354    1.111   .     S
C314   H543    1.110   1_455 S
C315   O373    1.293   .     A
C315   O374    1.293   .     A
C316   H323    1.081   .     S
C316   N364    1.366   .     A
C317   N363    1.367   .     A
C317   H334    1.081   .     S
C317   C600    1.415   .     S
C318   N364    1.367   .     A
C318   H345    1.080   .     S
C319   H356    1.081   .     S
C319   N363    1.367   .     A
C319   C598    1.415   .     S
C320   O376    1.384   .     S
C320   C473    1.389   1_455 S
Cu321  O372    1.955   .     S
Cu321  O370    1.979   .     S
Cu321  N363    2.011   .     S
Cu321  Cu322   2.677   .     S
Cu321  O374    1.956   .     S
Cu321  O365    1.978   .     S
Cu322  O375    1.956   .     S
Cu322  O369    1.978   .     S
Cu322  O371    1.979   .     S
Cu322  N364    2.011   .     S
Cu322  O373    1.955   .     S
H329   C397    1.111   .     S
H330   C397    1.110   .     S
H332   C398    1.106   .     S
H333   C586    1.111   .     S
H352   C407    1.111   .     S
H353   C407    1.110   .     S
H355   C408    1.110   .     S
C377   C395    1.467   .     S
C377   O465    1.294   .     A
C377   O459    1.294   .     A
C378   C394    1.408   .     A
C378   O460    1.384   .     S
C378   C474    1.389   .     S
C379   C394    1.406   .     A
C379   O461    1.385   .     S
C379   C508    1.389   .     S
C380   C395    1.420   .     A
C380   O462    1.387   .     S
C381   C392    1.404   .     A
C381   C385    1.390   .     A
C381   H452    1.083   .     S
C382   H453    1.083   .     S
C382   C393    1.404   .     A
C382   C386    1.389   .     A
C383   C387    1.390   .     A
C383   C393    1.404   .     A
C383   H454    1.083   .     S
C384   C389    1.390   .     A
C384   H455    1.083   .     S
C384   C392    1.404   .     A
C385   H456    1.083   .     S
C385   C390    1.401   .     A
C386   H418    1.083   .     S
C386   C391    1.402   .     A
C387   C391    1.402   .     A
C387   H419    1.083   .     S
C388   O464    1.289   .     A
C388   O463    1.293   .     A
C388   C394    1.455   .     S
C389   C390    1.402   .     A
C389   H420    1.083   .     S
C390   C399    1.459   .     S
C391   C409    1.459   .     S
C392   C1239   1.469   1_554 S
C393   C1238   1.469   .     S
C395   C414    1.419   .     A
C396   H421    1.108   .     S
C396   O470    1.418   .     S
C396   C397    1.533   .     S
C396   H422    1.114   .     S
C397   C398    1.528   .     S
C398   H425    1.111   .     S
C399   O469    1.293   .     A
C399   O466    1.293   .     A
C400   H430    1.112   .     S
C400   C401    1.529   .     S
C400   H429    1.117   .     S
C400   O460    1.414   .     S
C401   H432    1.110   .     S
C401   H431    1.107   .     S
C401   C402    1.526   .     S
C402   H435    1.110   .     S
C402   H434    1.110   .     S
C402   H433    1.110   .     S
C403   H436    1.110   .     S
C403   O461    1.419   .     S
C403   H437    1.119   .     S
C403   C404    1.524   .     S
C404   C405    1.526   .     S
C404   H440    1.109   .     S
C404   H438    1.112   .     S
C405   H443    1.111   .     S
C405   H441    1.111   .     S
C405   H442    1.110   .     S
C406   C407    1.535   .     S
C406   O462    1.422   .     S
C406   H445    1.115   .     S
C406   H444    1.111   .     S
C407   C408    1.527   .     S
C408   H451    1.111   .     S
C408   H448    1.111   .     S
C409   O467    1.293   .     A
C409   O468    1.293   .     A
C410   H417    1.081   .     S
C410   N458    1.366   .     A
C411   N457    1.367   .     A
C411   H428    1.081   .     S
C411   C694    1.415   .     S
C412   N458    1.367   .     A
C412   H439    1.080   .     S
C413   H450    1.081   .     S
C413   N457    1.367   .     A
C413   C692    1.415   .     S
C414   O470    1.384   .     S
Cu415  O466    1.955   .     S
Cu415  O464    1.979   .     S
Cu415  N457    2.011   .     S
Cu415  Cu416   2.677   .     S
Cu415  O468    1.956   .     S
Cu415  O459    1.978   .     S
Cu416  O469    1.956   .     S
Cu416  O463    1.978   .     S
Cu416  O465    1.979   .     S
Cu416  N458    2.011   .     S
Cu416  O467    1.955   .     S
H423   C491    1.111   .     S
H424   C491    1.110   .     S
H426   C492    1.106   .     S
H427   C680    1.111   .     S
H446   C501    1.111   .     S
H447   C501    1.110   .     S
H449   C502    1.110   .     S
C471   C489    1.467   .     S
C471   O559    1.294   .     A
C471   O553    1.294   .     A
C472   C488    1.408   .     A
C472   O554    1.384   .     S
C472   C286    1.389   1_655 S
C473   C488    1.406   .     A
C473   O555    1.385   .     S
C473   C320    1.389   1_655 S
C474   C489    1.420   .     A
C474   O556    1.387   .     S
C475   C486    1.404   .     A
C475   C479    1.390   .     A
C475   H546    1.083   .     S
C476   H547    1.083   .     S
C476   C487    1.404   .     A
C476   C480    1.389   .     A
C477   C481    1.390   .     A
C477   C487    1.404   .     A
C477   H548    1.083   .     S
C478   C483    1.390   .     A
C478   H549    1.083   .     S
C478   C486    1.404   .     A
C479   H550    1.083   .     S
C479   C484    1.401   .     A
C480   H512    1.083   .     S
C480   C485    1.402   .     A
C481   C485    1.402   .     A
C481   H513    1.083   .     S
C482   O558    1.289   .     A
C482   O557    1.293   .     A
C482   C488    1.455   .     S
C483   C484    1.402   .     A
C483   H514    1.083   .     S
C484   C493    1.459   .     S
C485   C503    1.459   .     S
C486   C1333   1.469   1_554 S
C487   C1332   1.469   .     S
C489   C508    1.419   .     A
C490   H515    1.108   .     S
C490   O564    1.418   .     S
C490   C491    1.533   .     S
C490   H516    1.114   .     S
C491   C492    1.528   .     S
C492   H519    1.111   .     S
C493   O563    1.293   .     A
C493   O560    1.293   .     A
C494   H524    1.112   .     S
C494   C495    1.529   .     S
C494   H523    1.117   .     S
C494   O554    1.414   .     S
C495   H526    1.110   .     S
C495   H525    1.107   .     S
C495   C496    1.526   .     S
C496   H529    1.110   .     S
C496   H528    1.110   .     S
C496   H527    1.110   .     S
C497   H530    1.110   .     S
C497   O555    1.419   .     S
C497   H531    1.119   .     S
C497   C498    1.524   .     S
C498   C499    1.526   .     S
C498   H534    1.109   .     S
C498   H532    1.112   .     S
C499   H537    1.111   .     S
C499   H535    1.111   .     S
C499   H536    1.110   .     S
C500   C501    1.535   .     S
C500   O556    1.422   .     S
C500   H539    1.115   .     S
C500   H538    1.111   .     S
C501   C502    1.527   .     S
C502   H545    1.111   .     S
C502   H542    1.111   .     S
C503   O561    1.293   .     A
C503   O562    1.293   .     A
C504   H511    1.081   .     S
C504   N552    1.366   .     A
C505   N551    1.367   .     A
C505   H522    1.081   .     S
C505   C788    1.415   .     S
C506   N552    1.367   .     A
C506   H533    1.080   .     S
C507   H544    1.081   .     S
C507   N551    1.367   .     A
C507   C786    1.415   .     S
C508   O564    1.384   .     S
Cu509  O560    1.955   .     S
Cu509  O558    1.979   .     S
Cu509  N551    2.011   .     S
Cu509  Cu510   2.677   .     S
Cu509  O562    1.956   .     S
Cu509  O553    1.978   .     S
Cu510  O563    1.956   .     S
Cu510  O557    1.978   .     S
Cu510  O559    1.979   .     S
Cu510  N552    2.011   .     S
Cu510  O561    1.955   .     S
H517   C303    1.111   1_655 S
H518   C303    1.110   1_655 S
H520   C304    1.106   1_655 S
H521   C774    1.111   .     S
H540   C313    1.111   1_655 S
H541   C313    1.110   1_655 S
H543   C314    1.110   1_655 S
C565   C583    1.467   .     S
C565   O653    1.294   .     A
C565   O647    1.294   .     A
C566   C582    1.408   .     A
C566   O648    1.384   .     S
C566   C662    1.389   .     S
C567   C582    1.406   .     A
C567   O649    1.385   .     S
C567   C696    1.389   .     S
C568   C583    1.420   .     A
C568   O650    1.387   .     S
C568   C754    1.389   1_455 S
C569   C580    1.404   .     A
C569   C573    1.390   .     A
C569   H640    1.083   .     S
C570   H641    1.083   .     S
C570   C581    1.404   .     A
C570   C574    1.389   .     A
C571   C575    1.390   .     A
C571   C581    1.404   .     A
C571   H642    1.083   .     S
C572   C577    1.390   .     A
C572   H643    1.083   .     S
C572   C580    1.404   .     A
C573   H644    1.083   .     S
C573   C578    1.401   .     A
C574   H606    1.083   .     S
C574   C579    1.402   .     A
C575   C579    1.402   .     A
C575   H607    1.083   .     S
C576   O652    1.289   .     A
C576   O651    1.293   .     A
C576   C582    1.455   .     S
C577   C578    1.402   .     A
C577   H608    1.083   .     S
C578   C587    1.459   .     S
C579   C597    1.459   .     S
C580   C1427   1.469   1_554 S
C581   C1426   1.469   .     S
C583   C602    1.419   .     A
C584   H609    1.108   .     S
C584   O658    1.418   .     S
C584   C585    1.533   .     S
C584   H610    1.114   .     S
C585   C586    1.528   .     S
C585   H799    1.111   1_455 S
C585   H800    1.110   1_455 S
C586   H613    1.111   .     S
C586   H802    1.106   1_455 S
C587   O657    1.293   .     A
C587   O654    1.293   .     A
C588   H618    1.112   .     S
C588   C589    1.529   .     S
C588   H617    1.117   .     S
C588   O648    1.414   .     S
C589   H620    1.110   .     S
C589   H619    1.107   .     S
C589   C590    1.526   .     S
C590   H623    1.110   .     S
C590   H622    1.110   .     S
C590   H621    1.110   .     S
C591   H624    1.110   .     S
C591   O649    1.419   .     S
C591   H625    1.119   .     S
C591   C592    1.524   .     S
C592   C593    1.526   .     S
C592   H628    1.109   .     S
C592   H626    1.112   .     S
C593   H631    1.111   .     S
C593   H629    1.111   .     S
C593   H630    1.110   .     S
C594   C595    1.535   .     S
C594   O650    1.422   .     S
C594   H633    1.115   .     S
C594   H632    1.111   .     S
C595   C596    1.527   .     S
C595   H822    1.111   1_455 S
C595   H823    1.110   1_455 S
C596   H639    1.111   .     S
C596   H636    1.111   .     S
C596   H825    1.110   1_455 S
C597   O655    1.293   .     A
C597   O656    1.293   .     A
C598   H605    1.081   .     S
C598   N646    1.366   .     A
C599   N645    1.367   .     A
C599   H616    1.081   .     S
C599   C36     1.415   1_565 S
C600   N646    1.367   .     A
C600   H627    1.080   .     S
C601   H638    1.081   .     S
C601   N645    1.367   .     A
C601   C34     1.415   1_565 S
C602   O658    1.384   .     S
C602   C755    1.389   1_455 S
Cu603  O654    1.955   .     S
Cu603  O652    1.979   .     S
Cu603  N645    2.011   .     S
Cu603  Cu604   2.677   .     S
Cu603  O656    1.956   .     S
Cu603  O647    1.978   .     S
Cu604  O657    1.956   .     S
Cu604  O651    1.978   .     S
Cu604  O653    1.979   .     S
Cu604  N646    2.011   .     S
Cu604  O655    1.955   .     S
H611   C679    1.111   .     S
H612   C679    1.110   .     S
H614   C680    1.106   .     S
H615   C22     1.111   1_565 S
H634   C689    1.111   .     S
H635   C689    1.110   .     S
H637   C690    1.110   .     S
C659   C677    1.467   .     S
C659   O747    1.294   .     A
C659   O741    1.294   .     A
C660   C676    1.408   .     A
C660   O742    1.384   .     S
C660   C756    1.389   .     S
C661   C676    1.406   .     A
C661   O743    1.385   .     S
C661   C790    1.389   .     S
C662   C677    1.420   .     A
C662   O744    1.387   .     S
C663   C674    1.404   .     A
C663   C667    1.390   .     A
C663   H734    1.083   .     S
C664   H735    1.083   .     S
C664   C675    1.404   .     A
C664   C668    1.389   .     A
C665   C669    1.390   .     A
C665   C675    1.404   .     A
C665   H736    1.083   .     S
C666   C671    1.390   .     A
C666   H737    1.083   .     S
C666   C674    1.404   .     A
C667   H738    1.083   .     S
C667   C672    1.401   .     A
C668   H700    1.083   .     S
C668   C673    1.402   .     A
C669   C673    1.402   .     A
C669   H701    1.083   .     S
C670   O746    1.289   .     A
C670   O745    1.293   .     A
C670   C676    1.455   .     S
C671   C672    1.402   .     A
C671   H702    1.083   .     S
C672   C681    1.459   .     S
C673   C691    1.459   .     S
C674   C1521   1.469   1_554 S
C675   C1520   1.469   .     S
C677   C696    1.419   .     A
C678   H703    1.108   .     S
C678   O752    1.418   .     S
C678   C679    1.533   .     S
C678   H704    1.114   .     S
C679   C680    1.528   .     S
C680   H707    1.111   .     S
C681   O751    1.293   .     A
C681   O748    1.293   .     A
C682   H712    1.112   .     S
C682   C683    1.529   .     S
C682   H711    1.117   .     S
C682   O742    1.414   .     S
C683   H714    1.110   .     S
C683   H713    1.107   .     S
C683   C684    1.526   .     S
C684   H717    1.110   .     S
C684   H716    1.110   .     S
C684   H715    1.110   .     S
C685   H718    1.110   .     S
C685   O743    1.419   .     S
C685   H719    1.119   .     S
C685   C686    1.524   .     S
C686   C687    1.526   .     S
C686   H722    1.109   .     S
C686   H720    1.112   .     S
C687   H725    1.111   .     S
C687   H723    1.111   .     S
C687   H724    1.110   .     S
C688   C689    1.535   .     S
C688   O744    1.422   .     S
C688   H727    1.115   .     S
C688   H726    1.111   .     S
C689   C690    1.527   .     S
C690   H733    1.111   .     S
C690   H730    1.111   .     S
C691   O749    1.293   .     A
C691   O750    1.293   .     A
C692   H699    1.081   .     S
C692   N740    1.366   .     A
C693   N739    1.367   .     A
C693   H710    1.081   .     S
C693   C130    1.415   1_565 S
C694   N740    1.367   .     A
C694   H721    1.080   .     S
C695   H732    1.081   .     S
C695   N739    1.367   .     A
C695   C128    1.415   1_565 S
C696   O752    1.384   .     S
Cu697  O748    1.955   .     S
Cu697  O746    1.979   .     S
Cu697  N739    2.011   .     S
Cu697  Cu698   2.677   .     S
Cu697  O750    1.956   .     S
Cu697  O741    1.978   .     S
Cu698  O751    1.956   .     S
Cu698  O745    1.978   .     S
Cu698  O747    1.979   .     S
Cu698  N740    2.011   .     S
Cu698  O749    1.955   .     S
H705   C773    1.111   .     S
H706   C773    1.110   .     S
H708   C774    1.106   .     S
H709   C116    1.111   1_565 S
H728   C783    1.111   .     S
H729   C783    1.110   .     S
H731   C784    1.110   .     S
C753   C771    1.467   .     S
C753   O841    1.294   .     A
C753   O835    1.294   .     A
C754   C770    1.408   .     A
C754   O836    1.384   .     S
C754   C568    1.389   1_655 S
C755   C770    1.406   .     A
C755   O837    1.385   .     S
C755   C602    1.389   1_655 S
C756   C771    1.420   .     A
C756   O838    1.387   .     S
C757   C768    1.404   .     A
C757   C761    1.390   .     A
C757   H828    1.083   .     S
C758   H829    1.083   .     S
C758   C769    1.404   .     A
C758   C762    1.389   .     A
C759   C763    1.390   .     A
C759   C769    1.404   .     A
C759   H830    1.083   .     S
C760   C765    1.390   .     A
C760   H831    1.083   .     S
C760   C768    1.404   .     A
C761   H832    1.083   .     S
C761   C766    1.401   .     A
C762   H794    1.083   .     S
C762   C767    1.402   .     A
C763   C767    1.402   .     A
C763   H795    1.083   .     S
C764   O840    1.289   .     A
C764   O839    1.293   .     A
C764   C770    1.455   .     S
C765   C766    1.402   .     A
C765   H796    1.083   .     S
C766   C775    1.459   .     S
C767   C785    1.459   .     S
C768   C1615   1.469   1_554 S
C769   C1614   1.469   .     S
C771   C790    1.419   .     A
C772   H797    1.108   .     S
C772   O846    1.418   .     S
C772   C773    1.533   .     S
C772   H798    1.114   .     S
C773   C774    1.528   .     S
C774   H801    1.111   .     S
C775   O845    1.293   .     A
C775   O842    1.293   .     A
C776   H806    1.112   .     S
C776   C777    1.529   .     S
C776   H805    1.117   .     S
C776   O836    1.414   .     S
C777   H808    1.110   .     S
C777   H807    1.107   .     S
C777   C778    1.526   .     S
C778   H811    1.110   .     S
C778   H810    1.110   .     S
C778   H809    1.110   .     S
C779   H812    1.110   .     S
C779   O837    1.419   .     S
C779   H813    1.119   .     S
C779   C780    1.524   .     S
C780   C781    1.526   .     S
C780   H816    1.109   .     S
C780   H814    1.112   .     S
C781   H819    1.111   .     S
C781   H817    1.111   .     S
C781   H818    1.110   .     S
C782   C783    1.535   .     S
C782   O838    1.422   .     S
C782   H821    1.115   .     S
C782   H820    1.111   .     S
C783   C784    1.527   .     S
C784   H827    1.111   .     S
C784   H824    1.111   .     S
C785   O843    1.293   .     A
C785   O844    1.293   .     A
C786   H793    1.081   .     S
C786   N834    1.366   .     A
C787   N833    1.367   .     A
C787   H804    1.081   .     S
C787   C224    1.415   1_565 S
C788   N834    1.367   .     A
C788   H815    1.080   .     S
C789   H826    1.081   .     S
C789   N833    1.367   .     A
C789   C222    1.415   1_565 S
C790   O846    1.384   .     S
Cu791  O842    1.955   .     S
Cu791  O840    1.979   .     S
Cu791  N833    2.011   .     S
Cu791  Cu792   2.677   .     S
Cu791  O844    1.956   .     S
Cu791  O835    1.978   .     S
Cu792  O845    1.956   .     S
Cu792  O839    1.978   .     S
Cu792  O841    1.979   .     S
Cu792  N834    2.011   .     S
Cu792  O843    1.955   .     S
H799   C585    1.111   1_655 S
H800   C585    1.110   1_655 S
H802   C586    1.106   1_655 S
H803   C210    1.111   1_565 S
H822   C595    1.111   1_655 S
H823   C595    1.110   1_655 S
H825   C596    1.110   1_655 S
C847   C865    1.467   .     S
C847   O935    1.294   .     A
C847   O929    1.294   .     A
C848   C864    1.408   .     A
C848   O930    1.384   .     S
C848   C944    1.389   .     S
C849   C864    1.406   .     A
C849   O931    1.385   .     S
C849   C978    1.389   .     S
C850   C865    1.420   .     A
C850   O932    1.387   .     S
C850   C1036   1.389   1_455 S
C851   C862    1.404   .     A
C851   C855    1.390   .     A
C851   H922    1.083   .     S
C852   H923    1.083   .     S
C852   C863    1.404   .     A
C852   C856    1.389   .     A
C853   C857    1.390   .     A
C853   C863    1.404   .     A
C853   H924    1.083   .     S
C854   C859    1.390   .     A
C854   H925    1.083   .     S
C854   C862    1.404   .     A
C855   H926    1.083   .     S
C855   C860    1.401   .     A
C856   H888    1.083   .     S
C856   C861    1.402   .     A
C857   C861    1.402   .     A
C857   H889    1.083   .     S
C858   O934    1.289   .     A
C858   O933    1.293   .     A
C858   C864    1.455   .     S
C859   C860    1.402   .     A
C859   H890    1.083   .     S
C860   C869    1.459   .     S
C861   C879    1.459   .     S
C863   C16     1.469   1_556 S
C865   C884    1.419   .     A
C866   H891    1.108   .     S
C866   O940    1.418   .     S
C866   C867    1.533   .     S
C866   H892    1.114   .     S
C867   C868    1.528   .     S
C867   H1081   1.111   1_455 S
C867   H1082   1.110   1_455 S
C868   H895    1.111   .     S
C868   H1084   1.106   1_455 S
C868   H1461   1.111   1_545 S
C869   O939    1.293   .     A
C869   O936    1.293   .     A
C870   H900    1.112   .     S
C870   C871    1.529   .     S
C870   H899    1.117   .     S
C870   O930    1.414   .     S
C871   H902    1.110   .     S
C871   H901    1.107   .     S
C871   C872    1.526   .     S
C872   H905    1.110   .     S
C872   H904    1.110   .     S
C872   H903    1.110   .     S
C873   H906    1.110   .     S
C873   O931    1.419   .     S
C873   H907    1.119   .     S
C873   C874    1.524   .     S
C874   C875    1.526   .     S
C874   H910    1.109   .     S
C874   H908    1.112   .     S
C875   H913    1.111   .     S
C875   H911    1.111   .     S
C875   H912    1.110   .     S
C876   C877    1.535   .     S
C876   O932    1.422   .     S
C876   H915    1.115   .     S
C876   H914    1.111   .     S
C877   C878    1.527   .     S
C877   H1104   1.111   1_455 S
C877   H1105   1.110   1_455 S
C878   H921    1.111   .     S
C878   H918    1.111   .     S
C878   H1107   1.110   1_455 S
C879   O937    1.293   .     A
C879   O938    1.293   .     A
C880   H887    1.081   .     S
C880   N928    1.366   .     A
C880   C1447   1.415   1_545 S
C881   N927    1.367   .     A
C881   H898    1.081   .     S
C881   C1164   1.415   .     S
C882   N928    1.367   .     A
C882   H909    1.080   .     S
C882   C1445   1.415   1_545 S
C883   H920    1.081   .     S
C883   N927    1.367   .     A
C883   C1162   1.415   .     S
C884   O940    1.384   .     S
C884   C1037   1.389   1_455 S
Cu885  O936    1.955   .     S
Cu885  O934    1.979   .     S
Cu885  N927    2.011   .     S
Cu885  Cu886   2.677   .     S
Cu885  O938    1.956   .     S
Cu885  O929    1.978   .     S
Cu886  O939    1.956   .     S
Cu886  O933    1.978   .     S
Cu886  O935    1.979   .     S
Cu886  N928    2.011   .     S
Cu886  O937    1.955   .     S
H893   C961    1.111   .     S
H894   C961    1.110   .     S
H896   C962    1.106   .     S
H897   C1150   1.111   .     S
H916   C971    1.111   .     S
H917   C971    1.110   .     S
H919   C972    1.110   .     S
C941   C959    1.467   .     S
C941   O1029   1.294   .     A
C941   O1023   1.294   .     A
C942   C958    1.408   .     A
C942   O1024   1.384   .     S
C942   C1038   1.389   .     S
C943   C958    1.406   .     A
C943   O1025   1.385   .     S
C943   C1072   1.389   .     S
C944   C959    1.420   .     A
C944   O1026   1.387   .     S
C945   C956    1.404   .     A
C945   C949    1.390   .     A
C945   H1016   1.083   .     S
C946   H1017   1.083   .     S
C946   C957    1.404   .     A
C946   C950    1.389   .     A
C947   C951    1.390   .     A
C947   C957    1.404   .     A
C947   H1018   1.083   .     S
C948   C953    1.390   .     A
C948   H1019   1.083   .     S
C948   C956    1.404   .     A
C949   H1020   1.083   .     S
C949   C954    1.401   .     A
C950   H982    1.083   .     S
C950   C955    1.402   .     A
C951   C955    1.402   .     A
C951   H983    1.083   .     S
C952   O1028   1.289   .     A
C952   O1027   1.293   .     A
C952   C958    1.455   .     S
C953   C954    1.402   .     A
C953   H984    1.083   .     S
C954   C963    1.459   .     S
C955   C973    1.459   .     S
C957   C110    1.469   1_556 S
C959   C978    1.419   .     A
C960   H985    1.108   .     S
C960   O1034   1.418   .     S
C960   C961    1.533   .     S
C960   H986    1.114   .     S
C961   C962    1.528   .     S
C962   H989    1.111   .     S
C962   H1555   1.111   1_545 S
C963   O1033   1.293   .     A
C963   O1030   1.293   .     A
C964   H994    1.112   .     S
C964   C965    1.529   .     S
C964   H993    1.117   .     S
C964   O1024   1.414   .     S
C965   H996    1.110   .     S
C965   H995    1.107   .     S
C965   C966    1.526   .     S
C966   H999    1.110   .     S
C966   H998    1.110   .     S
C966   H997    1.110   .     S
C967   H1000   1.110   .     S
C967   O1025   1.419   .     S
C967   H1001   1.119   .     S
C967   C968    1.524   .     S
C968   C969    1.526   .     S
C968   H1004   1.109   .     S
C968   H1002   1.112   .     S
C969   H1007   1.111   .     S
C969   H1005   1.111   .     S
C969   H1006   1.110   .     S
C970   C971    1.535   .     S
C970   O1026   1.422   .     S
C970   H1009   1.115   .     S
C970   H1008   1.111   .     S
C971   C972    1.527   .     S
C972   H1015   1.111   .     S
C972   H1012   1.111   .     S
C973   O1031   1.293   .     A
C973   O1032   1.293   .     A
C974   H981    1.081   .     S
C974   N1022   1.366   .     A
C974   C1541   1.415   1_545 S
C975   N1021   1.367   .     A
C975   H992    1.081   .     S
C975   C1258   1.415   .     S
C976   N1022   1.367   .     A
C976   H1003   1.080   .     S
C976   C1539   1.415   1_545 S
C977   H1014   1.081   .     S
C977   N1021   1.367   .     A
C977   C1256   1.415   .     S
C978   O1034   1.384   .     S
Cu979  O1030   1.955   .     S
Cu979  O1028   1.979   .     S
Cu979  N1021   2.011   .     S
Cu979  Cu980   2.677   .     S
Cu979  O1032   1.956   .     S
Cu979  O1023   1.978   .     S
Cu980  O1033   1.956   .     S
Cu980  O1027   1.978   .     S
Cu980  O1029   1.979   .     S
Cu980  N1022   2.011   .     S
Cu980  O1031   1.955   .     S
H987   C1055   1.111   .     S
H988   C1055   1.110   .     S
H990   C1056   1.106   .     S
H991   C1244   1.111   .     S
H1010  C1065   1.111   .     S
H1011  C1065   1.110   .     S
H1013  C1066   1.110   .     S
C1035  C1053   1.467   .     S
C1035  O1123   1.294   .     A
C1035  O1117   1.294   .     A
C1036  C1052   1.408   .     A
C1036  O1118   1.384   .     S
C1036  C850    1.389   1_655 S
C1037  C1052   1.406   .     A
C1037  O1119   1.385   .     S
C1037  C884    1.389   1_655 S
C1038  C1053   1.420   .     A
C1038  O1120   1.387   .     S
C1039  C1050   1.404   .     A
C1039  C1043   1.390   .     A
C1039  H1110   1.083   .     S
C1040  H1111   1.083   .     S
C1040  C1051   1.404   .     A
C1040  C1044   1.389   .     A
C1041  C1045   1.390   .     A
C1041  C1051   1.404   .     A
C1041  H1112   1.083   .     S
C1042  C1047   1.390   .     A
C1042  H1113   1.083   .     S
C1042  C1050   1.404   .     A
C1043  H1114   1.083   .     S
C1043  C1048   1.401   .     A
C1044  H1076   1.083   .     S
C1044  C1049   1.402   .     A
C1045  C1049   1.402   .     A
C1045  H1077   1.083   .     S
C1046  O1122   1.289   .     A
C1046  O1121   1.293   .     A
C1046  C1052   1.455   .     S
C1047  C1048   1.402   .     A
C1047  H1078   1.083   .     S
C1048  C1057   1.459   .     S
C1049  C1067   1.459   .     S
C1051  C204    1.469   1_556 S
C1053  C1072   1.419   .     A
C1054  H1079   1.108   .     S
C1054  O1128   1.418   .     S
C1054  C1055   1.533   .     S
C1054  H1080   1.114   .     S
C1055  C1056   1.528   .     S
C1056  H1083   1.111   .     S
C1056  H1649   1.111   1_545 S
C1057  O1127   1.293   .     A
C1057  O1124   1.293   .     A
C1058  H1088   1.112   .     S
C1058  C1059   1.529   .     S
C1058  H1087   1.117   .     S
C1058  O1118   1.414   .     S
C1059  H1090   1.110   .     S
C1059  H1089   1.107   .     S
C1059  C1060   1.526   .     S
C1060  H1093   1.110   .     S
C1060  H1092   1.110   .     S
C1060  H1091   1.110   .     S
C1061  H1094   1.110   .     S
C1061  O1119   1.419   .     S
C1061  H1095   1.119   .     S
C1061  C1062   1.524   .     S
C1062  C1063   1.526   .     S
C1062  H1098   1.109   .     S
C1062  H1096   1.112   .     S
C1063  H1101   1.111   .     S
C1063  H1099   1.111   .     S
C1063  H1100   1.110   .     S
C1064  C1065   1.535   .     S
C1064  O1120   1.422   .     S
C1064  H1103   1.115   .     S
C1064  H1102   1.111   .     S
C1065  C1066   1.527   .     S
C1066  H1109   1.111   .     S
C1066  H1106   1.111   .     S
C1067  O1125   1.293   .     A
C1067  O1126   1.293   .     A
C1068  H1075   1.081   .     S
C1068  N1116   1.366   .     A
C1068  C1635   1.415   1_545 S
C1069  N1115   1.367   .     A
C1069  H1086   1.081   .     S
C1069  C1352   1.415   .     S
C1070  N1116   1.367   .     A
C1070  H1097   1.080   .     S
C1070  C1633   1.415   1_545 S
C1071  H1108   1.081   .     S
C1071  N1115   1.367   .     A
C1071  C1350   1.415   .     S
C1072  O1128   1.384   .     S
Cu1073 O1124   1.955   .     S
Cu1073 O1122   1.979   .     S
Cu1073 N1115   2.011   .     S
Cu1073 Cu1074  2.677   .     S
Cu1073 O1126   1.956   .     S
Cu1073 O1117   1.978   .     S
Cu1074 O1127   1.956   .     S
Cu1074 O1121   1.978   .     S
Cu1074 O1123   1.979   .     S
Cu1074 N1116   2.011   .     S
Cu1074 O1125   1.955   .     S
H1081  C867    1.111   1_655 S
H1082  C867    1.110   1_655 S
H1084  C868    1.106   1_655 S
H1085  C1338   1.111   .     S
H1104  C877    1.111   1_655 S
H1105  C877    1.110   1_655 S
H1107  C878    1.110   1_655 S
C1129  C1147   1.467   .     S
C1129  O1217   1.294   .     A
C1129  O1211   1.294   .     A
C1130  C1146   1.408   .     A
C1130  O1212   1.384   .     S
C1130  C1226   1.389   .     S
C1131  C1146   1.406   .     A
C1131  O1213   1.385   .     S
C1131  C1260   1.389   .     S
C1132  C1147   1.420   .     A
C1132  O1214   1.387   .     S
C1132  C1318   1.389   1_455 S
C1133  C1144   1.404   .     A
C1133  C1137   1.390   .     A
C1133  H1204   1.083   .     S
C1134  H1205   1.083   .     S
C1134  C1145   1.404   .     A
C1134  C1138   1.389   .     A
C1135  C1139   1.390   .     A
C1135  C1145   1.404   .     A
C1135  H1206   1.083   .     S
C1136  C1141   1.390   .     A
C1136  H1207   1.083   .     S
C1136  C1144   1.404   .     A
C1137  H1208   1.083   .     S
C1137  C1142   1.401   .     A
C1138  H1170   1.083   .     S
C1138  C1143   1.402   .     A
C1139  C1143   1.402   .     A
C1139  H1171   1.083   .     S
C1140  O1216   1.289   .     A
C1140  O1215   1.293   .     A
C1140  C1146   1.455   .     S
C1141  C1142   1.402   .     A
C1141  H1172   1.083   .     S
C1142  C1151   1.459   .     S
C1143  C1161   1.459   .     S
C1145  C298    1.469   1_556 S
C1147  C1166   1.419   .     A
C1148  H1173   1.108   .     S
C1148  O1222   1.418   .     S
C1148  C1149   1.533   .     S
C1148  H1174   1.114   .     S
C1149  C1150   1.528   .     S
C1149  H1363   1.111   1_455 S
C1149  H1364   1.110   1_455 S
C1150  H1177   1.111   .     S
C1150  H1366   1.106   1_455 S
C1151  O1221   1.293   .     A
C1151  O1218   1.293   .     A
C1152  H1182   1.112   .     S
C1152  C1153   1.529   .     S
C1152  H1181   1.117   .     S
C1152  O1212   1.414   .     S
C1153  H1184   1.110   .     S
C1153  H1183   1.107   .     S
C1153  C1154   1.526   .     S
C1154  H1187   1.110   .     S
C1154  H1186   1.110   .     S
C1154  H1185   1.110   .     S
C1155  H1188   1.110   .     S
C1155  O1213   1.419   .     S
C1155  H1189   1.119   .     S
C1155  C1156   1.524   .     S
C1156  C1157   1.526   .     S
C1156  H1192   1.109   .     S
C1156  H1190   1.112   .     S
C1157  H1195   1.111   .     S
C1157  H1193   1.111   .     S
C1157  H1194   1.110   .     S
C1158  C1159   1.535   .     S
C1158  O1214   1.422   .     S
C1158  H1197   1.115   .     S
C1158  H1196   1.111   .     S
C1159  C1160   1.527   .     S
C1159  H1386   1.111   1_455 S
C1159  H1387   1.110   1_455 S
C1160  H1203   1.111   .     S
C1160  H1200   1.111   .     S
C1160  H1389   1.110   1_455 S
C1161  O1219   1.293   .     A
C1161  O1220   1.293   .     A
C1162  H1169   1.081   .     S
C1162  N1210   1.366   .     A
C1163  N1209   1.367   .     A
C1163  H1180   1.081   .     S
C1163  C1446   1.415   .     S
C1164  N1210   1.367   .     A
C1164  H1191   1.080   .     S
C1165  H1202   1.081   .     S
C1165  N1209   1.367   .     A
C1165  C1444   1.415   .     S
C1166  O1222   1.384   .     S
C1166  C1319   1.389   1_455 S
Cu1167 O1218   1.955   .     S
Cu1167 O1216   1.979   .     S
Cu1167 N1209   2.011   .     S
Cu1167 Cu1168  2.677   .     S
Cu1167 O1220   1.956   .     S
Cu1167 O1211   1.978   .     S
Cu1168 O1221   1.956   .     S
Cu1168 O1215   1.978   .     S
Cu1168 O1217   1.979   .     S
Cu1168 N1210   2.011   .     S
Cu1168 O1219   1.955   .     S
H1175  C1243   1.111   .     S
H1176  C1243   1.110   .     S
H1178  C1244   1.106   .     S
H1179  C1432   1.111   .     S
H1198  C1253   1.111   .     S
H1199  C1253   1.110   .     S
H1201  C1254   1.110   .     S
C1223  C1241   1.467   .     S
C1223  O1311   1.294   .     A
C1223  O1305   1.294   .     A
C1224  C1240   1.408   .     A
C1224  O1306   1.384   .     S
C1224  C1320   1.389   .     S
C1225  C1240   1.406   .     A
C1225  O1307   1.385   .     S
C1225  C1354   1.389   .     S
C1226  C1241   1.420   .     A
C1226  O1308   1.387   .     S
C1227  C1238   1.404   .     A
C1227  C1231   1.390   .     A
C1227  H1298   1.083   .     S
C1228  H1299   1.083   .     S
C1228  C1239   1.404   .     A
C1228  C1232   1.389   .     A
C1229  C1233   1.390   .     A
C1229  C1239   1.404   .     A
C1229  H1300   1.083   .     S
C1230  C1235   1.390   .     A
C1230  H1301   1.083   .     S
C1230  C1238   1.404   .     A
C1231  H1302   1.083   .     S
C1231  C1236   1.401   .     A
C1232  H1264   1.083   .     S
C1232  C1237   1.402   .     A
C1233  C1237   1.402   .     A
C1233  H1265   1.083   .     S
C1234  O1310   1.289   .     A
C1234  O1309   1.293   .     A
C1234  C1240   1.455   .     S
C1235  C1236   1.402   .     A
C1235  H1266   1.083   .     S
C1236  C1245   1.459   .     S
C1237  C1255   1.459   .     S
C1239  C392    1.469   1_556 S
C1241  C1260   1.419   .     A
C1242  H1267   1.108   .     S
C1242  O1316   1.418   .     S
C1242  C1243   1.533   .     S
C1242  H1268   1.114   .     S
C1243  C1244   1.528   .     S
C1244  H1271   1.111   .     S
C1245  O1315   1.293   .     A
C1245  O1312   1.293   .     A
C1246  H1276   1.112   .     S
C1246  C1247   1.529   .     S
C1246  H1275   1.117   .     S
C1246  O1306   1.414   .     S
C1247  H1278   1.110   .     S
C1247  H1277   1.107   .     S
C1247  C1248   1.526   .     S
C1248  H1281   1.110   .     S
C1248  H1280   1.110   .     S
C1248  H1279   1.110   .     S
C1249  H1282   1.110   .     S
C1249  O1307   1.419   .     S
C1249  H1283   1.119   .     S
C1249  C1250   1.524   .     S
C1250  C1251   1.526   .     S
C1250  H1286   1.109   .     S
C1250  H1284   1.112   .     S
C1251  H1289   1.111   .     S
C1251  H1287   1.111   .     S
C1251  H1288   1.110   .     S
C1252  C1253   1.535   .     S
C1252  O1308   1.422   .     S
C1252  H1291   1.115   .     S
C1252  H1290   1.111   .     S
C1253  C1254   1.527   .     S
C1254  H1297   1.111   .     S
C1254  H1294   1.111   .     S
C1255  O1313   1.293   .     A
C1255  O1314   1.293   .     A
C1256  H1263   1.081   .     S
C1256  N1304   1.366   .     A
C1257  N1303   1.367   .     A
C1257  H1274   1.081   .     S
C1257  C1540   1.415   .     S
C1258  N1304   1.367   .     A
C1258  H1285   1.080   .     S
C1259  H1296   1.081   .     S
C1259  N1303   1.367   .     A
C1259  C1538   1.415   .     S
C1260  O1316   1.384   .     S
Cu1261 O1312   1.955   .     S
Cu1261 O1310   1.979   .     S
Cu1261 N1303   2.011   .     S
Cu1261 Cu1262  2.677   .     S
Cu1261 O1314   1.956   .     S
Cu1261 O1305   1.978   .     S
Cu1262 O1315   1.956   .     S
Cu1262 O1309   1.978   .     S
Cu1262 O1311   1.979   .     S
Cu1262 N1304   2.011   .     S
Cu1262 O1313   1.955   .     S
H1269  C1337   1.111   .     S
H1270  C1337   1.110   .     S
H1272  C1338   1.106   .     S
H1273  C1526   1.111   .     S
H1292  C1347   1.111   .     S
H1293  C1347   1.110   .     S
H1295  C1348   1.110   .     S
C1317  C1335   1.467   .     S
C1317  O1405   1.294   .     A
C1317  O1399   1.294   .     A
C1318  C1334   1.408   .     A
C1318  O1400   1.384   .     S
C1318  C1132   1.389   1_655 S
C1319  C1334   1.406   .     A
C1319  O1401   1.385   .     S
C1319  C1166   1.389   1_655 S
C1320  C1335   1.420   .     A
C1320  O1402   1.387   .     S
C1321  C1332   1.404   .     A
C1321  C1325   1.390   .     A
C1321  H1392   1.083   .     S
C1322  H1393   1.083   .     S
C1322  C1333   1.404   .     A
C1322  C1326   1.389   .     A
C1323  C1327   1.390   .     A
C1323  C1333   1.404   .     A
C1323  H1394   1.083   .     S
C1324  C1329   1.390   .     A
C1324  H1395   1.083   .     S
C1324  C1332   1.404   .     A
C1325  H1396   1.083   .     S
C1325  C1330   1.401   .     A
C1326  H1358   1.083   .     S
C1326  C1331   1.402   .     A
C1327  C1331   1.402   .     A
C1327  H1359   1.083   .     S
C1328  O1404   1.289   .     A
C1328  O1403   1.293   .     A
C1328  C1334   1.455   .     S
C1329  C1330   1.402   .     A
C1329  H1360   1.083   .     S
C1330  C1339   1.459   .     S
C1331  C1349   1.459   .     S
C1333  C486    1.469   1_556 S
C1335  C1354   1.419   .     A
C1336  H1361   1.108   .     S
C1336  O1410   1.418   .     S
C1336  C1337   1.533   .     S
C1336  H1362   1.114   .     S
C1337  C1338   1.528   .     S
C1338  H1365   1.111   .     S
C1339  O1409   1.293   .     A
C1339  O1406   1.293   .     A
C1340  H1370   1.112   .     S
C1340  C1341   1.529   .     S
C1340  H1369   1.117   .     S
C1340  O1400   1.414   .     S
C1341  H1372   1.110   .     S
C1341  H1371   1.107   .     S
C1341  C1342   1.526   .     S
C1342  H1375   1.110   .     S
C1342  H1374   1.110   .     S
C1342  H1373   1.110   .     S
C1343  H1376   1.110   .     S
C1343  O1401   1.419   .     S
C1343  H1377   1.119   .     S
C1343  C1344   1.524   .     S
C1344  C1345   1.526   .     S
C1344  H1380   1.109   .     S
C1344  H1378   1.112   .     S
C1345  H1383   1.111   .     S
C1345  H1381   1.111   .     S
C1345  H1382   1.110   .     S
C1346  C1347   1.535   .     S
C1346  O1402   1.422   .     S
C1346  H1385   1.115   .     S
C1346  H1384   1.111   .     S
C1347  C1348   1.527   .     S
C1348  H1391   1.111   .     S
C1348  H1388   1.111   .     S
C1349  O1407   1.293   .     A
C1349  O1408   1.293   .     A
C1350  H1357   1.081   .     S
C1350  N1398   1.366   .     A
C1351  N1397   1.367   .     A
C1351  H1368   1.081   .     S
C1351  C1634   1.415   .     S
C1352  N1398   1.367   .     A
C1352  H1379   1.080   .     S
C1353  H1390   1.081   .     S
C1353  N1397   1.367   .     A
C1353  C1632   1.415   .     S
C1354  O1410   1.384   .     S
Cu1355 O1406   1.955   .     S
Cu1355 O1404   1.979   .     S
Cu1355 N1397   2.011   .     S
Cu1355 Cu1356  2.677   .     S
Cu1355 O1408   1.956   .     S
Cu1355 O1399   1.978   .     S
Cu1356 O1409   1.956   .     S
Cu1356 O1403   1.978   .     S
Cu1356 O1405   1.979   .     S
Cu1356 N1398   2.011   .     S
Cu1356 O1407   1.955   .     S
H1363  C1149   1.111   1_655 S
H1364  C1149   1.110   1_655 S
H1366  C1150   1.106   1_655 S
H1367  C1620   1.111   .     S
H1386  C1159   1.111   1_655 S
H1387  C1159   1.110   1_655 S
H1389  C1160   1.110   1_655 S
C1411  C1429   1.467   .     S
C1411  O1499   1.294   .     A
C1411  O1493   1.294   .     A
C1412  C1428   1.408   .     A
C1412  O1494   1.384   .     S
C1412  C1508   1.389   .     S
C1413  C1428   1.406   .     A
C1413  O1495   1.385   .     S
C1413  C1542   1.389   .     S
C1414  C1429   1.420   .     A
C1414  O1496   1.387   .     S
C1414  C1600   1.389   1_455 S
C1415  C1426   1.404   .     A
C1415  C1419   1.390   .     A
C1415  H1486   1.083   .     S
C1416  H1487   1.083   .     S
C1416  C1427   1.404   .     A
C1416  C1420   1.389   .     A
C1417  C1421   1.390   .     A
C1417  C1427   1.404   .     A
C1417  H1488   1.083   .     S
C1418  C1423   1.390   .     A
C1418  H1489   1.083   .     S
C1418  C1426   1.404   .     A
C1419  H1490   1.083   .     S
C1419  C1424   1.401   .     A
C1420  H1452   1.083   .     S
C1420  C1425   1.402   .     A
C1421  C1425   1.402   .     A
C1421  H1453   1.083   .     S
C1422  O1498   1.289   .     A
C1422  O1497   1.293   .     A
C1422  C1428   1.455   .     S
C1423  C1424   1.402   .     A
C1423  H1454   1.083   .     S
C1424  C1433   1.459   .     S
C1425  C1443   1.459   .     S
C1427  C580    1.469   1_556 S
C1429  C1448   1.419   .     A
C1430  H1455   1.108   .     S
C1430  O1504   1.418   .     S
C1430  C1431   1.533   .     S
C1430  H1456   1.114   .     S
C1431  C1432   1.528   .     S
C1431  H1645   1.111   1_455 S
C1431  H1646   1.110   1_455 S
C1432  H1459   1.111   .     S
C1432  H1648   1.106   1_455 S
C1433  O1503   1.293   .     A
C1433  O1500   1.293   .     A
C1434  H1464   1.112   .     S
C1434  C1435   1.529   .     S
C1434  H1463   1.117   .     S
C1434  O1494   1.414   .     S
C1435  H1466   1.110   .     S
C1435  H1465   1.107   .     S
C1435  C1436   1.526   .     S
C1436  H1469   1.110   .     S
C1436  H1468   1.110   .     S
C1436  H1467   1.110   .     S
C1437  H1470   1.110   .     S
C1437  O1495   1.419   .     S
C1437  H1471   1.119   .     S
C1437  C1438   1.524   .     S
C1438  C1439   1.526   .     S
C1438  H1474   1.109   .     S
C1438  H1472   1.112   .     S
C1439  H1477   1.111   .     S
C1439  H1475   1.111   .     S
C1439  H1476   1.110   .     S
C1440  C1441   1.535   .     S
C1440  O1496   1.422   .     S
C1440  H1479   1.115   .     S
C1440  H1478   1.111   .     S
C1441  C1442   1.527   .     S
C1441  H1668   1.111   1_455 S
C1441  H1669   1.110   1_455 S
C1442  H1485   1.111   .     S
C1442  H1482   1.111   .     S
C1442  H1671   1.110   1_455 S
C1443  O1501   1.293   .     A
C1443  O1502   1.293   .     A
C1444  H1451   1.081   .     S
C1444  N1492   1.366   .     A
C1445  N1491   1.367   .     A
C1445  H1462   1.081   .     S
C1445  C882    1.415   1_565 S
C1446  N1492   1.367   .     A
C1446  H1473   1.080   .     S
C1447  H1484   1.081   .     S
C1447  N1491   1.367   .     A
C1447  C880    1.415   1_565 S
C1448  O1504   1.384   .     S
C1448  C1601   1.389   1_455 S
Cu1449 O1500   1.955   .     S
Cu1449 O1498   1.979   .     S
Cu1449 N1491   2.011   .     S
Cu1449 Cu1450  2.677   .     S
Cu1449 O1502   1.956   .     S
Cu1449 O1493   1.978   .     S
Cu1450 O1503   1.956   .     S
Cu1450 O1497   1.978   .     S
Cu1450 O1499   1.979   .     S
Cu1450 N1492   2.011   .     S
Cu1450 O1501   1.955   .     S
H1457  C1525   1.111   .     S
H1458  C1525   1.110   .     S
H1460  C1526   1.106   .     S
H1461  C868    1.111   1_565 S
H1480  C1535   1.111   .     S
H1481  C1535   1.110   .     S
H1483  C1536   1.110   .     S
C1505  C1523   1.467   .     S
C1505  O1593   1.294   .     A
C1505  O1587   1.294   .     A
C1506  C1522   1.408   .     A
C1506  O1588   1.384   .     S
C1506  C1602   1.389   .     S
C1507  C1522   1.406   .     A
C1507  O1589   1.385   .     S
C1507  C1636   1.389   .     S
C1508  C1523   1.420   .     A
C1508  O1590   1.387   .     S
C1509  C1520   1.404   .     A
C1509  C1513   1.390   .     A
C1509  H1580   1.083   .     S
C1510  H1581   1.083   .     S
C1510  C1521   1.404   .     A
C1510  C1514   1.389   .     A
C1511  C1515   1.390   .     A
C1511  C1521   1.404   .     A
C1511  H1582   1.083   .     S
C1512  C1517   1.390   .     A
C1512  H1583   1.083   .     S
C1512  C1520   1.404   .     A
C1513  H1584   1.083   .     S
C1513  C1518   1.401   .     A
C1514  H1546   1.083   .     S
C1514  C1519   1.402   .     A
C1515  C1519   1.402   .     A
C1515  H1547   1.083   .     S
C1516  O1592   1.289   .     A
C1516  O1591   1.293   .     A
C1516  C1522   1.455   .     S
C1517  C1518   1.402   .     A
C1517  H1548   1.083   .     S
C1518  C1527   1.459   .     S
C1519  C1537   1.459   .     S
C1521  C674    1.469   1_556 S
C1523  C1542   1.419   .     A
C1524  H1549   1.108   .     S
C1524  O1598   1.418   .     S
C1524  C1525   1.533   .     S
C1524  H1550   1.114   .     S
C1525  C1526   1.528   .     S
C1526  H1553   1.111   .     S
C1527  O1597   1.293   .     A
C1527  O1594   1.293   .     A
C1528  H1558   1.112   .     S
C1528  C1529   1.529   .     S
C1528  H1557   1.117   .     S
C1528  O1588   1.414   .     S
C1529  H1560   1.110   .     S
C1529  H1559   1.107   .     S
C1529  C1530   1.526   .     S
C1530  H1563   1.110   .     S
C1530  H1562   1.110   .     S
C1530  H1561   1.110   .     S
C1531  H1564   1.110   .     S
C1531  O1589   1.419   .     S
C1531  H1565   1.119   .     S
C1531  C1532   1.524   .     S
C1532  C1533   1.526   .     S
C1532  H1568   1.109   .     S
C1532  H1566   1.112   .     S
C1533  H1571   1.111   .     S
C1533  H1569   1.111   .     S
C1533  H1570   1.110   .     S
C1534  C1535   1.535   .     S
C1534  O1590   1.422   .     S
C1534  H1573   1.115   .     S
C1534  H1572   1.111   .     S
C1535  C1536   1.527   .     S
C1536  H1579   1.111   .     S
C1536  H1576   1.111   .     S
C1537  O1595   1.293   .     A
C1537  O1596   1.293   .     A
C1538  H1545   1.081   .     S
C1538  N1586   1.366   .     A
C1539  N1585   1.367   .     A
C1539  H1556   1.081   .     S
C1539  C976    1.415   1_565 S
C1540  N1586   1.367   .     A
C1540  H1567   1.080   .     S
C1541  H1578   1.081   .     S
C1541  N1585   1.367   .     A
C1541  C974    1.415   1_565 S
C1542  O1598   1.384   .     S
Cu1543 O1594   1.955   .     S
Cu1543 O1592   1.979   .     S
Cu1543 N1585   2.011   .     S
Cu1543 Cu1544  2.677   .     S
Cu1543 O1596   1.956   .     S
Cu1543 O1587   1.978   .     S
Cu1544 O1597   1.956   .     S
Cu1544 O1591   1.978   .     S
Cu1544 O1593   1.979   .     S
Cu1544 N1586   2.011   .     S
Cu1544 O1595   1.955   .     S
H1551  C1619   1.111   .     S
H1552  C1619   1.110   .     S
H1554  C1620   1.106   .     S
H1555  C962    1.111   1_565 S
H1574  C1629   1.111   .     S
H1575  C1629   1.110   .     S
H1577  C1630   1.110   .     S
C1599  C1617   1.467   .     S
C1599  O1687   1.294   .     A
C1599  O1681   1.294   .     A
C1600  C1616   1.408   .     A
C1600  O1682   1.384   .     S
C1600  C1414   1.389   1_655 S
C1601  C1616   1.406   .     A
C1601  O1683   1.385   .     S
C1601  C1448   1.389   1_655 S
C1602  C1617   1.420   .     A
C1602  O1684   1.387   .     S
C1603  C1614   1.404   .     A
C1603  C1607   1.390   .     A
C1603  H1674   1.083   .     S
C1604  H1675   1.083   .     S
C1604  C1615   1.404   .     A
C1604  C1608   1.389   .     A
C1605  C1609   1.390   .     A
C1605  C1615   1.404   .     A
C1605  H1676   1.083   .     S
C1606  C1611   1.390   .     A
C1606  H1677   1.083   .     S
C1606  C1614   1.404   .     A
C1607  H1678   1.083   .     S
C1607  C1612   1.401   .     A
C1608  H1640   1.083   .     S
C1608  C1613   1.402   .     A
C1609  C1613   1.402   .     A
C1609  H1641   1.083   .     S
C1610  O1686   1.289   .     A
C1610  O1685   1.293   .     A
C1610  C1616   1.455   .     S
C1611  C1612   1.402   .     A
C1611  H1642   1.083   .     S
C1612  C1621   1.459   .     S
C1613  C1631   1.459   .     S
C1615  C768    1.469   1_556 S
C1617  C1636   1.419   .     A
C1618  H1643   1.108   .     S
C1618  O1692   1.418   .     S
C1618  C1619   1.533   .     S
C1618  H1644   1.114   .     S
C1619  C1620   1.528   .     S
C1620  H1647   1.111   .     S
C1621  O1691   1.293   .     A
C1621  O1688   1.293   .     A
C1622  H1652   1.112   .     S
C1622  C1623   1.529   .     S
C1622  H1651   1.117   .     S
C1622  O1682   1.414   .     S
C1623  H1654   1.110   .     S
C1623  H1653   1.107   .     S
C1623  C1624   1.526   .     S
C1624  H1657   1.110   .     S
C1624  H1656   1.110   .     S
C1624  H1655   1.110   .     S
C1625  H1658   1.110   .     S
C1625  O1683   1.419   .     S
C1625  H1659   1.119   .     S
C1625  C1626   1.524   .     S
C1626  C1627   1.526   .     S
C1626  H1662   1.109   .     S
C1626  H1660   1.112   .     S
C1627  H1665   1.111   .     S
C1627  H1663   1.111   .     S
C1627  H1664   1.110   .     S
C1628  C1629   1.535   .     S
C1628  O1684   1.422   .     S
C1628  H1667   1.115   .     S
C1628  H1666   1.111   .     S
C1629  C1630   1.527   .     S
C1630  H1673   1.111   .     S
C1630  H1670   1.111   .     S
C1631  O1689   1.293   .     A
C1631  O1690   1.293   .     A
C1632  H1639   1.081   .     S
C1632  N1680   1.366   .     A
C1633  N1679   1.367   .     A
C1633  H1650   1.081   .     S
C1633  C1070   1.415   1_565 S
C1634  N1680   1.367   .     A
C1634  H1661   1.080   .     S
C1635  H1672   1.081   .     S
C1635  N1679   1.367   .     A
C1635  C1068   1.415   1_565 S
C1636  O1692   1.384   .     S
Cu1637 O1688   1.955   .     S
Cu1637 O1686   1.979   .     S
Cu1637 N1679   2.011   .     S
Cu1637 Cu1638  2.677   .     S
Cu1637 O1690   1.956   .     S
Cu1637 O1681   1.978   .     S
Cu1638 O1691   1.956   .     S
Cu1638 O1685   1.978   .     S
Cu1638 O1687   1.979   .     S
Cu1638 N1680   2.011   .     S
Cu1638 O1689   1.955   .     S
H1645  C1431   1.111   1_655 S
H1646  C1431   1.110   1_655 S
H1648  C1432   1.106   1_655 S
H1649  C1056   1.111   1_565 S
H1668  C1441   1.111   1_655 S
H1669  C1441   1.110   1_655 S
H1671  C1442   1.110   1_655 S
