data_str_m3_o1_o5_pcu_sym.85
_audit_creation_date              2020-01-03
_audit_creation_method            'Materials Studio'
_symmetry_space_group_name_H-M    'P1'
_symmetry_Int_Tables_number       1
_symmetry_cell_setting            triclinic
loop_
_symmetry_equiv_pos_as_xyz
  x,y,z
_cell_length_a                    31.6474
_cell_length_b                    29.5075
_cell_length_c                    26.7603
_cell_angle_alpha                 90.0026
_cell_angle_beta                  90.0307
_cell_angle_gamma                 90.3629
loop_
_atom_site_label
_atom_site_type_symbol
_atom_site_fract_x
_atom_site_fract_y
_atom_site_fract_z
_atom_site_U_iso_or_equiv
_atom_site_adp_type
_atom_site_occupancy
C1     C     0.08704   0.16649   0.17487   0.00000  Uiso   1.00
C2     C     0.02295   0.20778   0.20226   0.00000  Uiso   1.00
C3     C     0.29016   0.16748   0.19209   0.00000  Uiso   1.00
C4     C     0.04339   0.16622   0.19247   0.00000  Uiso   1.00
C5     C     0.18105   0.02403   0.20712   0.00000  Uiso   1.00
C6     C     0.15176   0.30926   0.12645   0.00000  Uiso   1.00
C7     C     0.15179   0.02387   0.12643   0.00000  Uiso   1.00
C8     C     0.18117   0.30945   0.20707   0.00000  Uiso   1.00
C9     C     0.04420   0.08178   0.20926   0.00000  Uiso   1.00
C10    C     0.28933   0.25206   0.20771   0.00000  Uiso   1.00
C11    C     0.28663   0.08644   0.22241   0.00000  Uiso   1.00
C12    C     0.24638   0.16691   0.17467   0.00000  Uiso   1.00
C13    C     0.04682   0.24833   0.22036   0.00000  Uiso   1.00
C14    C     0.16666   0.16667   0.07285   0.00000  Uiso   1.00
C15    C     0.16668   0.16667   0.26049   0.00000  Uiso   1.00
C16    C     0.16667   0.16667   0.02178   0.00000  Uiso   1.00
C17    C     0.16667   0.16667   0.31155   0.00000  Uiso   1.00
C18    C     0.02131   0.12488   0.19993   0.00000  Uiso   1.00
C19    C     0.31224   0.20891   0.19904   0.00000  Uiso   1.00
C20    C     0.31059   0.12615   0.20273   0.00000  Uiso   1.00
H21    H     0.19224   0.04209   0.23967   0.00000  Uiso   1.00
H22    H     0.13973   0.29108   0.09431   0.00000  Uiso   1.00
H23    H     0.13979   0.04189   0.09428   0.00000  Uiso   1.00
H24    H     0.19271   0.29147   0.23946   0.00000  Uiso   1.00
H25    H     0.07108   0.08150   0.23447   0.00000  Uiso   1.00
H26    H     0.26340   0.25286   0.23420   0.00000  Uiso   1.00
H27    H     0.29351   0.05231   0.21016   0.00000  Uiso   1.00
H28    H     0.03853   0.28216   0.20837   0.00000  Uiso   1.00
N29    N     0.16667   0.28573   0.16667   0.00000  Uiso   1.00
N30    N     0.16667   0.04760   0.16667   0.00000  Uiso   1.00
O31    O     0.10559   0.20487   0.16666   0.00000  Uiso   1.00
O32    O     0.29798   0.28619   0.18395   0.00000  Uiso   1.00
O33    O     0.25941   0.09185   0.25414   0.00000  Uiso   1.00
O34    O     0.07556   0.24412   0.25045   0.00000  Uiso   1.00
O35    O     0.22774   0.12846   0.16667   0.00000  Uiso   1.00
O36    O     0.22774   0.20487   0.16667   0.00000  Uiso   1.00
O37    O     0.10559   0.12846   0.16666   0.00000  Uiso   1.00
O38    O     0.16667   0.20488   0.09511   0.00000  Uiso   1.00
O39    O     0.16666   0.12845   0.23822   0.00000  Uiso   1.00
O40    O     0.16666   0.20488   0.23822   0.00000  Uiso   1.00
O41    O     0.16667   0.12845   0.09511   0.00000  Uiso   1.00
O42    O     0.03442   0.04695   0.18740   0.00000  Uiso   1.00
Zn43   Zn    0.16667   0.21771   0.16667   0.00000  Uiso   1.00
Zn44   Zn    0.16667   0.11563   0.16667   0.00000  Uiso   1.00
C45    C     0.42038   0.16649   0.17487   0.00000  Uiso   1.00
C46    C     0.35628   0.20778   0.20226   0.00000  Uiso   1.00
C47    C     0.62350   0.16748   0.19209   0.00000  Uiso   1.00
C48    C     0.37673   0.16622   0.19247   0.00000  Uiso   1.00
C49    C     0.51438   0.02403   0.20712   0.00000  Uiso   1.00
C50    C     0.48509   0.30926   0.12645   0.00000  Uiso   1.00
C51    C     0.48512   0.02387   0.12643   0.00000  Uiso   1.00
C52    C     0.51450   0.30945   0.20707   0.00000  Uiso   1.00
C53    C     0.37753   0.08178   0.20926   0.00000  Uiso   1.00
C54    C     0.62266   0.25206   0.20771   0.00000  Uiso   1.00
C55    C     0.61996   0.08644   0.22241   0.00000  Uiso   1.00
C56    C     0.57972   0.16691   0.17467   0.00000  Uiso   1.00
C57    C     0.38016   0.24833   0.22036   0.00000  Uiso   1.00
C58    C     0.49999   0.16667   0.07285   0.00000  Uiso   1.00
C59    C     0.50001   0.16667   0.26049   0.00000  Uiso   1.00
C60    C     0.50000   0.16667   0.02178   0.00000  Uiso   1.00
C61    C     0.50001   0.16667   0.31155   0.00000  Uiso   1.00
C62    C     0.35464   0.12488   0.19993   0.00000  Uiso   1.00
C63    C     0.64557   0.20891   0.19904   0.00000  Uiso   1.00
C64    C     0.64393   0.12615   0.20273   0.00000  Uiso   1.00
H65    H     0.52558   0.04209   0.23967   0.00000  Uiso   1.00
H66    H     0.47306   0.29108   0.09431   0.00000  Uiso   1.00
H67    H     0.47312   0.04189   0.09428   0.00000  Uiso   1.00
H68    H     0.52604   0.29147   0.23946   0.00000  Uiso   1.00
H69    H     0.40442   0.08150   0.23447   0.00000  Uiso   1.00
H70    H     0.59674   0.25286   0.23420   0.00000  Uiso   1.00
H71    H     0.62684   0.05231   0.21016   0.00000  Uiso   1.00
H72    H     0.37186   0.28216   0.20837   0.00000  Uiso   1.00
N73    N     0.50000   0.28573   0.16667   0.00000  Uiso   1.00
N74    N     0.50000   0.04760   0.16667   0.00000  Uiso   1.00
O75    O     0.43892   0.20487   0.16666   0.00000  Uiso   1.00
O76    O     0.63131   0.28619   0.18395   0.00000  Uiso   1.00
O77    O     0.59275   0.09185   0.25414   0.00000  Uiso   1.00
O78    O     0.40890   0.24412   0.25045   0.00000  Uiso   1.00
O79    O     0.56108   0.12846   0.16667   0.00000  Uiso   1.00
O80    O     0.56108   0.20487   0.16667   0.00000  Uiso   1.00
O81    O     0.43892   0.12846   0.16666   0.00000  Uiso   1.00
O82    O     0.50000   0.20488   0.09511   0.00000  Uiso   1.00
O83    O     0.50000   0.12845   0.23822   0.00000  Uiso   1.00
O84    O     0.50000   0.20488   0.23822   0.00000  Uiso   1.00
O85    O     0.50000   0.12845   0.09511   0.00000  Uiso   1.00
O86    O     0.36775   0.04695   0.18740   0.00000  Uiso   1.00
Zn87   Zn    0.50000   0.21771   0.16667   0.00000  Uiso   1.00
Zn88   Zn    0.50000   0.11563   0.16667   0.00000  Uiso   1.00
C89    C     0.75371   0.16649   0.17487   0.00000  Uiso   1.00
C90    C     0.68961   0.20778   0.20226   0.00000  Uiso   1.00
C91    C     0.95683   0.16748   0.19209   0.00000  Uiso   1.00
C92    C     0.71006   0.16622   0.19247   0.00000  Uiso   1.00
C93    C     0.84771   0.02403   0.20712   0.00000  Uiso   1.00
C94    C     0.81843   0.30926   0.12645   0.00000  Uiso   1.00
C95    C     0.81846   0.02387   0.12643   0.00000  Uiso   1.00
C96    C     0.84783   0.30945   0.20707   0.00000  Uiso   1.00
C97    C     0.71086   0.08178   0.20926   0.00000  Uiso   1.00
C98    C     0.95600   0.25206   0.20771   0.00000  Uiso   1.00
C99    C     0.95329   0.08644   0.22241   0.00000  Uiso   1.00
C100   C     0.91305   0.16691   0.17467   0.00000  Uiso   1.00
C101   C     0.71349   0.24833   0.22036   0.00000  Uiso   1.00
C102   C     0.83333   0.16667   0.07285   0.00000  Uiso   1.00
C103   C     0.83334   0.16667   0.26049   0.00000  Uiso   1.00
C104   C     0.83333   0.16667   0.02178   0.00000  Uiso   1.00
C105   C     0.83334   0.16667   0.31155   0.00000  Uiso   1.00
C106   C     0.68797   0.12488   0.19993   0.00000  Uiso   1.00
C107   C     0.97890   0.20891   0.19904   0.00000  Uiso   1.00
C108   C     0.97726   0.12615   0.20273   0.00000  Uiso   1.00
H109   H     0.85891   0.04209   0.23967   0.00000  Uiso   1.00
H110   H     0.80640   0.29108   0.09431   0.00000  Uiso   1.00
H111   H     0.80646   0.04189   0.09428   0.00000  Uiso   1.00
H112   H     0.85938   0.29147   0.23946   0.00000  Uiso   1.00
H113   H     0.73775   0.08150   0.23447   0.00000  Uiso   1.00
H114   H     0.93007   0.25286   0.23420   0.00000  Uiso   1.00
H115   H     0.96017   0.05231   0.21016   0.00000  Uiso   1.00
H116   H     0.70520   0.28216   0.20837   0.00000  Uiso   1.00
N117   N     0.83333   0.28573   0.16667   0.00000  Uiso   1.00
N118   N     0.83333   0.04760   0.16667   0.00000  Uiso   1.00
O119   O     0.77226   0.20487   0.16666   0.00000  Uiso   1.00
O120   O     0.96465   0.28619   0.18395   0.00000  Uiso   1.00
O121   O     0.92608   0.09185   0.25414   0.00000  Uiso   1.00
O122   O     0.74223   0.24412   0.25045   0.00000  Uiso   1.00
O123   O     0.89441   0.12846   0.16667   0.00000  Uiso   1.00
O124   O     0.89441   0.20487   0.16667   0.00000  Uiso   1.00
O125   O     0.77226   0.12846   0.16666   0.00000  Uiso   1.00
O126   O     0.83334   0.20488   0.09511   0.00000  Uiso   1.00
O127   O     0.83333   0.12845   0.23822   0.00000  Uiso   1.00
O128   O     0.83333   0.20488   0.23822   0.00000  Uiso   1.00
O129   O     0.83334   0.12845   0.09511   0.00000  Uiso   1.00
O130   O     0.70108   0.04695   0.18740   0.00000  Uiso   1.00
Zn131  Zn    0.83333   0.21771   0.16667   0.00000  Uiso   1.00
Zn132  Zn    0.83333   0.11563   0.16667   0.00000  Uiso   1.00
C133   C     0.08704   0.49982   0.17487   0.00000  Uiso   1.00
C134   C     0.02295   0.54111   0.20226   0.00000  Uiso   1.00
C135   C     0.29016   0.50081   0.19209   0.00000  Uiso   1.00
C136   C     0.04339   0.49955   0.19247   0.00000  Uiso   1.00
C137   C     0.18105   0.35736   0.20712   0.00000  Uiso   1.00
C138   C     0.15176   0.64259   0.12645   0.00000  Uiso   1.00
C139   C     0.15179   0.35721   0.12643   0.00000  Uiso   1.00
C140   C     0.18117   0.64279   0.20707   0.00000  Uiso   1.00
C141   C     0.04420   0.41511   0.20926   0.00000  Uiso   1.00
C142   C     0.28933   0.58539   0.20771   0.00000  Uiso   1.00
C143   C     0.28663   0.41978   0.22241   0.00000  Uiso   1.00
C144   C     0.24638   0.50024   0.17467   0.00000  Uiso   1.00
C145   C     0.04682   0.58167   0.22036   0.00000  Uiso   1.00
C146   C     0.16666   0.50000   0.07285   0.00000  Uiso   1.00
C147   C     0.16668   0.50000   0.26049   0.00000  Uiso   1.00
C148   C     0.16667   0.50000   0.02178   0.00000  Uiso   1.00
C149   C     0.16667   0.50000   0.31155   0.00000  Uiso   1.00
C150   C     0.02131   0.45822   0.19993   0.00000  Uiso   1.00
C151   C     0.31224   0.54225   0.19904   0.00000  Uiso   1.00
C152   C     0.31059   0.45948   0.20273   0.00000  Uiso   1.00
H153   H     0.19224   0.37542   0.23967   0.00000  Uiso   1.00
H154   H     0.13973   0.62442   0.09431   0.00000  Uiso   1.00
H155   H     0.13979   0.37522   0.09428   0.00000  Uiso   1.00
H156   H     0.19271   0.62480   0.23946   0.00000  Uiso   1.00
H157   H     0.07108   0.41484   0.23447   0.00000  Uiso   1.00
H158   H     0.26340   0.58619   0.23420   0.00000  Uiso   1.00
H159   H     0.29351   0.38564   0.21016   0.00000  Uiso   1.00
H160   H     0.03853   0.61549   0.20837   0.00000  Uiso   1.00
N161   N     0.16667   0.61907   0.16667   0.00000  Uiso   1.00
N162   N     0.16667   0.38093   0.16667   0.00000  Uiso   1.00
O163   O     0.10559   0.53821   0.16666   0.00000  Uiso   1.00
O164   O     0.29798   0.61952   0.18395   0.00000  Uiso   1.00
O165   O     0.25941   0.42518   0.25414   0.00000  Uiso   1.00
O166   O     0.07556   0.57745   0.25045   0.00000  Uiso   1.00
O167   O     0.22774   0.46179   0.16667   0.00000  Uiso   1.00
O168   O     0.22774   0.53821   0.16667   0.00000  Uiso   1.00
O169   O     0.10559   0.46179   0.16666   0.00000  Uiso   1.00
O170   O     0.16667   0.53821   0.09511   0.00000  Uiso   1.00
O171   O     0.16666   0.46179   0.23822   0.00000  Uiso   1.00
O172   O     0.16666   0.53821   0.23822   0.00000  Uiso   1.00
O173   O     0.16667   0.46179   0.09511   0.00000  Uiso   1.00
O174   O     0.03442   0.38028   0.18740   0.00000  Uiso   1.00
Zn175  Zn    0.16667   0.55104   0.16667   0.00000  Uiso   1.00
Zn176  Zn    0.16667   0.44896   0.16667   0.00000  Uiso   1.00
C177   C     0.42038   0.49982   0.17487   0.00000  Uiso   1.00
C178   C     0.35628   0.54111   0.20226   0.00000  Uiso   1.00
C179   C     0.62350   0.50081   0.19209   0.00000  Uiso   1.00
C180   C     0.37673   0.49955   0.19247   0.00000  Uiso   1.00
C181   C     0.51438   0.35736   0.20712   0.00000  Uiso   1.00
C182   C     0.48509   0.64259   0.12645   0.00000  Uiso   1.00
C183   C     0.48512   0.35721   0.12643   0.00000  Uiso   1.00
C184   C     0.51450   0.64279   0.20707   0.00000  Uiso   1.00
C185   C     0.37753   0.41511   0.20926   0.00000  Uiso   1.00
C186   C     0.62266   0.58539   0.20771   0.00000  Uiso   1.00
C187   C     0.61996   0.41978   0.22241   0.00000  Uiso   1.00
C188   C     0.57972   0.50024   0.17467   0.00000  Uiso   1.00
C189   C     0.38016   0.58167   0.22036   0.00000  Uiso   1.00
C190   C     0.49999   0.50000   0.07285   0.00000  Uiso   1.00
C191   C     0.50001   0.50000   0.26049   0.00000  Uiso   1.00
C192   C     0.50000   0.50000   0.02178   0.00000  Uiso   1.00
C193   C     0.50001   0.50000   0.31155   0.00000  Uiso   1.00
C194   C     0.35464   0.45822   0.19993   0.00000  Uiso   1.00
C195   C     0.64557   0.54225   0.19904   0.00000  Uiso   1.00
C196   C     0.64393   0.45948   0.20273   0.00000  Uiso   1.00
H197   H     0.52558   0.37542   0.23967   0.00000  Uiso   1.00
H198   H     0.47306   0.62442   0.09431   0.00000  Uiso   1.00
H199   H     0.47312   0.37522   0.09428   0.00000  Uiso   1.00
H200   H     0.52604   0.62480   0.23946   0.00000  Uiso   1.00
H201   H     0.40442   0.41484   0.23447   0.00000  Uiso   1.00
H202   H     0.59674   0.58619   0.23420   0.00000  Uiso   1.00
H203   H     0.62684   0.38564   0.21016   0.00000  Uiso   1.00
H204   H     0.37186   0.61549   0.20837   0.00000  Uiso   1.00
N205   N     0.50000   0.61907   0.16667   0.00000  Uiso   1.00
N206   N     0.50000   0.38093   0.16667   0.00000  Uiso   1.00
O207   O     0.43892   0.53821   0.16666   0.00000  Uiso   1.00
O208   O     0.63131   0.61952   0.18395   0.00000  Uiso   1.00
O209   O     0.59275   0.42518   0.25414   0.00000  Uiso   1.00
O210   O     0.40890   0.57745   0.25045   0.00000  Uiso   1.00
O211   O     0.56108   0.46179   0.16667   0.00000  Uiso   1.00
O212   O     0.56108   0.53821   0.16667   0.00000  Uiso   1.00
O213   O     0.43892   0.46179   0.16666   0.00000  Uiso   1.00
O214   O     0.50000   0.53821   0.09511   0.00000  Uiso   1.00
O215   O     0.50000   0.46179   0.23822   0.00000  Uiso   1.00
O216   O     0.50000   0.53821   0.23822   0.00000  Uiso   1.00
O217   O     0.50000   0.46179   0.09511   0.00000  Uiso   1.00
O218   O     0.36775   0.38028   0.18740   0.00000  Uiso   1.00
Zn219  Zn    0.50000   0.55104   0.16667   0.00000  Uiso   1.00
Zn220  Zn    0.50000   0.44896   0.16667   0.00000  Uiso   1.00
C221   C     0.75371   0.49982   0.17487   0.00000  Uiso   1.00
C222   C     0.68961   0.54111   0.20226   0.00000  Uiso   1.00
C223   C     0.95683   0.50081   0.19209   0.00000  Uiso   1.00
C224   C     0.71006   0.49955   0.19247   0.00000  Uiso   1.00
C225   C     0.84771   0.35736   0.20712   0.00000  Uiso   1.00
C226   C     0.81843   0.64259   0.12645   0.00000  Uiso   1.00
C227   C     0.81846   0.35721   0.12643   0.00000  Uiso   1.00
C228   C     0.84783   0.64279   0.20707   0.00000  Uiso   1.00
C229   C     0.71086   0.41511   0.20926   0.00000  Uiso   1.00
C230   C     0.95600   0.58539   0.20771   0.00000  Uiso   1.00
C231   C     0.95329   0.41978   0.22241   0.00000  Uiso   1.00
C232   C     0.91305   0.50024   0.17467   0.00000  Uiso   1.00
C233   C     0.71349   0.58167   0.22036   0.00000  Uiso   1.00
C234   C     0.83333   0.50000   0.07285   0.00000  Uiso   1.00
C235   C     0.83334   0.50000   0.26049   0.00000  Uiso   1.00
C236   C     0.83333   0.50000   0.02178   0.00000  Uiso   1.00
C237   C     0.83334   0.50000   0.31155   0.00000  Uiso   1.00
C238   C     0.68797   0.45822   0.19993   0.00000  Uiso   1.00
C239   C     0.97890   0.54225   0.19904   0.00000  Uiso   1.00
C240   C     0.97726   0.45948   0.20273   0.00000  Uiso   1.00
H241   H     0.85891   0.37542   0.23967   0.00000  Uiso   1.00
H242   H     0.80640   0.62442   0.09431   0.00000  Uiso   1.00
H243   H     0.80646   0.37522   0.09428   0.00000  Uiso   1.00
H244   H     0.85938   0.62480   0.23946   0.00000  Uiso   1.00
H245   H     0.73775   0.41484   0.23447   0.00000  Uiso   1.00
H246   H     0.93007   0.58619   0.23420   0.00000  Uiso   1.00
H247   H     0.96017   0.38564   0.21016   0.00000  Uiso   1.00
H248   H     0.70520   0.61549   0.20837   0.00000  Uiso   1.00
N249   N     0.83333   0.61907   0.16667   0.00000  Uiso   1.00
N250   N     0.83333   0.38093   0.16667   0.00000  Uiso   1.00
O251   O     0.77226   0.53821   0.16666   0.00000  Uiso   1.00
O252   O     0.96465   0.61952   0.18395   0.00000  Uiso   1.00
O253   O     0.92608   0.42518   0.25414   0.00000  Uiso   1.00
O254   O     0.74223   0.57745   0.25045   0.00000  Uiso   1.00
O255   O     0.89441   0.46179   0.16667   0.00000  Uiso   1.00
O256   O     0.89441   0.53821   0.16667   0.00000  Uiso   1.00
O257   O     0.77226   0.46179   0.16666   0.00000  Uiso   1.00
O258   O     0.83334   0.53821   0.09511   0.00000  Uiso   1.00
O259   O     0.83333   0.46179   0.23822   0.00000  Uiso   1.00
O260   O     0.83333   0.53821   0.23822   0.00000  Uiso   1.00
O261   O     0.83334   0.46179   0.09511   0.00000  Uiso   1.00
O262   O     0.70108   0.38028   0.18740   0.00000  Uiso   1.00
Zn263  Zn    0.83333   0.55104   0.16667   0.00000  Uiso   1.00
Zn264  Zn    0.83333   0.44896   0.16667   0.00000  Uiso   1.00
C265   C     0.08704   0.83316   0.17487   0.00000  Uiso   1.00
C266   C     0.02295   0.87444   0.20226   0.00000  Uiso   1.00
C267   C     0.29016   0.83415   0.19209   0.00000  Uiso   1.00
C268   C     0.04339   0.83289   0.19247   0.00000  Uiso   1.00
C269   C     0.18105   0.69070   0.20712   0.00000  Uiso   1.00
C270   C     0.15176   0.97593   0.12645   0.00000  Uiso   1.00
C271   C     0.15179   0.69054   0.12643   0.00000  Uiso   1.00
C272   C     0.18117   0.97612   0.20707   0.00000  Uiso   1.00
C273   C     0.04420   0.74845   0.20926   0.00000  Uiso   1.00
C274   C     0.28933   0.91873   0.20771   0.00000  Uiso   1.00
C275   C     0.28663   0.75311   0.22241   0.00000  Uiso   1.00
C276   C     0.24638   0.83357   0.17467   0.00000  Uiso   1.00
C277   C     0.04682   0.91500   0.22036   0.00000  Uiso   1.00
C278   C     0.16666   0.83333   0.07285   0.00000  Uiso   1.00
C279   C     0.16668   0.83333   0.26049   0.00000  Uiso   1.00
C280   C     0.16667   0.83333   0.02178   0.00000  Uiso   1.00
C281   C     0.16667   0.83333   0.31155   0.00000  Uiso   1.00
C282   C     0.02131   0.79155   0.19993   0.00000  Uiso   1.00
C283   C     0.31224   0.87558   0.19904   0.00000  Uiso   1.00
C284   C     0.31059   0.79282   0.20273   0.00000  Uiso   1.00
H285   H     0.19224   0.70875   0.23967   0.00000  Uiso   1.00
H286   H     0.13973   0.95775   0.09431   0.00000  Uiso   1.00
H287   H     0.13979   0.70855   0.09428   0.00000  Uiso   1.00
H288   H     0.19271   0.95814   0.23946   0.00000  Uiso   1.00
H289   H     0.07108   0.74817   0.23447   0.00000  Uiso   1.00
H290   H     0.26340   0.91953   0.23420   0.00000  Uiso   1.00
H291   H     0.29351   0.71898   0.21016   0.00000  Uiso   1.00
H292   H     0.03853   0.94883   0.20837   0.00000  Uiso   1.00
N293   N     0.16667   0.95240   0.16667   0.00000  Uiso   1.00
N294   N     0.16667   0.71427   0.16667   0.00000  Uiso   1.00
O295   O     0.10559   0.87154   0.16666   0.00000  Uiso   1.00
O296   O     0.29798   0.95285   0.18395   0.00000  Uiso   1.00
O297   O     0.25941   0.75851   0.25414   0.00000  Uiso   1.00
O298   O     0.07556   0.91079   0.25045   0.00000  Uiso   1.00
O299   O     0.22774   0.79513   0.16667   0.00000  Uiso   1.00
O300   O     0.22774   0.87154   0.16667   0.00000  Uiso   1.00
O301   O     0.10559   0.79513   0.16666   0.00000  Uiso   1.00
O302   O     0.16667   0.87155   0.09511   0.00000  Uiso   1.00
O303   O     0.16666   0.79512   0.23822   0.00000  Uiso   1.00
O304   O     0.16666   0.87155   0.23822   0.00000  Uiso   1.00
O305   O     0.16667   0.79512   0.09511   0.00000  Uiso   1.00
O306   O     0.03442   0.71361   0.18740   0.00000  Uiso   1.00
Zn307  Zn    0.16667   0.88437   0.16667   0.00000  Uiso   1.00
Zn308  Zn    0.16667   0.78229   0.16667   0.00000  Uiso   1.00
C309   C     0.42038   0.83316   0.17487   0.00000  Uiso   1.00
C310   C     0.35628   0.87444   0.20226   0.00000  Uiso   1.00
C311   C     0.62350   0.83415   0.19209   0.00000  Uiso   1.00
C312   C     0.37673   0.83289   0.19247   0.00000  Uiso   1.00
C313   C     0.51438   0.69070   0.20712   0.00000  Uiso   1.00
C314   C     0.48509   0.97593   0.12645   0.00000  Uiso   1.00
C315   C     0.48512   0.69054   0.12643   0.00000  Uiso   1.00
C316   C     0.51450   0.97612   0.20707   0.00000  Uiso   1.00
C317   C     0.37753   0.74845   0.20926   0.00000  Uiso   1.00
C318   C     0.62266   0.91873   0.20771   0.00000  Uiso   1.00
C319   C     0.61996   0.75311   0.22241   0.00000  Uiso   1.00
C320   C     0.57972   0.83357   0.17467   0.00000  Uiso   1.00
C321   C     0.38016   0.91500   0.22036   0.00000  Uiso   1.00
C322   C     0.49999   0.83333   0.07285   0.00000  Uiso   1.00
C323   C     0.50001   0.83333   0.26049   0.00000  Uiso   1.00
C324   C     0.50000   0.83333   0.02178   0.00000  Uiso   1.00
C325   C     0.50001   0.83333   0.31155   0.00000  Uiso   1.00
C326   C     0.35464   0.79155   0.19993   0.00000  Uiso   1.00
C327   C     0.64557   0.87558   0.19904   0.00000  Uiso   1.00
C328   C     0.64393   0.79282   0.20273   0.00000  Uiso   1.00
H329   H     0.52558   0.70875   0.23967   0.00000  Uiso   1.00
H330   H     0.47306   0.95775   0.09431   0.00000  Uiso   1.00
H331   H     0.47312   0.70855   0.09428   0.00000  Uiso   1.00
H332   H     0.52604   0.95814   0.23946   0.00000  Uiso   1.00
H333   H     0.40442   0.74817   0.23447   0.00000  Uiso   1.00
H334   H     0.59674   0.91953   0.23420   0.00000  Uiso   1.00
H335   H     0.62684   0.71898   0.21016   0.00000  Uiso   1.00
H336   H     0.37186   0.94883   0.20837   0.00000  Uiso   1.00
N337   N     0.50000   0.95240   0.16667   0.00000  Uiso   1.00
N338   N     0.50000   0.71427   0.16667   0.00000  Uiso   1.00
O339   O     0.43892   0.87154   0.16666   0.00000  Uiso   1.00
O340   O     0.63131   0.95285   0.18395   0.00000  Uiso   1.00
O341   O     0.59275   0.75851   0.25414   0.00000  Uiso   1.00
O342   O     0.40890   0.91079   0.25045   0.00000  Uiso   1.00
O343   O     0.56108   0.79513   0.16667   0.00000  Uiso   1.00
O344   O     0.56108   0.87154   0.16667   0.00000  Uiso   1.00
O345   O     0.43892   0.79513   0.16666   0.00000  Uiso   1.00
O346   O     0.50000   0.87155   0.09511   0.00000  Uiso   1.00
O347   O     0.50000   0.79512   0.23822   0.00000  Uiso   1.00
O348   O     0.50000   0.87155   0.23822   0.00000  Uiso   1.00
O349   O     0.50000   0.79512   0.09511   0.00000  Uiso   1.00
O350   O     0.36775   0.71361   0.18740   0.00000  Uiso   1.00
Zn351  Zn    0.50000   0.88437   0.16667   0.00000  Uiso   1.00
Zn352  Zn    0.50000   0.78229   0.16667   0.00000  Uiso   1.00
C353   C     0.75371   0.83316   0.17487   0.00000  Uiso   1.00
C354   C     0.68961   0.87444   0.20226   0.00000  Uiso   1.00
C355   C     0.95683   0.83415   0.19209   0.00000  Uiso   1.00
C356   C     0.71006   0.83289   0.19247   0.00000  Uiso   1.00
C357   C     0.84771   0.69070   0.20712   0.00000  Uiso   1.00
C358   C     0.81843   0.97593   0.12645   0.00000  Uiso   1.00
C359   C     0.81846   0.69054   0.12643   0.00000  Uiso   1.00
C360   C     0.84783   0.97612   0.20707   0.00000  Uiso   1.00
C361   C     0.71086   0.74845   0.20926   0.00000  Uiso   1.00
C362   C     0.95600   0.91873   0.20771   0.00000  Uiso   1.00
C363   C     0.95329   0.75311   0.22241   0.00000  Uiso   1.00
C364   C     0.91305   0.83357   0.17467   0.00000  Uiso   1.00
C365   C     0.71349   0.91500   0.22036   0.00000  Uiso   1.00
C366   C     0.83333   0.83333   0.07285   0.00000  Uiso   1.00
C367   C     0.83334   0.83333   0.26049   0.00000  Uiso   1.00
C368   C     0.83333   0.83333   0.02178   0.00000  Uiso   1.00
C369   C     0.83334   0.83333   0.31155   0.00000  Uiso   1.00
C370   C     0.68797   0.79155   0.19993   0.00000  Uiso   1.00
C371   C     0.97890   0.87558   0.19904   0.00000  Uiso   1.00
C372   C     0.97726   0.79282   0.20273   0.00000  Uiso   1.00
H373   H     0.85891   0.70875   0.23967   0.00000  Uiso   1.00
H374   H     0.80640   0.95775   0.09431   0.00000  Uiso   1.00
H375   H     0.80646   0.70855   0.09428   0.00000  Uiso   1.00
H376   H     0.85938   0.95814   0.23946   0.00000  Uiso   1.00
H377   H     0.73775   0.74817   0.23447   0.00000  Uiso   1.00
H378   H     0.93007   0.91953   0.23420   0.00000  Uiso   1.00
H379   H     0.96017   0.71898   0.21016   0.00000  Uiso   1.00
H380   H     0.70520   0.94883   0.20837   0.00000  Uiso   1.00
N381   N     0.83333   0.95240   0.16667   0.00000  Uiso   1.00
N382   N     0.83333   0.71427   0.16667   0.00000  Uiso   1.00
O383   O     0.77226   0.87154   0.16666   0.00000  Uiso   1.00
O384   O     0.96465   0.95285   0.18395   0.00000  Uiso   1.00
O385   O     0.92608   0.75851   0.25414   0.00000  Uiso   1.00
O386   O     0.74223   0.91079   0.25045   0.00000  Uiso   1.00
O387   O     0.89441   0.79513   0.16667   0.00000  Uiso   1.00
O388   O     0.89441   0.87154   0.16667   0.00000  Uiso   1.00
O389   O     0.77226   0.79513   0.16666   0.00000  Uiso   1.00
O390   O     0.83334   0.87155   0.09511   0.00000  Uiso   1.00
O391   O     0.83333   0.79512   0.23822   0.00000  Uiso   1.00
O392   O     0.83333   0.87155   0.23822   0.00000  Uiso   1.00
O393   O     0.83334   0.79512   0.09511   0.00000  Uiso   1.00
O394   O     0.70108   0.71361   0.18740   0.00000  Uiso   1.00
Zn395  Zn    0.83333   0.88437   0.16667   0.00000  Uiso   1.00
Zn396  Zn    0.83333   0.78229   0.16667   0.00000  Uiso   1.00
C397   C     0.08704   0.16649   0.50820   0.00000  Uiso   1.00
C398   C     0.02295   0.20778   0.53559   0.00000  Uiso   1.00
C399   C     0.29016   0.16748   0.52542   0.00000  Uiso   1.00
C400   C     0.04339   0.16622   0.52580   0.00000  Uiso   1.00
C401   C     0.18105   0.02403   0.54045   0.00000  Uiso   1.00
C402   C     0.15176   0.30926   0.45978   0.00000  Uiso   1.00
C403   C     0.15179   0.02387   0.45977   0.00000  Uiso   1.00
C404   C     0.18117   0.30945   0.54040   0.00000  Uiso   1.00
C405   C     0.04420   0.08178   0.54259   0.00000  Uiso   1.00
C406   C     0.28933   0.25206   0.54104   0.00000  Uiso   1.00
C407   C     0.28663   0.08644   0.55574   0.00000  Uiso   1.00
C408   C     0.24638   0.16691   0.50800   0.00000  Uiso   1.00
C409   C     0.04682   0.24833   0.55370   0.00000  Uiso   1.00
C410   C     0.16666   0.16667   0.40619   0.00000  Uiso   1.00
C411   C     0.16668   0.16667   0.59383   0.00000  Uiso   1.00
C412   C     0.16667   0.16667   0.35511   0.00000  Uiso   1.00
C413   C     0.16667   0.16667   0.64488   0.00000  Uiso   1.00
C414   C     0.02131   0.12488   0.53326   0.00000  Uiso   1.00
C415   C     0.31224   0.20891   0.53238   0.00000  Uiso   1.00
C416   C     0.31059   0.12615   0.53606   0.00000  Uiso   1.00
H417   H     0.19224   0.04209   0.57300   0.00000  Uiso   1.00
H418   H     0.13973   0.29108   0.42764   0.00000  Uiso   1.00
H419   H     0.13979   0.04189   0.42761   0.00000  Uiso   1.00
H420   H     0.19271   0.29147   0.57279   0.00000  Uiso   1.00
H421   H     0.07108   0.08150   0.56780   0.00000  Uiso   1.00
H422   H     0.26340   0.25286   0.56753   0.00000  Uiso   1.00
H423   H     0.29351   0.05231   0.54350   0.00000  Uiso   1.00
H424   H     0.03853   0.28216   0.54171   0.00000  Uiso   1.00
N425   N     0.16667   0.28573   0.50000   0.00000  Uiso   1.00
N426   N     0.16667   0.04760   0.50000   0.00000  Uiso   1.00
O427   O     0.10559   0.20487   0.50000   0.00000  Uiso   1.00
O428   O     0.29798   0.28619   0.51728   0.00000  Uiso   1.00
O429   O     0.25941   0.09185   0.58747   0.00000  Uiso   1.00
O430   O     0.07556   0.24412   0.58379   0.00000  Uiso   1.00
O431   O     0.22774   0.12846   0.50000   0.00000  Uiso   1.00
O432   O     0.22774   0.20487   0.50000   0.00000  Uiso   1.00
O433   O     0.10559   0.12846   0.50000   0.00000  Uiso   1.00
O434   O     0.16667   0.20488   0.42845   0.00000  Uiso   1.00
O435   O     0.16666   0.12845   0.57155   0.00000  Uiso   1.00
O436   O     0.16666   0.20488   0.57155   0.00000  Uiso   1.00
O437   O     0.16667   0.12845   0.42845   0.00000  Uiso   1.00
O438   O     0.03442   0.04695   0.52074   0.00000  Uiso   1.00
Zn439  Zn    0.16667   0.21771   0.50000   0.00000  Uiso   1.00
Zn440  Zn    0.16667   0.11563   0.50000   0.00000  Uiso   1.00
C441   C     0.42038   0.16649   0.50820   0.00000  Uiso   1.00
C442   C     0.35628   0.20778   0.53559   0.00000  Uiso   1.00
C443   C     0.62350   0.16748   0.52542   0.00000  Uiso   1.00
C444   C     0.37673   0.16622   0.52580   0.00000  Uiso   1.00
C445   C     0.51438   0.02403   0.54045   0.00000  Uiso   1.00
C446   C     0.48509   0.30926   0.45978   0.00000  Uiso   1.00
C447   C     0.48512   0.02387   0.45977   0.00000  Uiso   1.00
C448   C     0.51450   0.30945   0.54040   0.00000  Uiso   1.00
C449   C     0.37753   0.08178   0.54259   0.00000  Uiso   1.00
C450   C     0.62266   0.25206   0.54104   0.00000  Uiso   1.00
C451   C     0.61996   0.08644   0.55574   0.00000  Uiso   1.00
C452   C     0.57972   0.16691   0.50800   0.00000  Uiso   1.00
C453   C     0.38016   0.24833   0.55370   0.00000  Uiso   1.00
C454   C     0.49999   0.16667   0.40619   0.00000  Uiso   1.00
C455   C     0.50001   0.16667   0.59383   0.00000  Uiso   1.00
C456   C     0.50000   0.16667   0.35511   0.00000  Uiso   1.00
C457   C     0.50001   0.16667   0.64488   0.00000  Uiso   1.00
C458   C     0.35464   0.12488   0.53326   0.00000  Uiso   1.00
C459   C     0.64557   0.20891   0.53238   0.00000  Uiso   1.00
C460   C     0.64393   0.12615   0.53606   0.00000  Uiso   1.00
H461   H     0.52558   0.04209   0.57300   0.00000  Uiso   1.00
H462   H     0.47306   0.29108   0.42764   0.00000  Uiso   1.00
H463   H     0.47312   0.04189   0.42761   0.00000  Uiso   1.00
H464   H     0.52604   0.29147   0.57279   0.00000  Uiso   1.00
H465   H     0.40442   0.08150   0.56780   0.00000  Uiso   1.00
H466   H     0.59674   0.25286   0.56753   0.00000  Uiso   1.00
H467   H     0.62684   0.05231   0.54350   0.00000  Uiso   1.00
H468   H     0.37186   0.28216   0.54171   0.00000  Uiso   1.00
N469   N     0.50000   0.28573   0.50000   0.00000  Uiso   1.00
N470   N     0.50000   0.04760   0.50000   0.00000  Uiso   1.00
O471   O     0.43892   0.20487   0.50000   0.00000  Uiso   1.00
O472   O     0.63131   0.28619   0.51728   0.00000  Uiso   1.00
O473   O     0.59275   0.09185   0.58747   0.00000  Uiso   1.00
O474   O     0.40890   0.24412   0.58379   0.00000  Uiso   1.00
O475   O     0.56108   0.12846   0.50000   0.00000  Uiso   1.00
O476   O     0.56108   0.20487   0.50000   0.00000  Uiso   1.00
O477   O     0.43892   0.12846   0.50000   0.00000  Uiso   1.00
O478   O     0.50000   0.20488   0.42845   0.00000  Uiso   1.00
O479   O     0.50000   0.12845   0.57155   0.00000  Uiso   1.00
O480   O     0.50000   0.20488   0.57155   0.00000  Uiso   1.00
O481   O     0.50000   0.12845   0.42845   0.00000  Uiso   1.00
O482   O     0.36775   0.04695   0.52074   0.00000  Uiso   1.00
Zn483  Zn    0.50000   0.21771   0.50000   0.00000  Uiso   1.00
Zn484  Zn    0.50000   0.11563   0.50000   0.00000  Uiso   1.00
C485   C     0.75371   0.16649   0.50820   0.00000  Uiso   1.00
C486   C     0.68961   0.20778   0.53559   0.00000  Uiso   1.00
C487   C     0.95683   0.16748   0.52542   0.00000  Uiso   1.00
C488   C     0.71006   0.16622   0.52580   0.00000  Uiso   1.00
C489   C     0.84771   0.02403   0.54045   0.00000  Uiso   1.00
C490   C     0.81843   0.30926   0.45978   0.00000  Uiso   1.00
C491   C     0.81846   0.02387   0.45977   0.00000  Uiso   1.00
C492   C     0.84783   0.30945   0.54040   0.00000  Uiso   1.00
C493   C     0.71086   0.08178   0.54259   0.00000  Uiso   1.00
C494   C     0.95600   0.25206   0.54104   0.00000  Uiso   1.00
C495   C     0.95329   0.08644   0.55574   0.00000  Uiso   1.00
C496   C     0.91305   0.16691   0.50800   0.00000  Uiso   1.00
C497   C     0.71349   0.24833   0.55370   0.00000  Uiso   1.00
C498   C     0.83333   0.16667   0.40619   0.00000  Uiso   1.00
C499   C     0.83334   0.16667   0.59383   0.00000  Uiso   1.00
C500   C     0.83333   0.16667   0.35511   0.00000  Uiso   1.00
C501   C     0.83334   0.16667   0.64488   0.00000  Uiso   1.00
C502   C     0.68797   0.12488   0.53326   0.00000  Uiso   1.00
C503   C     0.97890   0.20891   0.53238   0.00000  Uiso   1.00
C504   C     0.97726   0.12615   0.53606   0.00000  Uiso   1.00
H505   H     0.85891   0.04209   0.57300   0.00000  Uiso   1.00
H506   H     0.80640   0.29108   0.42764   0.00000  Uiso   1.00
H507   H     0.80646   0.04189   0.42761   0.00000  Uiso   1.00
H508   H     0.85938   0.29147   0.57279   0.00000  Uiso   1.00
H509   H     0.73775   0.08150   0.56780   0.00000  Uiso   1.00
H510   H     0.93007   0.25286   0.56753   0.00000  Uiso   1.00
H511   H     0.96017   0.05231   0.54350   0.00000  Uiso   1.00
H512   H     0.70520   0.28216   0.54171   0.00000  Uiso   1.00
N513   N     0.83333   0.28573   0.50000   0.00000  Uiso   1.00
N514   N     0.83333   0.04760   0.50000   0.00000  Uiso   1.00
O515   O     0.77226   0.20487   0.50000   0.00000  Uiso   1.00
O516   O     0.96465   0.28619   0.51728   0.00000  Uiso   1.00
O517   O     0.92608   0.09185   0.58747   0.00000  Uiso   1.00
O518   O     0.74223   0.24412   0.58379   0.00000  Uiso   1.00
O519   O     0.89441   0.12846   0.50000   0.00000  Uiso   1.00
O520   O     0.89441   0.20487   0.50000   0.00000  Uiso   1.00
O521   O     0.77226   0.12846   0.50000   0.00000  Uiso   1.00
O522   O     0.83334   0.20488   0.42845   0.00000  Uiso   1.00
O523   O     0.83333   0.12845   0.57155   0.00000  Uiso   1.00
O524   O     0.83333   0.20488   0.57155   0.00000  Uiso   1.00
O525   O     0.83334   0.12845   0.42845   0.00000  Uiso   1.00
O526   O     0.70108   0.04695   0.52074   0.00000  Uiso   1.00
Zn527  Zn    0.83333   0.21771   0.50000   0.00000  Uiso   1.00
Zn528  Zn    0.83333   0.11563   0.50000   0.00000  Uiso   1.00
C529   C     0.08704   0.49982   0.50820   0.00000  Uiso   1.00
C530   C     0.02295   0.54111   0.53559   0.00000  Uiso   1.00
C531   C     0.29016   0.50081   0.52542   0.00000  Uiso   1.00
C532   C     0.04339   0.49955   0.52580   0.00000  Uiso   1.00
C533   C     0.18105   0.35736   0.54045   0.00000  Uiso   1.00
C534   C     0.15176   0.64259   0.45978   0.00000  Uiso   1.00
C535   C     0.15179   0.35721   0.45977   0.00000  Uiso   1.00
C536   C     0.18117   0.64279   0.54040   0.00000  Uiso   1.00
C537   C     0.04420   0.41511   0.54259   0.00000  Uiso   1.00
C538   C     0.28933   0.58539   0.54104   0.00000  Uiso   1.00
C539   C     0.28663   0.41978   0.55574   0.00000  Uiso   1.00
C540   C     0.24638   0.50024   0.50800   0.00000  Uiso   1.00
C541   C     0.04682   0.58167   0.55370   0.00000  Uiso   1.00
C542   C     0.16666   0.50000   0.40619   0.00000  Uiso   1.00
C543   C     0.16668   0.50000   0.59383   0.00000  Uiso   1.00
C544   C     0.16667   0.50000   0.35511   0.00000  Uiso   1.00
C545   C     0.16667   0.50000   0.64488   0.00000  Uiso   1.00
C546   C     0.02131   0.45822   0.53326   0.00000  Uiso   1.00
C547   C     0.31224   0.54225   0.53238   0.00000  Uiso   1.00
C548   C     0.31059   0.45948   0.53606   0.00000  Uiso   1.00
H549   H     0.19224   0.37542   0.57300   0.00000  Uiso   1.00
H550   H     0.13973   0.62442   0.42764   0.00000  Uiso   1.00
H551   H     0.13979   0.37522   0.42761   0.00000  Uiso   1.00
H552   H     0.19271   0.62480   0.57279   0.00000  Uiso   1.00
H553   H     0.07108   0.41484   0.56780   0.00000  Uiso   1.00
H554   H     0.26340   0.58619   0.56753   0.00000  Uiso   1.00
H555   H     0.29351   0.38564   0.54350   0.00000  Uiso   1.00
H556   H     0.03853   0.61549   0.54171   0.00000  Uiso   1.00
N557   N     0.16667   0.61907   0.50000   0.00000  Uiso   1.00
N558   N     0.16667   0.38093   0.50000   0.00000  Uiso   1.00
O559   O     0.10559   0.53821   0.50000   0.00000  Uiso   1.00
O560   O     0.29798   0.61952   0.51728   0.00000  Uiso   1.00
O561   O     0.25941   0.42518   0.58747   0.00000  Uiso   1.00
O562   O     0.07556   0.57745   0.58379   0.00000  Uiso   1.00
O563   O     0.22774   0.46179   0.50000   0.00000  Uiso   1.00
O564   O     0.22774   0.53821   0.50000   0.00000  Uiso   1.00
O565   O     0.10559   0.46179   0.50000   0.00000  Uiso   1.00
O566   O     0.16667   0.53821   0.42845   0.00000  Uiso   1.00
O567   O     0.16666   0.46179   0.57155   0.00000  Uiso   1.00
O568   O     0.16666   0.53821   0.57155   0.00000  Uiso   1.00
O569   O     0.16667   0.46179   0.42845   0.00000  Uiso   1.00
O570   O     0.03442   0.38028   0.52074   0.00000  Uiso   1.00
Zn571  Zn    0.16667   0.55104   0.50000   0.00000  Uiso   1.00
Zn572  Zn    0.16667   0.44896   0.50000   0.00000  Uiso   1.00
C573   C     0.42038   0.49982   0.50820   0.00000  Uiso   1.00
C574   C     0.35628   0.54111   0.53559   0.00000  Uiso   1.00
C575   C     0.62350   0.50081   0.52542   0.00000  Uiso   1.00
C576   C     0.37673   0.49955   0.52580   0.00000  Uiso   1.00
C577   C     0.51438   0.35736   0.54045   0.00000  Uiso   1.00
C578   C     0.48509   0.64259   0.45978   0.00000  Uiso   1.00
C579   C     0.48512   0.35721   0.45977   0.00000  Uiso   1.00
C580   C     0.51450   0.64279   0.54040   0.00000  Uiso   1.00
C581   C     0.37753   0.41511   0.54259   0.00000  Uiso   1.00
C582   C     0.62266   0.58539   0.54104   0.00000  Uiso   1.00
C583   C     0.61996   0.41978   0.55574   0.00000  Uiso   1.00
C584   C     0.57972   0.50024   0.50800   0.00000  Uiso   1.00
C585   C     0.38016   0.58167   0.55370   0.00000  Uiso   1.00
C586   C     0.49999   0.50000   0.40619   0.00000  Uiso   1.00
C587   C     0.50001   0.50000   0.59383   0.00000  Uiso   1.00
C588   C     0.50000   0.50000   0.35511   0.00000  Uiso   1.00
C589   C     0.50001   0.50000   0.64488   0.00000  Uiso   1.00
C590   C     0.35464   0.45822   0.53326   0.00000  Uiso   1.00
C591   C     0.64557   0.54225   0.53238   0.00000  Uiso   1.00
C592   C     0.64393   0.45948   0.53606   0.00000  Uiso   1.00
H593   H     0.52558   0.37542   0.57300   0.00000  Uiso   1.00
H594   H     0.47306   0.62442   0.42764   0.00000  Uiso   1.00
H595   H     0.47312   0.37522   0.42761   0.00000  Uiso   1.00
H596   H     0.52604   0.62480   0.57279   0.00000  Uiso   1.00
H597   H     0.40442   0.41484   0.56780   0.00000  Uiso   1.00
H598   H     0.59674   0.58619   0.56753   0.00000  Uiso   1.00
H599   H     0.62684   0.38564   0.54350   0.00000  Uiso   1.00
H600   H     0.37186   0.61549   0.54171   0.00000  Uiso   1.00
N601   N     0.50000   0.61907   0.50000   0.00000  Uiso   1.00
N602   N     0.50000   0.38093   0.50000   0.00000  Uiso   1.00
O603   O     0.43892   0.53821   0.50000   0.00000  Uiso   1.00
O604   O     0.63131   0.61952   0.51728   0.00000  Uiso   1.00
O605   O     0.59275   0.42518   0.58747   0.00000  Uiso   1.00
O606   O     0.40890   0.57745   0.58379   0.00000  Uiso   1.00
O607   O     0.56108   0.46179   0.50000   0.00000  Uiso   1.00
O608   O     0.56108   0.53821   0.50000   0.00000  Uiso   1.00
O609   O     0.43892   0.46179   0.50000   0.00000  Uiso   1.00
O610   O     0.50000   0.53821   0.42845   0.00000  Uiso   1.00
O611   O     0.50000   0.46179   0.57155   0.00000  Uiso   1.00
O612   O     0.50000   0.53821   0.57155   0.00000  Uiso   1.00
O613   O     0.50000   0.46179   0.42845   0.00000  Uiso   1.00
O614   O     0.36775   0.38028   0.52074   0.00000  Uiso   1.00
Zn615  Zn    0.50000   0.55104   0.50000   0.00000  Uiso   1.00
Zn616  Zn    0.50000   0.44896   0.50000   0.00000  Uiso   1.00
C617   C     0.75371   0.49982   0.50820   0.00000  Uiso   1.00
C618   C     0.68961   0.54111   0.53559   0.00000  Uiso   1.00
C619   C     0.95683   0.50081   0.52542   0.00000  Uiso   1.00
C620   C     0.71006   0.49955   0.52580   0.00000  Uiso   1.00
C621   C     0.84771   0.35736   0.54045   0.00000  Uiso   1.00
C622   C     0.81843   0.64259   0.45978   0.00000  Uiso   1.00
C623   C     0.81846   0.35721   0.45977   0.00000  Uiso   1.00
C624   C     0.84783   0.64279   0.54040   0.00000  Uiso   1.00
C625   C     0.71086   0.41511   0.54259   0.00000  Uiso   1.00
C626   C     0.95600   0.58539   0.54104   0.00000  Uiso   1.00
C627   C     0.95329   0.41978   0.55574   0.00000  Uiso   1.00
C628   C     0.91305   0.50024   0.50800   0.00000  Uiso   1.00
C629   C     0.71349   0.58167   0.55370   0.00000  Uiso   1.00
C630   C     0.83333   0.50000   0.40619   0.00000  Uiso   1.00
C631   C     0.83334   0.50000   0.59383   0.00000  Uiso   1.00
C632   C     0.83333   0.50000   0.35511   0.00000  Uiso   1.00
C633   C     0.83334   0.50000   0.64488   0.00000  Uiso   1.00
C634   C     0.68797   0.45822   0.53326   0.00000  Uiso   1.00
C635   C     0.97890   0.54225   0.53238   0.00000  Uiso   1.00
C636   C     0.97726   0.45948   0.53606   0.00000  Uiso   1.00
H637   H     0.85891   0.37542   0.57300   0.00000  Uiso   1.00
H638   H     0.80640   0.62442   0.42764   0.00000  Uiso   1.00
H639   H     0.80646   0.37522   0.42761   0.00000  Uiso   1.00
H640   H     0.85938   0.62480   0.57279   0.00000  Uiso   1.00
H641   H     0.73775   0.41484   0.56780   0.00000  Uiso   1.00
H642   H     0.93007   0.58619   0.56753   0.00000  Uiso   1.00
H643   H     0.96017   0.38564   0.54350   0.00000  Uiso   1.00
H644   H     0.70520   0.61549   0.54171   0.00000  Uiso   1.00
N645   N     0.83333   0.61907   0.50000   0.00000  Uiso   1.00
N646   N     0.83333   0.38093   0.50000   0.00000  Uiso   1.00
O647   O     0.77226   0.53821   0.50000   0.00000  Uiso   1.00
O648   O     0.96465   0.61952   0.51728   0.00000  Uiso   1.00
O649   O     0.92608   0.42518   0.58747   0.00000  Uiso   1.00
O650   O     0.74223   0.57745   0.58379   0.00000  Uiso   1.00
O651   O     0.89441   0.46179   0.50000   0.00000  Uiso   1.00
O652   O     0.89441   0.53821   0.50000   0.00000  Uiso   1.00
O653   O     0.77226   0.46179   0.50000   0.00000  Uiso   1.00
O654   O     0.83334   0.53821   0.42845   0.00000  Uiso   1.00
O655   O     0.83333   0.46179   0.57155   0.00000  Uiso   1.00
O656   O     0.83333   0.53821   0.57155   0.00000  Uiso   1.00
O657   O     0.83334   0.46179   0.42845   0.00000  Uiso   1.00
O658   O     0.70108   0.38028   0.52074   0.00000  Uiso   1.00
Zn659  Zn    0.83333   0.55104   0.50000   0.00000  Uiso   1.00
Zn660  Zn    0.83333   0.44896   0.50000   0.00000  Uiso   1.00
C661   C     0.08704   0.83316   0.50820   0.00000  Uiso   1.00
C662   C     0.02295   0.87444   0.53559   0.00000  Uiso   1.00
C663   C     0.29016   0.83415   0.52542   0.00000  Uiso   1.00
C664   C     0.04339   0.83289   0.52580   0.00000  Uiso   1.00
C665   C     0.18105   0.69070   0.54045   0.00000  Uiso   1.00
C666   C     0.15176   0.97593   0.45978   0.00000  Uiso   1.00
C667   C     0.15179   0.69054   0.45977   0.00000  Uiso   1.00
C668   C     0.18117   0.97612   0.54040   0.00000  Uiso   1.00
C669   C     0.04420   0.74845   0.54259   0.00000  Uiso   1.00
C670   C     0.28933   0.91873   0.54104   0.00000  Uiso   1.00
C671   C     0.28663   0.75311   0.55574   0.00000  Uiso   1.00
C672   C     0.24638   0.83357   0.50800   0.00000  Uiso   1.00
C673   C     0.04682   0.91500   0.55370   0.00000  Uiso   1.00
C674   C     0.16666   0.83333   0.40619   0.00000  Uiso   1.00
C675   C     0.16668   0.83333   0.59383   0.00000  Uiso   1.00
C676   C     0.16667   0.83333   0.35511   0.00000  Uiso   1.00
C677   C     0.16667   0.83333   0.64488   0.00000  Uiso   1.00
C678   C     0.02131   0.79155   0.53326   0.00000  Uiso   1.00
C679   C     0.31224   0.87558   0.53238   0.00000  Uiso   1.00
C680   C     0.31059   0.79282   0.53606   0.00000  Uiso   1.00
H681   H     0.19224   0.70875   0.57300   0.00000  Uiso   1.00
H682   H     0.13973   0.95775   0.42764   0.00000  Uiso   1.00
H683   H     0.13979   0.70855   0.42761   0.00000  Uiso   1.00
H684   H     0.19271   0.95814   0.57279   0.00000  Uiso   1.00
H685   H     0.07108   0.74817   0.56780   0.00000  Uiso   1.00
H686   H     0.26340   0.91953   0.56753   0.00000  Uiso   1.00
H687   H     0.29351   0.71898   0.54350   0.00000  Uiso   1.00
H688   H     0.03853   0.94883   0.54171   0.00000  Uiso   1.00
N689   N     0.16667   0.95240   0.50000   0.00000  Uiso   1.00
N690   N     0.16667   0.71427   0.50000   0.00000  Uiso   1.00
O691   O     0.10559   0.87154   0.50000   0.00000  Uiso   1.00
O692   O     0.29798   0.95285   0.51728   0.00000  Uiso   1.00
O693   O     0.25941   0.75851   0.58747   0.00000  Uiso   1.00
O694   O     0.07556   0.91079   0.58379   0.00000  Uiso   1.00
O695   O     0.22774   0.79513   0.50000   0.00000  Uiso   1.00
O696   O     0.22774   0.87154   0.50000   0.00000  Uiso   1.00
O697   O     0.10559   0.79513   0.50000   0.00000  Uiso   1.00
O698   O     0.16667   0.87155   0.42845   0.00000  Uiso   1.00
O699   O     0.16666   0.79512   0.57155   0.00000  Uiso   1.00
O700   O     0.16666   0.87155   0.57155   0.00000  Uiso   1.00
O701   O     0.16667   0.79512   0.42845   0.00000  Uiso   1.00
O702   O     0.03442   0.71361   0.52074   0.00000  Uiso   1.00
Zn703  Zn    0.16667   0.88437   0.50000   0.00000  Uiso   1.00
Zn704  Zn    0.16667   0.78229   0.50000   0.00000  Uiso   1.00
C705   C     0.42038   0.83316   0.50820   0.00000  Uiso   1.00
C706   C     0.35628   0.87444   0.53559   0.00000  Uiso   1.00
C707   C     0.62350   0.83415   0.52542   0.00000  Uiso   1.00
C708   C     0.37673   0.83289   0.52580   0.00000  Uiso   1.00
C709   C     0.51438   0.69070   0.54045   0.00000  Uiso   1.00
C710   C     0.48509   0.97593   0.45978   0.00000  Uiso   1.00
C711   C     0.48512   0.69054   0.45977   0.00000  Uiso   1.00
C712   C     0.51450   0.97612   0.54040   0.00000  Uiso   1.00
C713   C     0.37753   0.74845   0.54259   0.00000  Uiso   1.00
C714   C     0.62266   0.91873   0.54104   0.00000  Uiso   1.00
C715   C     0.61996   0.75311   0.55574   0.00000  Uiso   1.00
C716   C     0.57972   0.83357   0.50800   0.00000  Uiso   1.00
C717   C     0.38016   0.91500   0.55370   0.00000  Uiso   1.00
C718   C     0.49999   0.83333   0.40619   0.00000  Uiso   1.00
C719   C     0.50001   0.83333   0.59383   0.00000  Uiso   1.00
C720   C     0.50000   0.83333   0.35511   0.00000  Uiso   1.00
C721   C     0.50001   0.83333   0.64488   0.00000  Uiso   1.00
C722   C     0.35464   0.79155   0.53326   0.00000  Uiso   1.00
C723   C     0.64557   0.87558   0.53238   0.00000  Uiso   1.00
C724   C     0.64393   0.79282   0.53606   0.00000  Uiso   1.00
H725   H     0.52558   0.70875   0.57300   0.00000  Uiso   1.00
H726   H     0.47306   0.95775   0.42764   0.00000  Uiso   1.00
H727   H     0.47312   0.70855   0.42761   0.00000  Uiso   1.00
H728   H     0.52604   0.95814   0.57279   0.00000  Uiso   1.00
H729   H     0.40442   0.74817   0.56780   0.00000  Uiso   1.00
H730   H     0.59674   0.91953   0.56753   0.00000  Uiso   1.00
H731   H     0.62684   0.71898   0.54350   0.00000  Uiso   1.00
H732   H     0.37186   0.94883   0.54171   0.00000  Uiso   1.00
N733   N     0.50000   0.95240   0.50000   0.00000  Uiso   1.00
N734   N     0.50000   0.71427   0.50000   0.00000  Uiso   1.00
O735   O     0.43892   0.87154   0.50000   0.00000  Uiso   1.00
O736   O     0.63131   0.95285   0.51728   0.00000  Uiso   1.00
O737   O     0.59275   0.75851   0.58747   0.00000  Uiso   1.00
O738   O     0.40890   0.91079   0.58379   0.00000  Uiso   1.00
O739   O     0.56108   0.79513   0.50000   0.00000  Uiso   1.00
O740   O     0.56108   0.87154   0.50000   0.00000  Uiso   1.00
O741   O     0.43892   0.79513   0.50000   0.00000  Uiso   1.00
O742   O     0.50000   0.87155   0.42845   0.00000  Uiso   1.00
O743   O     0.50000   0.79512   0.57155   0.00000  Uiso   1.00
O744   O     0.50000   0.87155   0.57155   0.00000  Uiso   1.00
O745   O     0.50000   0.79512   0.42845   0.00000  Uiso   1.00
O746   O     0.36775   0.71361   0.52074   0.00000  Uiso   1.00
Zn747  Zn    0.50000   0.88437   0.50000   0.00000  Uiso   1.00
Zn748  Zn    0.50000   0.78229   0.50000   0.00000  Uiso   1.00
C749   C     0.75371   0.83316   0.50820   0.00000  Uiso   1.00
C750   C     0.68961   0.87444   0.53559   0.00000  Uiso   1.00
C751   C     0.95683   0.83415   0.52542   0.00000  Uiso   1.00
C752   C     0.71006   0.83289   0.52580   0.00000  Uiso   1.00
C753   C     0.84771   0.69070   0.54045   0.00000  Uiso   1.00
C754   C     0.81843   0.97593   0.45978   0.00000  Uiso   1.00
C755   C     0.81846   0.69054   0.45977   0.00000  Uiso   1.00
C756   C     0.84783   0.97612   0.54040   0.00000  Uiso   1.00
C757   C     0.71086   0.74845   0.54259   0.00000  Uiso   1.00
C758   C     0.95600   0.91873   0.54104   0.00000  Uiso   1.00
C759   C     0.95329   0.75311   0.55574   0.00000  Uiso   1.00
C760   C     0.91305   0.83357   0.50800   0.00000  Uiso   1.00
C761   C     0.71349   0.91500   0.55370   0.00000  Uiso   1.00
C762   C     0.83333   0.83333   0.40619   0.00000  Uiso   1.00
C763   C     0.83334   0.83333   0.59383   0.00000  Uiso   1.00
C764   C     0.83333   0.83333   0.35511   0.00000  Uiso   1.00
C765   C     0.83334   0.83333   0.64488   0.00000  Uiso   1.00
C766   C     0.68797   0.79155   0.53326   0.00000  Uiso   1.00
C767   C     0.97890   0.87558   0.53238   0.00000  Uiso   1.00
C768   C     0.97726   0.79282   0.53606   0.00000  Uiso   1.00
H769   H     0.85891   0.70875   0.57300   0.00000  Uiso   1.00
H770   H     0.80640   0.95775   0.42764   0.00000  Uiso   1.00
H771   H     0.80646   0.70855   0.42761   0.00000  Uiso   1.00
H772   H     0.85938   0.95814   0.57279   0.00000  Uiso   1.00
H773   H     0.73775   0.74817   0.56780   0.00000  Uiso   1.00
H774   H     0.93007   0.91953   0.56753   0.00000  Uiso   1.00
H775   H     0.96017   0.71898   0.54350   0.00000  Uiso   1.00
H776   H     0.70520   0.94883   0.54171   0.00000  Uiso   1.00
N777   N     0.83333   0.95240   0.50000   0.00000  Uiso   1.00
N778   N     0.83333   0.71427   0.50000   0.00000  Uiso   1.00
O779   O     0.77226   0.87154   0.50000   0.00000  Uiso   1.00
O780   O     0.96465   0.95285   0.51728   0.00000  Uiso   1.00
O781   O     0.92608   0.75851   0.58747   0.00000  Uiso   1.00
O782   O     0.74223   0.91079   0.58379   0.00000  Uiso   1.00
O783   O     0.89441   0.79513   0.50000   0.00000  Uiso   1.00
O784   O     0.89441   0.87154   0.50000   0.00000  Uiso   1.00
O785   O     0.77226   0.79513   0.50000   0.00000  Uiso   1.00
O786   O     0.83334   0.87155   0.42845   0.00000  Uiso   1.00
O787   O     0.83333   0.79512   0.57155   0.00000  Uiso   1.00
O788   O     0.83333   0.87155   0.57155   0.00000  Uiso   1.00
O789   O     0.83334   0.79512   0.42845   0.00000  Uiso   1.00
O790   O     0.70108   0.71361   0.52074   0.00000  Uiso   1.00
Zn791  Zn    0.83333   0.88437   0.50000   0.00000  Uiso   1.00
Zn792  Zn    0.83333   0.78229   0.50000   0.00000  Uiso   1.00
C793   C     0.08704   0.16649   0.84154   0.00000  Uiso   1.00
C794   C     0.02295   0.20778   0.86892   0.00000  Uiso   1.00
C795   C     0.29016   0.16748   0.85875   0.00000  Uiso   1.00
C796   C     0.04339   0.16622   0.85914   0.00000  Uiso   1.00
C797   C     0.18105   0.02403   0.87378   0.00000  Uiso   1.00
C798   C     0.15176   0.30926   0.79312   0.00000  Uiso   1.00
C799   C     0.15179   0.02387   0.79310   0.00000  Uiso   1.00
C800   C     0.18117   0.30945   0.87374   0.00000  Uiso   1.00
C801   C     0.04420   0.08178   0.87593   0.00000  Uiso   1.00
C802   C     0.28933   0.25206   0.87438   0.00000  Uiso   1.00
C803   C     0.28663   0.08644   0.88908   0.00000  Uiso   1.00
C804   C     0.24638   0.16691   0.84133   0.00000  Uiso   1.00
C805   C     0.04682   0.24833   0.88703   0.00000  Uiso   1.00
C806   C     0.16666   0.16667   0.73952   0.00000  Uiso   1.00
C807   C     0.16668   0.16667   0.92716   0.00000  Uiso   1.00
C808   C     0.16667   0.16667   0.68844   0.00000  Uiso   1.00
C809   C     0.16667   0.16667   0.97822   0.00000  Uiso   1.00
C810   C     0.02131   0.12488   0.86659   0.00000  Uiso   1.00
C811   C     0.31224   0.20891   0.86571   0.00000  Uiso   1.00
C812   C     0.31059   0.12615   0.86939   0.00000  Uiso   1.00
H813   H     0.19224   0.04209   0.90634   0.00000  Uiso   1.00
H814   H     0.13973   0.29108   0.76098   0.00000  Uiso   1.00
H815   H     0.13979   0.04189   0.76095   0.00000  Uiso   1.00
H816   H     0.19271   0.29147   0.90612   0.00000  Uiso   1.00
H817   H     0.07108   0.08150   0.90113   0.00000  Uiso   1.00
H818   H     0.26340   0.25286   0.90087   0.00000  Uiso   1.00
H819   H     0.29351   0.05231   0.87683   0.00000  Uiso   1.00
H820   H     0.03853   0.28216   0.87504   0.00000  Uiso   1.00
N821   N     0.16667   0.28573   0.83333   0.00000  Uiso   1.00
N822   N     0.16667   0.04760   0.83333   0.00000  Uiso   1.00
O823   O     0.10559   0.20487   0.83333   0.00000  Uiso   1.00
O824   O     0.29798   0.28619   0.85062   0.00000  Uiso   1.00
O825   O     0.25941   0.09185   0.92080   0.00000  Uiso   1.00
O826   O     0.07556   0.24412   0.91712   0.00000  Uiso   1.00
O827   O     0.22774   0.12846   0.83334   0.00000  Uiso   1.00
O828   O     0.22774   0.20487   0.83334   0.00000  Uiso   1.00
O829   O     0.10559   0.12846   0.83333   0.00000  Uiso   1.00
O830   O     0.16667   0.20488   0.76178   0.00000  Uiso   1.00
O831   O     0.16666   0.12845   0.90489   0.00000  Uiso   1.00
O832   O     0.16666   0.20488   0.90489   0.00000  Uiso   1.00
O833   O     0.16667   0.12845   0.76178   0.00000  Uiso   1.00
O834   O     0.03442   0.04695   0.85407   0.00000  Uiso   1.00
Zn835  Zn    0.16667   0.21771   0.83333   0.00000  Uiso   1.00
Zn836  Zn    0.16667   0.11563   0.83333   0.00000  Uiso   1.00
C837   C     0.42038   0.16649   0.84154   0.00000  Uiso   1.00
C838   C     0.35628   0.20778   0.86892   0.00000  Uiso   1.00
C839   C     0.62350   0.16748   0.85875   0.00000  Uiso   1.00
C840   C     0.37673   0.16622   0.85914   0.00000  Uiso   1.00
C841   C     0.51438   0.02403   0.87378   0.00000  Uiso   1.00
C842   C     0.48509   0.30926   0.79312   0.00000  Uiso   1.00
C843   C     0.48512   0.02387   0.79310   0.00000  Uiso   1.00
C844   C     0.51450   0.30945   0.87374   0.00000  Uiso   1.00
C845   C     0.37753   0.08178   0.87593   0.00000  Uiso   1.00
C846   C     0.62266   0.25206   0.87438   0.00000  Uiso   1.00
C847   C     0.61996   0.08644   0.88908   0.00000  Uiso   1.00
C848   C     0.57972   0.16691   0.84133   0.00000  Uiso   1.00
C849   C     0.38016   0.24833   0.88703   0.00000  Uiso   1.00
C850   C     0.49999   0.16667   0.73952   0.00000  Uiso   1.00
C851   C     0.50001   0.16667   0.92716   0.00000  Uiso   1.00
C852   C     0.50000   0.16667   0.68844   0.00000  Uiso   1.00
C853   C     0.50001   0.16667   0.97822   0.00000  Uiso   1.00
C854   C     0.35464   0.12488   0.86659   0.00000  Uiso   1.00
C855   C     0.64557   0.20891   0.86571   0.00000  Uiso   1.00
C856   C     0.64393   0.12615   0.86939   0.00000  Uiso   1.00
H857   H     0.52558   0.04209   0.90634   0.00000  Uiso   1.00
H858   H     0.47306   0.29108   0.76098   0.00000  Uiso   1.00
H859   H     0.47312   0.04189   0.76095   0.00000  Uiso   1.00
H860   H     0.52604   0.29147   0.90612   0.00000  Uiso   1.00
H861   H     0.40442   0.08150   0.90113   0.00000  Uiso   1.00
H862   H     0.59674   0.25286   0.90087   0.00000  Uiso   1.00
H863   H     0.62684   0.05231   0.87683   0.00000  Uiso   1.00
H864   H     0.37186   0.28216   0.87504   0.00000  Uiso   1.00
N865   N     0.50000   0.28573   0.83333   0.00000  Uiso   1.00
N866   N     0.50000   0.04760   0.83333   0.00000  Uiso   1.00
O867   O     0.43892   0.20487   0.83333   0.00000  Uiso   1.00
O868   O     0.63131   0.28619   0.85062   0.00000  Uiso   1.00
O869   O     0.59275   0.09185   0.92080   0.00000  Uiso   1.00
O870   O     0.40890   0.24412   0.91712   0.00000  Uiso   1.00
O871   O     0.56108   0.12846   0.83334   0.00000  Uiso   1.00
O872   O     0.56108   0.20487   0.83334   0.00000  Uiso   1.00
O873   O     0.43892   0.12846   0.83333   0.00000  Uiso   1.00
O874   O     0.50000   0.20488   0.76178   0.00000  Uiso   1.00
O875   O     0.50000   0.12845   0.90489   0.00000  Uiso   1.00
O876   O     0.50000   0.20488   0.90489   0.00000  Uiso   1.00
O877   O     0.50000   0.12845   0.76178   0.00000  Uiso   1.00
O878   O     0.36775   0.04695   0.85407   0.00000  Uiso   1.00
Zn879  Zn    0.50000   0.21771   0.83333   0.00000  Uiso   1.00
Zn880  Zn    0.50000   0.11563   0.83333   0.00000  Uiso   1.00
C881   C     0.75371   0.16649   0.84154   0.00000  Uiso   1.00
C882   C     0.68961   0.20778   0.86892   0.00000  Uiso   1.00
C883   C     0.95683   0.16748   0.85875   0.00000  Uiso   1.00
C884   C     0.71006   0.16622   0.85914   0.00000  Uiso   1.00
C885   C     0.84771   0.02403   0.87378   0.00000  Uiso   1.00
C886   C     0.81843   0.30926   0.79312   0.00000  Uiso   1.00
C887   C     0.81846   0.02387   0.79310   0.00000  Uiso   1.00
C888   C     0.84783   0.30945   0.87374   0.00000  Uiso   1.00
C889   C     0.71086   0.08178   0.87593   0.00000  Uiso   1.00
C890   C     0.95600   0.25206   0.87438   0.00000  Uiso   1.00
C891   C     0.95329   0.08644   0.88908   0.00000  Uiso   1.00
C892   C     0.91305   0.16691   0.84133   0.00000  Uiso   1.00
C893   C     0.71349   0.24833   0.88703   0.00000  Uiso   1.00
C894   C     0.83333   0.16667   0.73952   0.00000  Uiso   1.00
C895   C     0.83334   0.16667   0.92716   0.00000  Uiso   1.00
C896   C     0.83333   0.16667   0.68844   0.00000  Uiso   1.00
C897   C     0.83334   0.16667   0.97822   0.00000  Uiso   1.00
C898   C     0.68797   0.12488   0.86659   0.00000  Uiso   1.00
C899   C     0.97890   0.20891   0.86571   0.00000  Uiso   1.00
C900   C     0.97726   0.12615   0.86939   0.00000  Uiso   1.00
H901   H     0.85891   0.04209   0.90634   0.00000  Uiso   1.00
H902   H     0.80640   0.29108   0.76098   0.00000  Uiso   1.00
H903   H     0.80646   0.04189   0.76095   0.00000  Uiso   1.00
H904   H     0.85938   0.29147   0.90612   0.00000  Uiso   1.00
H905   H     0.73775   0.08150   0.90113   0.00000  Uiso   1.00
H906   H     0.93007   0.25286   0.90087   0.00000  Uiso   1.00
H907   H     0.96017   0.05231   0.87683   0.00000  Uiso   1.00
H908   H     0.70520   0.28216   0.87504   0.00000  Uiso   1.00
N909   N     0.83333   0.28573   0.83333   0.00000  Uiso   1.00
N910   N     0.83333   0.04760   0.83333   0.00000  Uiso   1.00
O911   O     0.77226   0.20487   0.83333   0.00000  Uiso   1.00
O912   O     0.96465   0.28619   0.85062   0.00000  Uiso   1.00
O913   O     0.92608   0.09185   0.92080   0.00000  Uiso   1.00
O914   O     0.74223   0.24412   0.91712   0.00000  Uiso   1.00
O915   O     0.89441   0.12846   0.83334   0.00000  Uiso   1.00
O916   O     0.89441   0.20487   0.83334   0.00000  Uiso   1.00
O917   O     0.77226   0.12846   0.83333   0.00000  Uiso   1.00
O918   O     0.83334   0.20488   0.76178   0.00000  Uiso   1.00
O919   O     0.83333   0.12845   0.90489   0.00000  Uiso   1.00
O920   O     0.83333   0.20488   0.90489   0.00000  Uiso   1.00
O921   O     0.83334   0.12845   0.76178   0.00000  Uiso   1.00
O922   O     0.70108   0.04695   0.85407   0.00000  Uiso   1.00
Zn923  Zn    0.83333   0.21771   0.83333   0.00000  Uiso   1.00
Zn924  Zn    0.83333   0.11563   0.83333   0.00000  Uiso   1.00
C925   C     0.08704   0.49982   0.84154   0.00000  Uiso   1.00
C926   C     0.02295   0.54111   0.86892   0.00000  Uiso   1.00
C927   C     0.29016   0.50081   0.85875   0.00000  Uiso   1.00
C928   C     0.04339   0.49955   0.85914   0.00000  Uiso   1.00
C929   C     0.18105   0.35736   0.87378   0.00000  Uiso   1.00
C930   C     0.15176   0.64259   0.79312   0.00000  Uiso   1.00
C931   C     0.15179   0.35721   0.79310   0.00000  Uiso   1.00
C932   C     0.18117   0.64279   0.87374   0.00000  Uiso   1.00
C933   C     0.04420   0.41511   0.87593   0.00000  Uiso   1.00
C934   C     0.28933   0.58539   0.87438   0.00000  Uiso   1.00
C935   C     0.28663   0.41978   0.88908   0.00000  Uiso   1.00
C936   C     0.24638   0.50024   0.84133   0.00000  Uiso   1.00
C937   C     0.04682   0.58167   0.88703   0.00000  Uiso   1.00
C938   C     0.16666   0.50000   0.73952   0.00000  Uiso   1.00
C939   C     0.16668   0.50000   0.92716   0.00000  Uiso   1.00
C940   C     0.16667   0.50000   0.68844   0.00000  Uiso   1.00
C941   C     0.16667   0.50000   0.97822   0.00000  Uiso   1.00
C942   C     0.02131   0.45822   0.86659   0.00000  Uiso   1.00
C943   C     0.31224   0.54225   0.86571   0.00000  Uiso   1.00
C944   C     0.31059   0.45948   0.86939   0.00000  Uiso   1.00
H945   H     0.19224   0.37542   0.90634   0.00000  Uiso   1.00
H946   H     0.13973   0.62442   0.76098   0.00000  Uiso   1.00
H947   H     0.13979   0.37522   0.76095   0.00000  Uiso   1.00
H948   H     0.19271   0.62480   0.90612   0.00000  Uiso   1.00
H949   H     0.07108   0.41484   0.90113   0.00000  Uiso   1.00
H950   H     0.26340   0.58619   0.90087   0.00000  Uiso   1.00
H951   H     0.29351   0.38564   0.87683   0.00000  Uiso   1.00
H952   H     0.03853   0.61549   0.87504   0.00000  Uiso   1.00
N953   N     0.16667   0.61907   0.83333   0.00000  Uiso   1.00
N954   N     0.16667   0.38093   0.83333   0.00000  Uiso   1.00
O955   O     0.10559   0.53821   0.83333   0.00000  Uiso   1.00
O956   O     0.29798   0.61952   0.85062   0.00000  Uiso   1.00
O957   O     0.25941   0.42518   0.92080   0.00000  Uiso   1.00
O958   O     0.07556   0.57745   0.91712   0.00000  Uiso   1.00
O959   O     0.22774   0.46179   0.83334   0.00000  Uiso   1.00
O960   O     0.22774   0.53821   0.83334   0.00000  Uiso   1.00
O961   O     0.10559   0.46179   0.83333   0.00000  Uiso   1.00
O962   O     0.16667   0.53821   0.76178   0.00000  Uiso   1.00
O963   O     0.16666   0.46179   0.90489   0.00000  Uiso   1.00
O964   O     0.16666   0.53821   0.90489   0.00000  Uiso   1.00
O965   O     0.16667   0.46179   0.76178   0.00000  Uiso   1.00
O966   O     0.03442   0.38028   0.85407   0.00000  Uiso   1.00
Zn967  Zn    0.16667   0.55104   0.83333   0.00000  Uiso   1.00
Zn968  Zn    0.16667   0.44896   0.83333   0.00000  Uiso   1.00
C969   C     0.42038   0.49982   0.84154   0.00000  Uiso   1.00
C970   C     0.35628   0.54111   0.86892   0.00000  Uiso   1.00
C971   C     0.62350   0.50081   0.85875   0.00000  Uiso   1.00
C972   C     0.37673   0.49955   0.85914   0.00000  Uiso   1.00
C973   C     0.51438   0.35736   0.87378   0.00000  Uiso   1.00
C974   C     0.48509   0.64259   0.79312   0.00000  Uiso   1.00
C975   C     0.48512   0.35721   0.79310   0.00000  Uiso   1.00
C976   C     0.51450   0.64279   0.87374   0.00000  Uiso   1.00
C977   C     0.37753   0.41511   0.87593   0.00000  Uiso   1.00
C978   C     0.62266   0.58539   0.87438   0.00000  Uiso   1.00
C979   C     0.61996   0.41978   0.88908   0.00000  Uiso   1.00
C980   C     0.57972   0.50024   0.84133   0.00000  Uiso   1.00
C981   C     0.38016   0.58167   0.88703   0.00000  Uiso   1.00
C982   C     0.49999   0.50000   0.73952   0.00000  Uiso   1.00
C983   C     0.50001   0.50000   0.92716   0.00000  Uiso   1.00
C984   C     0.50000   0.50000   0.68844   0.00000  Uiso   1.00
C985   C     0.50001   0.50000   0.97822   0.00000  Uiso   1.00
C986   C     0.35464   0.45822   0.86659   0.00000  Uiso   1.00
C987   C     0.64557   0.54225   0.86571   0.00000  Uiso   1.00
C988   C     0.64393   0.45948   0.86939   0.00000  Uiso   1.00
H989   H     0.52558   0.37542   0.90634   0.00000  Uiso   1.00
H990   H     0.47306   0.62442   0.76098   0.00000  Uiso   1.00
H991   H     0.47312   0.37522   0.76095   0.00000  Uiso   1.00
H992   H     0.52604   0.62480   0.90612   0.00000  Uiso   1.00
H993   H     0.40442   0.41484   0.90113   0.00000  Uiso   1.00
H994   H     0.59674   0.58619   0.90087   0.00000  Uiso   1.00
H995   H     0.62684   0.38564   0.87683   0.00000  Uiso   1.00
H996   H     0.37186   0.61549   0.87504   0.00000  Uiso   1.00
N997   N     0.50000   0.61907   0.83333   0.00000  Uiso   1.00
N998   N     0.50000   0.38093   0.83333   0.00000  Uiso   1.00
O999   O     0.43892   0.53821   0.83333   0.00000  Uiso   1.00
O1000  O     0.63131   0.61952   0.85062   0.00000  Uiso   1.00
O1001  O     0.59275   0.42518   0.92080   0.00000  Uiso   1.00
O1002  O     0.40890   0.57745   0.91712   0.00000  Uiso   1.00
O1003  O     0.56108   0.46179   0.83334   0.00000  Uiso   1.00
O1004  O     0.56108   0.53821   0.83334   0.00000  Uiso   1.00
O1005  O     0.43892   0.46179   0.83333   0.00000  Uiso   1.00
O1006  O     0.50000   0.53821   0.76178   0.00000  Uiso   1.00
O1007  O     0.50000   0.46179   0.90489   0.00000  Uiso   1.00
O1008  O     0.50000   0.53821   0.90489   0.00000  Uiso   1.00
O1009  O     0.50000   0.46179   0.76178   0.00000  Uiso   1.00
O1010  O     0.36775   0.38028   0.85407   0.00000  Uiso   1.00
Zn1011 Zn    0.50000   0.55104   0.83333   0.00000  Uiso   1.00
Zn1012 Zn    0.50000   0.44896   0.83333   0.00000  Uiso   1.00
C1013  C     0.75371   0.49982   0.84154   0.00000  Uiso   1.00
C1014  C     0.68961   0.54111   0.86892   0.00000  Uiso   1.00
C1015  C     0.95683   0.50081   0.85875   0.00000  Uiso   1.00
C1016  C     0.71006   0.49955   0.85914   0.00000  Uiso   1.00
C1017  C     0.84771   0.35736   0.87378   0.00000  Uiso   1.00
C1018  C     0.81843   0.64259   0.79312   0.00000  Uiso   1.00
C1019  C     0.81846   0.35721   0.79310   0.00000  Uiso   1.00
C1020  C     0.84783   0.64279   0.87374   0.00000  Uiso   1.00
C1021  C     0.71086   0.41511   0.87593   0.00000  Uiso   1.00
C1022  C     0.95600   0.58539   0.87438   0.00000  Uiso   1.00
C1023  C     0.95329   0.41978   0.88908   0.00000  Uiso   1.00
C1024  C     0.91305   0.50024   0.84133   0.00000  Uiso   1.00
C1025  C     0.71349   0.58167   0.88703   0.00000  Uiso   1.00
C1026  C     0.83333   0.50000   0.73952   0.00000  Uiso   1.00
C1027  C     0.83334   0.50000   0.92716   0.00000  Uiso   1.00
C1028  C     0.83333   0.50000   0.68844   0.00000  Uiso   1.00
C1029  C     0.83334   0.50000   0.97822   0.00000  Uiso   1.00
C1030  C     0.68797   0.45822   0.86659   0.00000  Uiso   1.00
C1031  C     0.97890   0.54225   0.86571   0.00000  Uiso   1.00
C1032  C     0.97726   0.45948   0.86939   0.00000  Uiso   1.00
H1033  H     0.85891   0.37542   0.90634   0.00000  Uiso   1.00
H1034  H     0.80640   0.62442   0.76098   0.00000  Uiso   1.00
H1035  H     0.80646   0.37522   0.76095   0.00000  Uiso   1.00
H1036  H     0.85938   0.62480   0.90612   0.00000  Uiso   1.00
H1037  H     0.73775   0.41484   0.90113   0.00000  Uiso   1.00
H1038  H     0.93007   0.58619   0.90087   0.00000  Uiso   1.00
H1039  H     0.96017   0.38564   0.87683   0.00000  Uiso   1.00
H1040  H     0.70520   0.61549   0.87504   0.00000  Uiso   1.00
N1041  N     0.83333   0.61907   0.83333   0.00000  Uiso   1.00
N1042  N     0.83333   0.38093   0.83333   0.00000  Uiso   1.00
O1043  O     0.77226   0.53821   0.83333   0.00000  Uiso   1.00
O1044  O     0.96465   0.61952   0.85062   0.00000  Uiso   1.00
O1045  O     0.92608   0.42518   0.92080   0.00000  Uiso   1.00
O1046  O     0.74223   0.57745   0.91712   0.00000  Uiso   1.00
O1047  O     0.89441   0.46179   0.83334   0.00000  Uiso   1.00
O1048  O     0.89441   0.53821   0.83334   0.00000  Uiso   1.00
O1049  O     0.77226   0.46179   0.83333   0.00000  Uiso   1.00
O1050  O     0.83334   0.53821   0.76178   0.00000  Uiso   1.00
O1051  O     0.83333   0.46179   0.90489   0.00000  Uiso   1.00
O1052  O     0.83333   0.53821   0.90489   0.00000  Uiso   1.00
O1053  O     0.83334   0.46179   0.76178   0.00000  Uiso   1.00
O1054  O     0.70108   0.38028   0.85407   0.00000  Uiso   1.00
Zn1055 Zn    0.83333   0.55104   0.83333   0.00000  Uiso   1.00
Zn1056 Zn    0.83333   0.44896   0.83333   0.00000  Uiso   1.00
C1057  C     0.08704   0.83316   0.84154   0.00000  Uiso   1.00
C1058  C     0.02295   0.87444   0.86892   0.00000  Uiso   1.00
C1059  C     0.29016   0.83415   0.85875   0.00000  Uiso   1.00
C1060  C     0.04339   0.83289   0.85914   0.00000  Uiso   1.00
C1061  C     0.18105   0.69070   0.87378   0.00000  Uiso   1.00
C1062  C     0.15176   0.97593   0.79312   0.00000  Uiso   1.00
C1063  C     0.15179   0.69054   0.79310   0.00000  Uiso   1.00
C1064  C     0.18117   0.97612   0.87374   0.00000  Uiso   1.00
C1065  C     0.04420   0.74845   0.87593   0.00000  Uiso   1.00
C1066  C     0.28933   0.91873   0.87438   0.00000  Uiso   1.00
C1067  C     0.28663   0.75311   0.88908   0.00000  Uiso   1.00
C1068  C     0.24638   0.83357   0.84133   0.00000  Uiso   1.00
C1069  C     0.04682   0.91500   0.88703   0.00000  Uiso   1.00
C1070  C     0.16666   0.83333   0.73952   0.00000  Uiso   1.00
C1071  C     0.16668   0.83333   0.92716   0.00000  Uiso   1.00
C1072  C     0.16667   0.83333   0.68844   0.00000  Uiso   1.00
C1073  C     0.16667   0.83333   0.97822   0.00000  Uiso   1.00
C1074  C     0.02131   0.79155   0.86659   0.00000  Uiso   1.00
C1075  C     0.31224   0.87558   0.86571   0.00000  Uiso   1.00
C1076  C     0.31059   0.79282   0.86939   0.00000  Uiso   1.00
H1077  H     0.19224   0.70875   0.90634   0.00000  Uiso   1.00
H1078  H     0.13973   0.95775   0.76098   0.00000  Uiso   1.00
H1079  H     0.13979   0.70855   0.76095   0.00000  Uiso   1.00
H1080  H     0.19271   0.95814   0.90612   0.00000  Uiso   1.00
H1081  H     0.07108   0.74817   0.90113   0.00000  Uiso   1.00
H1082  H     0.26340   0.91953   0.90087   0.00000  Uiso   1.00
H1083  H     0.29351   0.71898   0.87683   0.00000  Uiso   1.00
H1084  H     0.03853   0.94883   0.87504   0.00000  Uiso   1.00
N1085  N     0.16667   0.95240   0.83333   0.00000  Uiso   1.00
N1086  N     0.16667   0.71427   0.83333   0.00000  Uiso   1.00
O1087  O     0.10559   0.87154   0.83333   0.00000  Uiso   1.00
O1088  O     0.29798   0.95285   0.85062   0.00000  Uiso   1.00
O1089  O     0.25941   0.75851   0.92080   0.00000  Uiso   1.00
O1090  O     0.07556   0.91079   0.91712   0.00000  Uiso   1.00
O1091  O     0.22774   0.79513   0.83334   0.00000  Uiso   1.00
O1092  O     0.22774   0.87154   0.83334   0.00000  Uiso   1.00
O1093  O     0.10559   0.79513   0.83333   0.00000  Uiso   1.00
O1094  O     0.16667   0.87155   0.76178   0.00000  Uiso   1.00
O1095  O     0.16666   0.79512   0.90489   0.00000  Uiso   1.00
O1096  O     0.16666   0.87155   0.90489   0.00000  Uiso   1.00
O1097  O     0.16667   0.79512   0.76178   0.00000  Uiso   1.00
O1098  O     0.03442   0.71361   0.85407   0.00000  Uiso   1.00
Zn1099 Zn    0.16667   0.88437   0.83333   0.00000  Uiso   1.00
Zn1100 Zn    0.16667   0.78229   0.83333   0.00000  Uiso   1.00
C1101  C     0.42038   0.83316   0.84154   0.00000  Uiso   1.00
C1102  C     0.35628   0.87444   0.86892   0.00000  Uiso   1.00
C1103  C     0.62350   0.83415   0.85875   0.00000  Uiso   1.00
C1104  C     0.37673   0.83289   0.85914   0.00000  Uiso   1.00
C1105  C     0.51438   0.69070   0.87378   0.00000  Uiso   1.00
C1106  C     0.48509   0.97593   0.79312   0.00000  Uiso   1.00
C1107  C     0.48512   0.69054   0.79310   0.00000  Uiso   1.00
C1108  C     0.51450   0.97612   0.87374   0.00000  Uiso   1.00
C1109  C     0.37753   0.74845   0.87593   0.00000  Uiso   1.00
C1110  C     0.62266   0.91873   0.87438   0.00000  Uiso   1.00
C1111  C     0.61996   0.75311   0.88908   0.00000  Uiso   1.00
C1112  C     0.57972   0.83357   0.84133   0.00000  Uiso   1.00
C1113  C     0.38016   0.91500   0.88703   0.00000  Uiso   1.00
C1114  C     0.49999   0.83333   0.73952   0.00000  Uiso   1.00
C1115  C     0.50001   0.83333   0.92716   0.00000  Uiso   1.00
C1116  C     0.50000   0.83333   0.68844   0.00000  Uiso   1.00
C1117  C     0.50001   0.83333   0.97822   0.00000  Uiso   1.00
C1118  C     0.35464   0.79155   0.86659   0.00000  Uiso   1.00
C1119  C     0.64557   0.87558   0.86571   0.00000  Uiso   1.00
C1120  C     0.64393   0.79282   0.86939   0.00000  Uiso   1.00
H1121  H     0.52558   0.70875   0.90634   0.00000  Uiso   1.00
H1122  H     0.47306   0.95775   0.76098   0.00000  Uiso   1.00
H1123  H     0.47312   0.70855   0.76095   0.00000  Uiso   1.00
H1124  H     0.52604   0.95814   0.90612   0.00000  Uiso   1.00
H1125  H     0.40442   0.74817   0.90113   0.00000  Uiso   1.00
H1126  H     0.59674   0.91953   0.90087   0.00000  Uiso   1.00
H1127  H     0.62684   0.71898   0.87683   0.00000  Uiso   1.00
H1128  H     0.37186   0.94883   0.87504   0.00000  Uiso   1.00
N1129  N     0.50000   0.95240   0.83333   0.00000  Uiso   1.00
N1130  N     0.50000   0.71427   0.83333   0.00000  Uiso   1.00
O1131  O     0.43892   0.87154   0.83333   0.00000  Uiso   1.00
O1132  O     0.63131   0.95285   0.85062   0.00000  Uiso   1.00
O1133  O     0.59275   0.75851   0.92080   0.00000  Uiso   1.00
O1134  O     0.40890   0.91079   0.91712   0.00000  Uiso   1.00
O1135  O     0.56108   0.79513   0.83334   0.00000  Uiso   1.00
O1136  O     0.56108   0.87154   0.83334   0.00000  Uiso   1.00
O1137  O     0.43892   0.79513   0.83333   0.00000  Uiso   1.00
O1138  O     0.50000   0.87155   0.76178   0.00000  Uiso   1.00
O1139  O     0.50000   0.79512   0.90489   0.00000  Uiso   1.00
O1140  O     0.50000   0.87155   0.90489   0.00000  Uiso   1.00
O1141  O     0.50000   0.79512   0.76178   0.00000  Uiso   1.00
O1142  O     0.36775   0.71361   0.85407   0.00000  Uiso   1.00
Zn1143 Zn    0.50000   0.88437   0.83333   0.00000  Uiso   1.00
Zn1144 Zn    0.50000   0.78229   0.83333   0.00000  Uiso   1.00
C1145  C     0.75371   0.83316   0.84154   0.00000  Uiso   1.00
C1146  C     0.68961   0.87444   0.86892   0.00000  Uiso   1.00
C1147  C     0.95683   0.83415   0.85875   0.00000  Uiso   1.00
C1148  C     0.71006   0.83289   0.85914   0.00000  Uiso   1.00
C1149  C     0.84771   0.69070   0.87378   0.00000  Uiso   1.00
C1150  C     0.81843   0.97593   0.79312   0.00000  Uiso   1.00
C1151  C     0.81846   0.69054   0.79310   0.00000  Uiso   1.00
C1152  C     0.84783   0.97612   0.87374   0.00000  Uiso   1.00
C1153  C     0.71086   0.74845   0.87593   0.00000  Uiso   1.00
C1154  C     0.95600   0.91873   0.87438   0.00000  Uiso   1.00
C1155  C     0.95329   0.75311   0.88908   0.00000  Uiso   1.00
C1156  C     0.91305   0.83357   0.84133   0.00000  Uiso   1.00
C1157  C     0.71349   0.91500   0.88703   0.00000  Uiso   1.00
C1158  C     0.83333   0.83333   0.73952   0.00000  Uiso   1.00
C1159  C     0.83334   0.83333   0.92716   0.00000  Uiso   1.00
C1160  C     0.83333   0.83333   0.68844   0.00000  Uiso   1.00
C1161  C     0.83334   0.83333   0.97822   0.00000  Uiso   1.00
C1162  C     0.68797   0.79155   0.86659   0.00000  Uiso   1.00
C1163  C     0.97890   0.87558   0.86571   0.00000  Uiso   1.00
C1164  C     0.97726   0.79282   0.86939   0.00000  Uiso   1.00
H1165  H     0.85891   0.70875   0.90634   0.00000  Uiso   1.00
H1166  H     0.80640   0.95775   0.76098   0.00000  Uiso   1.00
H1167  H     0.80646   0.70855   0.76095   0.00000  Uiso   1.00
H1168  H     0.85938   0.95814   0.90612   0.00000  Uiso   1.00
H1169  H     0.73775   0.74817   0.90113   0.00000  Uiso   1.00
H1170  H     0.93007   0.91953   0.90087   0.00000  Uiso   1.00
H1171  H     0.96017   0.71898   0.87683   0.00000  Uiso   1.00
H1172  H     0.70520   0.94883   0.87504   0.00000  Uiso   1.00
N1173  N     0.83333   0.95240   0.83333   0.00000  Uiso   1.00
N1174  N     0.83333   0.71427   0.83333   0.00000  Uiso   1.00
O1175  O     0.77226   0.87154   0.83333   0.00000  Uiso   1.00
O1176  O     0.96465   0.95285   0.85062   0.00000  Uiso   1.00
O1177  O     0.92608   0.75851   0.92080   0.00000  Uiso   1.00
O1178  O     0.74223   0.91079   0.91712   0.00000  Uiso   1.00
O1179  O     0.89441   0.79513   0.83334   0.00000  Uiso   1.00
O1180  O     0.89441   0.87154   0.83334   0.00000  Uiso   1.00
O1181  O     0.77226   0.79513   0.83333   0.00000  Uiso   1.00
O1182  O     0.83334   0.87155   0.76178   0.00000  Uiso   1.00
O1183  O     0.83333   0.79512   0.90489   0.00000  Uiso   1.00
O1184  O     0.83333   0.87155   0.90489   0.00000  Uiso   1.00
O1185  O     0.83334   0.79512   0.76178   0.00000  Uiso   1.00
O1186  O     0.70108   0.71361   0.85407   0.00000  Uiso   1.00
Zn1187 Zn    0.83333   0.88437   0.83333   0.00000  Uiso   1.00
Zn1188 Zn    0.83333   0.78229   0.83333   0.00000  Uiso   1.00
loop_
_geom_bond_atom_site_label_1
_geom_bond_atom_site_label_2
_geom_bond_distance
_geom_bond_site_symmetry_2
_ccdc_geom_bond_type
C1     O37     1.289   .     A
C1     C4      1.460   .     S
C1     O31     1.291   .     A
C2     C4      1.415   .     A
C2     C13     1.492   .     S
C2     C107    1.397   1_455 S
C3     C19     1.417   .     A
C3     C20     1.413   .     A
C3     C12     1.462   .     S
C4     C18     1.416   .     A
C5     H21     1.080   .     S
C5     N30     1.366   .     A
C5     C272    1.414   1_545 S
C6     H22     1.081   .     S
C6     N29     1.366   .     A
C6     C139    1.415   .     S
C7     N30     1.366   .     A
C7     H23     1.081   .     S
C7     C270    1.415   1_545 S
C8     N29     1.366   .     A
C8     H24     1.081   .     S
C8     C137    1.414   .     S
C9     H25     1.086   .     S
C9     O42     1.221   .     D
C9     C18     1.489   .     S
C10    C19     1.487   .     S
C10    H26     1.085   .     S
C10    O32     1.221   .     D
C11    H27     1.083   .     S
C11    C20     1.488   .     S
C11    O33     1.221   .     D
C12    O35     1.293   .     A
C12    O36     1.287   .     A
C13    H28     1.082   .     S
C13    O34     1.221   .     D
C14    O38     1.275   .     A
C14    O41     1.275   .     A
C14    C16     1.367   .     S
C15    O39     1.275   .     A
C15    O40     1.275   .     A
C15    C17     1.366   .     S
C16    C809    1.166   1_554 S
C17    C412    1.166   .     S
C18    C108    1.397   1_455 S
C19    C46     1.397   .     S
C20    C62     1.397   .     S
N29    Zn43    2.007   .     S
N30    Zn44    2.007   .     S
O31    Zn43    1.967   .     S
O35    Zn44    1.967   .     S
O36    Zn43    1.972   .     S
O37    Zn44    1.972   .     S
O38    Zn43    1.952   .     S
O39    Zn44    1.952   .     S
O40    Zn43    1.952   .     S
O41    Zn44    1.952   .     S
C45    O81     1.289   .     A
C45    C48     1.460   .     S
C45    O75     1.291   .     A
C46    C48     1.415   .     A
C46    C57     1.492   .     S
C47    C63     1.417   .     A
C47    C64     1.413   .     A
C47    C56     1.462   .     S
C48    C62     1.416   .     A
C49    H65     1.080   .     S
C49    N74     1.366   .     A
C49    C316    1.414   1_545 S
C50    H66     1.081   .     S
C50    N73     1.366   .     A
C50    C183    1.415   .     S
C51    N74     1.366   .     A
C51    H67     1.081   .     S
C51    C314    1.415   1_545 S
C52    N73     1.366   .     A
C52    H68     1.081   .     S
C52    C181    1.414   .     S
C53    H69     1.086   .     S
C53    O86     1.221   .     D
C53    C62     1.489   .     S
C54    C63     1.487   .     S
C54    H70     1.085   .     S
C54    O76     1.221   .     D
C55    H71     1.083   .     S
C55    C64     1.488   .     S
C55    O77     1.221   .     D
C56    O79     1.293   .     A
C56    O80     1.287   .     A
C57    H72     1.082   .     S
C57    O78     1.221   .     D
C58    O82     1.275   .     A
C58    O85     1.275   .     A
C58    C60     1.367   .     S
C59    O83     1.275   .     A
C59    O84     1.275   .     A
C59    C61     1.366   .     S
C60    C853    1.166   1_554 S
C61    C456    1.166   .     S
C63    C90     1.397   .     S
C64    C106    1.397   .     S
N73    Zn87    2.007   .     S
N74    Zn88    2.007   .     S
O75    Zn87    1.967   .     S
O79    Zn88    1.967   .     S
O80    Zn87    1.972   .     S
O81    Zn88    1.972   .     S
O82    Zn87    1.952   .     S
O83    Zn88    1.952   .     S
O84    Zn87    1.952   .     S
O85    Zn88    1.952   .     S
C89    O125    1.289   .     A
C89    C92     1.460   .     S
C89    O119    1.291   .     A
C90    C92     1.415   .     A
C90    C101    1.492   .     S
C91    C107    1.417   .     A
C91    C108    1.413   .     A
C91    C100    1.462   .     S
C92    C106    1.416   .     A
C93    H109    1.080   .     S
C93    N118    1.366   .     A
C93    C360    1.414   1_545 S
C94    H110    1.081   .     S
C94    N117    1.366   .     A
C94    C227    1.415   .     S
C95    N118    1.366   .     A
C95    H111    1.081   .     S
C95    C358    1.415   1_545 S
C96    N117    1.366   .     A
C96    H112    1.081   .     S
C96    C225    1.414   .     S
C97    H113    1.086   .     S
C97    O130    1.221   .     D
C97    C106    1.489   .     S
C98    C107    1.487   .     S
C98    H114    1.085   .     S
C98    O120    1.221   .     D
C99    H115    1.083   .     S
C99    C108    1.488   .     S
C99    O121    1.221   .     D
C100   O123    1.293   .     A
C100   O124    1.287   .     A
C101   H116    1.082   .     S
C101   O122    1.221   .     D
C102   O126    1.275   .     A
C102   O129    1.275   .     A
C102   C104    1.367   .     S
C103   O127    1.275   .     A
C103   O128    1.275   .     A
C103   C105    1.366   .     S
C104   C897    1.166   1_554 S
C105   C500    1.166   .     S
C107   C2      1.397   1_655 S
C108   C18     1.397   1_655 S
N117   Zn131   2.007   .     S
N118   Zn132   2.007   .     S
O119   Zn131   1.967   .     S
O123   Zn132   1.967   .     S
O124   Zn131   1.972   .     S
O125   Zn132   1.972   .     S
O126   Zn131   1.952   .     S
O127   Zn132   1.952   .     S
O128   Zn131   1.952   .     S
O129   Zn132   1.952   .     S
C133   O169    1.289   .     A
C133   C136    1.460   .     S
C133   O163    1.291   .     A
C134   C136    1.415   .     A
C134   C145    1.492   .     S
C134   C239    1.397   1_455 S
C135   C151    1.417   .     A
C135   C152    1.413   .     A
C135   C144    1.462   .     S
C136   C150    1.416   .     A
C137   H153    1.080   .     S
C137   N162    1.366   .     A
C138   H154    1.081   .     S
C138   N161    1.366   .     A
C138   C271    1.415   .     S
C139   N162    1.366   .     A
C139   H155    1.081   .     S
C140   N161    1.366   .     A
C140   H156    1.081   .     S
C140   C269    1.414   .     S
C141   H157    1.086   .     S
C141   O174    1.221   .     D
C141   C150    1.489   .     S
C142   C151    1.487   .     S
C142   H158    1.085   .     S
C142   O164    1.221   .     D
C143   H159    1.083   .     S
C143   C152    1.488   .     S
C143   O165    1.221   .     D
C144   O167    1.293   .     A
C144   O168    1.287   .     A
C145   H160    1.082   .     S
C145   O166    1.221   .     D
C146   O170    1.275   .     A
C146   O173    1.275   .     A
C146   C148    1.367   .     S
C147   O171    1.275   .     A
C147   O172    1.275   .     A
C147   C149    1.366   .     S
C148   C941    1.166   1_554 S
C149   C544    1.166   .     S
C150   C240    1.397   1_455 S
C151   C178    1.397   .     S
C152   C194    1.397   .     S
N161   Zn175   2.007   .     S
N162   Zn176   2.007   .     S
O163   Zn175   1.967   .     S
O167   Zn176   1.967   .     S
O168   Zn175   1.972   .     S
O169   Zn176   1.972   .     S
O170   Zn175   1.952   .     S
O171   Zn176   1.952   .     S
O172   Zn175   1.952   .     S
O173   Zn176   1.952   .     S
C177   O213    1.289   .     A
C177   C180    1.460   .     S
C177   O207    1.291   .     A
C178   C180    1.415   .     A
C178   C189    1.492   .     S
C179   C195    1.417   .     A
C179   C196    1.413   .     A
C179   C188    1.462   .     S
C180   C194    1.416   .     A
C181   H197    1.080   .     S
C181   N206    1.366   .     A
C182   H198    1.081   .     S
C182   N205    1.366   .     A
C182   C315    1.415   .     S
C183   N206    1.366   .     A
C183   H199    1.081   .     S
C184   N205    1.366   .     A
C184   H200    1.081   .     S
C184   C313    1.414   .     S
C185   H201    1.086   .     S
C185   O218    1.221   .     D
C185   C194    1.489   .     S
C186   C195    1.487   .     S
C186   H202    1.085   .     S
C186   O208    1.221   .     D
C187   H203    1.083   .     S
C187   C196    1.488   .     S
C187   O209    1.221   .     D
C188   O211    1.293   .     A
C188   O212    1.287   .     A
C189   H204    1.082   .     S
C189   O210    1.221   .     D
C190   O214    1.275   .     A
C190   O217    1.275   .     A
C190   C192    1.367   .     S
C191   O215    1.275   .     A
C191   O216    1.275   .     A
C191   C193    1.366   .     S
C192   C985    1.166   1_554 S
C193   C588    1.166   .     S
C195   C222    1.397   .     S
C196   C238    1.397   .     S
N205   Zn219   2.007   .     S
N206   Zn220   2.007   .     S
O207   Zn219   1.967   .     S
O211   Zn220   1.967   .     S
O212   Zn219   1.972   .     S
O213   Zn220   1.972   .     S
O214   Zn219   1.952   .     S
O215   Zn220   1.952   .     S
O216   Zn219   1.952   .     S
O217   Zn220   1.952   .     S
C221   O257    1.289   .     A
C221   C224    1.460   .     S
C221   O251    1.291   .     A
C222   C224    1.415   .     A
C222   C233    1.492   .     S
C223   C239    1.417   .     A
C223   C240    1.413   .     A
C223   C232    1.462   .     S
C224   C238    1.416   .     A
C225   H241    1.080   .     S
C225   N250    1.366   .     A
C226   H242    1.081   .     S
C226   N249    1.366   .     A
C226   C359    1.415   .     S
C227   N250    1.366   .     A
C227   H243    1.081   .     S
C228   N249    1.366   .     A
C228   H244    1.081   .     S
C228   C357    1.414   .     S
C229   H245    1.086   .     S
C229   O262    1.221   .     D
C229   C238    1.489   .     S
C230   C239    1.487   .     S
C230   H246    1.085   .     S
C230   O252    1.221   .     D
C231   H247    1.083   .     S
C231   C240    1.488   .     S
C231   O253    1.221   .     D
C232   O255    1.293   .     A
C232   O256    1.287   .     A
C233   H248    1.082   .     S
C233   O254    1.221   .     D
C234   O258    1.275   .     A
C234   O261    1.275   .     A
C234   C236    1.367   .     S
C235   O259    1.275   .     A
C235   O260    1.275   .     A
C235   C237    1.366   .     S
C236   C1029   1.166   1_554 S
C237   C632    1.166   .     S
C239   C134    1.397   1_655 S
C240   C150    1.397   1_655 S
N249   Zn263   2.007   .     S
N250   Zn264   2.007   .     S
O251   Zn263   1.967   .     S
O255   Zn264   1.967   .     S
O256   Zn263   1.972   .     S
O257   Zn264   1.972   .     S
O258   Zn263   1.952   .     S
O259   Zn264   1.952   .     S
O260   Zn263   1.952   .     S
O261   Zn264   1.952   .     S
C265   O301    1.289   .     A
C265   C268    1.460   .     S
C265   O295    1.291   .     A
C266   C268    1.415   .     A
C266   C277    1.492   .     S
C266   C371    1.397   1_455 S
C267   C283    1.417   .     A
C267   C284    1.413   .     A
C267   C276    1.462   .     S
C268   C282    1.416   .     A
C269   H285    1.080   .     S
C269   N294    1.366   .     A
C270   H286    1.081   .     S
C270   N293    1.366   .     A
C270   C7      1.415   1_565 S
C271   N294    1.366   .     A
C271   H287    1.081   .     S
C272   N293    1.366   .     A
C272   H288    1.081   .     S
C272   C5      1.414   1_565 S
C273   H289    1.086   .     S
C273   O306    1.221   .     D
C273   C282    1.489   .     S
C274   C283    1.487   .     S
C274   H290    1.085   .     S
C274   O296    1.221   .     D
C275   H291    1.083   .     S
C275   C284    1.488   .     S
C275   O297    1.221   .     D
C276   O299    1.293   .     A
C276   O300    1.287   .     A
C277   H292    1.082   .     S
C277   O298    1.221   .     D
C278   O302    1.275   .     A
C278   O305    1.275   .     A
C278   C280    1.367   .     S
C279   O303    1.275   .     A
C279   O304    1.275   .     A
C279   C281    1.366   .     S
C280   C1073   1.166   1_554 S
C281   C676    1.166   .     S
C282   C372    1.397   1_455 S
C283   C310    1.397   .     S
C284   C326    1.397   .     S
N293   Zn307   2.007   .     S
N294   Zn308   2.007   .     S
O295   Zn307   1.967   .     S
O299   Zn308   1.967   .     S
O300   Zn307   1.972   .     S
O301   Zn308   1.972   .     S
O302   Zn307   1.952   .     S
O303   Zn308   1.952   .     S
O304   Zn307   1.952   .     S
O305   Zn308   1.952   .     S
C309   O345    1.289   .     A
C309   C312    1.460   .     S
C309   O339    1.291   .     A
C310   C312    1.415   .     A
C310   C321    1.492   .     S
C311   C327    1.417   .     A
C311   C328    1.413   .     A
C311   C320    1.462   .     S
C312   C326    1.416   .     A
C313   H329    1.080   .     S
C313   N338    1.366   .     A
C314   H330    1.081   .     S
C314   N337    1.366   .     A
C314   C51     1.415   1_565 S
C315   N338    1.366   .     A
C315   H331    1.081   .     S
C316   N337    1.366   .     A
C316   H332    1.081   .     S
C316   C49     1.414   1_565 S
C317   H333    1.086   .     S
C317   O350    1.221   .     D
C317   C326    1.489   .     S
C318   C327    1.487   .     S
C318   H334    1.085   .     S
C318   O340    1.221   .     D
C319   H335    1.083   .     S
C319   C328    1.488   .     S
C319   O341    1.221   .     D
C320   O343    1.293   .     A
C320   O344    1.287   .     A
C321   H336    1.082   .     S
C321   O342    1.221   .     D
C322   O346    1.275   .     A
C322   O349    1.275   .     A
C322   C324    1.367   .     S
C323   O347    1.275   .     A
C323   O348    1.275   .     A
C323   C325    1.366   .     S
C324   C1117   1.166   1_554 S
C325   C720    1.166   .     S
C327   C354    1.397   .     S
C328   C370    1.397   .     S
N337   Zn351   2.007   .     S
N338   Zn352   2.007   .     S
O339   Zn351   1.967   .     S
O343   Zn352   1.967   .     S
O344   Zn351   1.972   .     S
O345   Zn352   1.972   .     S
O346   Zn351   1.952   .     S
O347   Zn352   1.952   .     S
O348   Zn351   1.952   .     S
O349   Zn352   1.952   .     S
C353   O389    1.289   .     A
C353   C356    1.460   .     S
C353   O383    1.291   .     A
C354   C356    1.415   .     A
C354   C365    1.492   .     S
C355   C371    1.417   .     A
C355   C372    1.413   .     A
C355   C364    1.462   .     S
C356   C370    1.416   .     A
C357   H373    1.080   .     S
C357   N382    1.366   .     A
C358   H374    1.081   .     S
C358   N381    1.366   .     A
C358   C95     1.415   1_565 S
C359   N382    1.366   .     A
C359   H375    1.081   .     S
C360   N381    1.366   .     A
C360   H376    1.081   .     S
C360   C93     1.414   1_565 S
C361   H377    1.086   .     S
C361   O394    1.221   .     D
C361   C370    1.489   .     S
C362   C371    1.487   .     S
C362   H378    1.085   .     S
C362   O384    1.221   .     D
C363   H379    1.083   .     S
C363   C372    1.488   .     S
C363   O385    1.221   .     D
C364   O387    1.293   .     A
C364   O388    1.287   .     A
C365   H380    1.082   .     S
C365   O386    1.221   .     D
C366   O390    1.275   .     A
C366   O393    1.275   .     A
C366   C368    1.367   .     S
C367   O391    1.275   .     A
C367   O392    1.275   .     A
C367   C369    1.366   .     S
C368   C1161   1.166   1_554 S
C369   C764    1.166   .     S
C371   C266    1.397   1_655 S
C372   C282    1.397   1_655 S
N381   Zn395   2.007   .     S
N382   Zn396   2.007   .     S
O383   Zn395   1.967   .     S
O387   Zn396   1.967   .     S
O388   Zn395   1.972   .     S
O389   Zn396   1.972   .     S
O390   Zn395   1.952   .     S
O391   Zn396   1.952   .     S
O392   Zn395   1.952   .     S
O393   Zn396   1.952   .     S
C397   O433    1.289   .     A
C397   C400    1.460   .     S
C397   O427    1.291   .     A
C398   C400    1.415   .     A
C398   C409    1.492   .     S
C398   C503    1.397   1_455 S
C399   C415    1.417   .     A
C399   C416    1.413   .     A
C399   C408    1.462   .     S
C400   C414    1.416   .     A
C401   H417    1.080   .     S
C401   N426    1.366   .     A
C401   C668    1.414   1_545 S
C402   H418    1.081   .     S
C402   N425    1.366   .     A
C402   C535    1.415   .     S
C403   N426    1.366   .     A
C403   H419    1.081   .     S
C403   C666    1.415   1_545 S
C404   N425    1.366   .     A
C404   H420    1.081   .     S
C404   C533    1.414   .     S
C405   H421    1.086   .     S
C405   O438    1.221   .     D
C405   C414    1.489   .     S
C406   C415    1.487   .     S
C406   H422    1.085   .     S
C406   O428    1.221   .     D
C407   H423    1.083   .     S
C407   C416    1.488   .     S
C407   O429    1.221   .     D
C408   O431    1.293   .     A
C408   O432    1.287   .     A
C409   H424    1.082   .     S
C409   O430    1.221   .     D
C410   O434    1.275   .     A
C410   O437    1.275   .     A
C410   C412    1.367   .     S
C411   O435    1.275   .     A
C411   O436    1.275   .     A
C411   C413    1.366   .     S
C413   C808    1.166   .     S
C414   C504    1.397   1_455 S
C415   C442    1.397   .     S
C416   C458    1.397   .     S
N425   Zn439   2.007   .     S
N426   Zn440   2.007   .     S
O427   Zn439   1.967   .     S
O431   Zn440   1.967   .     S
O432   Zn439   1.972   .     S
O433   Zn440   1.972   .     S
O434   Zn439   1.952   .     S
O435   Zn440   1.952   .     S
O436   Zn439   1.952   .     S
O437   Zn440   1.952   .     S
C441   O477    1.289   .     A
C441   C444    1.460   .     S
C441   O471    1.291   .     A
C442   C444    1.415   .     A
C442   C453    1.492   .     S
C443   C459    1.417   .     A
C443   C460    1.413   .     A
C443   C452    1.462   .     S
C444   C458    1.416   .     A
C445   H461    1.080   .     S
C445   N470    1.366   .     A
C445   C712    1.414   1_545 S
C446   H462    1.081   .     S
C446   N469    1.366   .     A
C446   C579    1.415   .     S
C447   N470    1.366   .     A
C447   H463    1.081   .     S
C447   C710    1.415   1_545 S
C448   N469    1.366   .     A
C448   H464    1.081   .     S
C448   C577    1.414   .     S
C449   H465    1.086   .     S
C449   O482    1.221   .     D
C449   C458    1.489   .     S
C450   C459    1.487   .     S
C450   H466    1.085   .     S
C450   O472    1.221   .     D
C451   H467    1.083   .     S
C451   C460    1.488   .     S
C451   O473    1.221   .     D
C452   O475    1.293   .     A
C452   O476    1.287   .     A
C453   H468    1.082   .     S
C453   O474    1.221   .     D
C454   O478    1.275   .     A
C454   O481    1.275   .     A
C454   C456    1.367   .     S
C455   O479    1.275   .     A
C455   O480    1.275   .     A
C455   C457    1.366   .     S
C457   C852    1.166   .     S
C459   C486    1.397   .     S
C460   C502    1.397   .     S
N469   Zn483   2.007   .     S
N470   Zn484   2.007   .     S
O471   Zn483   1.967   .     S
O475   Zn484   1.967   .     S
O476   Zn483   1.972   .     S
O477   Zn484   1.972   .     S
O478   Zn483   1.952   .     S
O479   Zn484   1.952   .     S
O480   Zn483   1.952   .     S
O481   Zn484   1.952   .     S
C485   O521    1.289   .     A
C485   C488    1.460   .     S
C485   O515    1.291   .     A
C486   C488    1.415   .     A
C486   C497    1.492   .     S
C487   C503    1.417   .     A
C487   C504    1.413   .     A
C487   C496    1.462   .     S
C488   C502    1.416   .     A
C489   H505    1.080   .     S
C489   N514    1.366   .     A
C489   C756    1.414   1_545 S
C490   H506    1.081   .     S
C490   N513    1.366   .     A
C490   C623    1.415   .     S
C491   N514    1.366   .     A
C491   H507    1.081   .     S
C491   C754    1.415   1_545 S
C492   N513    1.366   .     A
C492   H508    1.081   .     S
C492   C621    1.414   .     S
C493   H509    1.086   .     S
C493   O526    1.221   .     D
C493   C502    1.489   .     S
C494   C503    1.487   .     S
C494   H510    1.085   .     S
C494   O516    1.221   .     D
C495   H511    1.083   .     S
C495   C504    1.488   .     S
C495   O517    1.221   .     D
C496   O519    1.293   .     A
C496   O520    1.287   .     A
C497   H512    1.082   .     S
C497   O518    1.221   .     D
C498   O522    1.275   .     A
C498   O525    1.275   .     A
C498   C500    1.367   .     S
C499   O523    1.275   .     A
C499   O524    1.275   .     A
C499   C501    1.366   .     S
C501   C896    1.166   .     S
C503   C398    1.397   1_655 S
C504   C414    1.397   1_655 S
N513   Zn527   2.007   .     S
N514   Zn528   2.007   .     S
O515   Zn527   1.967   .     S
O519   Zn528   1.967   .     S
O520   Zn527   1.972   .     S
O521   Zn528   1.972   .     S
O522   Zn527   1.952   .     S
O523   Zn528   1.952   .     S
O524   Zn527   1.952   .     S
O525   Zn528   1.952   .     S
C529   O565    1.289   .     A
C529   C532    1.460   .     S
C529   O559    1.291   .     A
C530   C532    1.415   .     A
C530   C541    1.492   .     S
C530   C635    1.397   1_455 S
C531   C547    1.417   .     A
C531   C548    1.413   .     A
C531   C540    1.462   .     S
C532   C546    1.416   .     A
C533   H549    1.080   .     S
C533   N558    1.366   .     A
C534   H550    1.081   .     S
C534   N557    1.366   .     A
C534   C667    1.415   .     S
C535   N558    1.366   .     A
C535   H551    1.081   .     S
C536   N557    1.366   .     A
C536   H552    1.081   .     S
C536   C665    1.414   .     S
C537   H553    1.086   .     S
C537   O570    1.221   .     D
C537   C546    1.489   .     S
C538   C547    1.487   .     S
C538   H554    1.085   .     S
C538   O560    1.221   .     D
C539   H555    1.083   .     S
C539   C548    1.488   .     S
C539   O561    1.221   .     D
C540   O563    1.293   .     A
C540   O564    1.287   .     A
C541   H556    1.082   .     S
C541   O562    1.221   .     D
C542   O566    1.275   .     A
C542   O569    1.275   .     A
C542   C544    1.367   .     S
C543   O567    1.275   .     A
C543   O568    1.275   .     A
C543   C545    1.366   .     S
C545   C940    1.166   .     S
C546   C636    1.397   1_455 S
C547   C574    1.397   .     S
C548   C590    1.397   .     S
N557   Zn571   2.007   .     S
N558   Zn572   2.007   .     S
O559   Zn571   1.967   .     S
O563   Zn572   1.967   .     S
O564   Zn571   1.972   .     S
O565   Zn572   1.972   .     S
O566   Zn571   1.952   .     S
O567   Zn572   1.952   .     S
O568   Zn571   1.952   .     S
O569   Zn572   1.952   .     S
C573   O609    1.289   .     A
C573   C576    1.460   .     S
C573   O603    1.291   .     A
C574   C576    1.415   .     A
C574   C585    1.492   .     S
C575   C591    1.417   .     A
C575   C592    1.413   .     A
C575   C584    1.462   .     S
C576   C590    1.416   .     A
C577   H593    1.080   .     S
C577   N602    1.366   .     A
C578   H594    1.081   .     S
C578   N601    1.366   .     A
C578   C711    1.415   .     S
C579   N602    1.366   .     A
C579   H595    1.081   .     S
C580   N601    1.366   .     A
C580   H596    1.081   .     S
C580   C709    1.414   .     S
C581   H597    1.086   .     S
C581   O614    1.221   .     D
C581   C590    1.489   .     S
C582   C591    1.487   .     S
C582   H598    1.085   .     S
C582   O604    1.221   .     D
C583   H599    1.083   .     S
C583   C592    1.488   .     S
C583   O605    1.221   .     D
C584   O607    1.293   .     A
C584   O608    1.287   .     A
C585   H600    1.082   .     S
C585   O606    1.221   .     D
C586   O610    1.275   .     A
C586   O613    1.275   .     A
C586   C588    1.367   .     S
C587   O611    1.275   .     A
C587   O612    1.275   .     A
C587   C589    1.366   .     S
C589   C984    1.166   .     S
C591   C618    1.397   .     S
C592   C634    1.397   .     S
N601   Zn615   2.007   .     S
N602   Zn616   2.007   .     S
O603   Zn615   1.967   .     S
O607   Zn616   1.967   .     S
O608   Zn615   1.972   .     S
O609   Zn616   1.972   .     S
O610   Zn615   1.952   .     S
O611   Zn616   1.952   .     S
O612   Zn615   1.952   .     S
O613   Zn616   1.952   .     S
C617   O653    1.289   .     A
C617   C620    1.460   .     S
C617   O647    1.291   .     A
C618   C620    1.415   .     A
C618   C629    1.492   .     S
C619   C635    1.417   .     A
C619   C636    1.413   .     A
C619   C628    1.462   .     S
C620   C634    1.416   .     A
C621   H637    1.080   .     S
C621   N646    1.366   .     A
C622   H638    1.081   .     S
C622   N645    1.366   .     A
C622   C755    1.415   .     S
C623   N646    1.366   .     A
C623   H639    1.081   .     S
C624   N645    1.366   .     A
C624   H640    1.081   .     S
C624   C753    1.414   .     S
C625   H641    1.086   .     S
C625   O658    1.221   .     D
C625   C634    1.489   .     S
C626   C635    1.487   .     S
C626   H642    1.085   .     S
C626   O648    1.221   .     D
C627   H643    1.083   .     S
C627   C636    1.488   .     S
C627   O649    1.221   .     D
C628   O651    1.293   .     A
C628   O652    1.287   .     A
C629   H644    1.082   .     S
C629   O650    1.221   .     D
C630   O654    1.275   .     A
C630   O657    1.275   .     A
C630   C632    1.367   .     S
C631   O655    1.275   .     A
C631   O656    1.275   .     A
C631   C633    1.366   .     S
C633   C1028   1.166   .     S
C635   C530    1.397   1_655 S
C636   C546    1.397   1_655 S
N645   Zn659   2.007   .     S
N646   Zn660   2.007   .     S
O647   Zn659   1.967   .     S
O651   Zn660   1.967   .     S
O652   Zn659   1.972   .     S
O653   Zn660   1.972   .     S
O654   Zn659   1.952   .     S
O655   Zn660   1.952   .     S
O656   Zn659   1.952   .     S
O657   Zn660   1.952   .     S
C661   O697    1.289   .     A
C661   C664    1.460   .     S
C661   O691    1.291   .     A
C662   C664    1.415   .     A
C662   C673    1.492   .     S
C662   C767    1.397   1_455 S
C663   C679    1.417   .     A
C663   C680    1.413   .     A
C663   C672    1.462   .     S
C664   C678    1.416   .     A
C665   H681    1.080   .     S
C665   N690    1.366   .     A
C666   H682    1.081   .     S
C666   N689    1.366   .     A
C666   C403    1.415   1_565 S
C667   N690    1.366   .     A
C667   H683    1.081   .     S
C668   N689    1.366   .     A
C668   H684    1.081   .     S
C668   C401    1.414   1_565 S
C669   H685    1.086   .     S
C669   O702    1.221   .     D
C669   C678    1.489   .     S
C670   C679    1.487   .     S
C670   H686    1.085   .     S
C670   O692    1.221   .     D
C671   H687    1.083   .     S
C671   C680    1.488   .     S
C671   O693    1.221   .     D
C672   O695    1.293   .     A
C672   O696    1.287   .     A
C673   H688    1.082   .     S
C673   O694    1.221   .     D
C674   O698    1.275   .     A
C674   O701    1.275   .     A
C674   C676    1.367   .     S
C675   O699    1.275   .     A
C675   O700    1.275   .     A
C675   C677    1.366   .     S
C677   C1072   1.166   .     S
C678   C768    1.397   1_455 S
C679   C706    1.397   .     S
C680   C722    1.397   .     S
N689   Zn703   2.007   .     S
N690   Zn704   2.007   .     S
O691   Zn703   1.967   .     S
O695   Zn704   1.967   .     S
O696   Zn703   1.972   .     S
O697   Zn704   1.972   .     S
O698   Zn703   1.952   .     S
O699   Zn704   1.952   .     S
O700   Zn703   1.952   .     S
O701   Zn704   1.952   .     S
C705   O741    1.289   .     A
C705   C708    1.460   .     S
C705   O735    1.291   .     A
C706   C708    1.415   .     A
C706   C717    1.492   .     S
C707   C723    1.417   .     A
C707   C724    1.413   .     A
C707   C716    1.462   .     S
C708   C722    1.416   .     A
C709   H725    1.080   .     S
C709   N734    1.366   .     A
C710   H726    1.081   .     S
C710   N733    1.366   .     A
C710   C447    1.415   1_565 S
C711   N734    1.366   .     A
C711   H727    1.081   .     S
C712   N733    1.366   .     A
C712   H728    1.081   .     S
C712   C445    1.414   1_565 S
C713   H729    1.086   .     S
C713   O746    1.221   .     D
C713   C722    1.489   .     S
C714   C723    1.487   .     S
C714   H730    1.085   .     S
C714   O736    1.221   .     D
C715   H731    1.083   .     S
C715   C724    1.488   .     S
C715   O737    1.221   .     D
C716   O739    1.293   .     A
C716   O740    1.287   .     A
C717   H732    1.082   .     S
C717   O738    1.221   .     D
C718   O742    1.275   .     A
C718   O745    1.275   .     A
C718   C720    1.367   .     S
C719   O743    1.275   .     A
C719   O744    1.275   .     A
C719   C721    1.366   .     S
C721   C1116   1.166   .     S
C723   C750    1.397   .     S
C724   C766    1.397   .     S
N733   Zn747   2.007   .     S
N734   Zn748   2.007   .     S
O735   Zn747   1.967   .     S
O739   Zn748   1.967   .     S
O740   Zn747   1.972   .     S
O741   Zn748   1.972   .     S
O742   Zn747   1.952   .     S
O743   Zn748   1.952   .     S
O744   Zn747   1.952   .     S
O745   Zn748   1.952   .     S
C749   O785    1.289   .     A
C749   C752    1.460   .     S
C749   O779    1.291   .     A
C750   C752    1.415   .     A
C750   C761    1.492   .     S
C751   C767    1.417   .     A
C751   C768    1.413   .     A
C751   C760    1.462   .     S
C752   C766    1.416   .     A
C753   H769    1.080   .     S
C753   N778    1.366   .     A
C754   H770    1.081   .     S
C754   N777    1.366   .     A
C754   C491    1.415   1_565 S
C755   N778    1.366   .     A
C755   H771    1.081   .     S
C756   N777    1.366   .     A
C756   H772    1.081   .     S
C756   C489    1.414   1_565 S
C757   H773    1.086   .     S
C757   O790    1.221   .     D
C757   C766    1.489   .     S
C758   C767    1.487   .     S
C758   H774    1.085   .     S
C758   O780    1.221   .     D
C759   H775    1.083   .     S
C759   C768    1.488   .     S
C759   O781    1.221   .     D
C760   O783    1.293   .     A
C760   O784    1.287   .     A
C761   H776    1.082   .     S
C761   O782    1.221   .     D
C762   O786    1.275   .     A
C762   O789    1.275   .     A
C762   C764    1.367   .     S
C763   O787    1.275   .     A
C763   O788    1.275   .     A
C763   C765    1.366   .     S
C765   C1160   1.166   .     S
C767   C662    1.397   1_655 S
C768   C678    1.397   1_655 S
N777   Zn791   2.007   .     S
N778   Zn792   2.007   .     S
O779   Zn791   1.967   .     S
O783   Zn792   1.967   .     S
O784   Zn791   1.972   .     S
O785   Zn792   1.972   .     S
O786   Zn791   1.952   .     S
O787   Zn792   1.952   .     S
O788   Zn791   1.952   .     S
O789   Zn792   1.952   .     S
C793   O829    1.289   .     A
C793   C796    1.460   .     S
C793   O823    1.291   .     A
C794   C796    1.415   .     A
C794   C805    1.492   .     S
C794   C899    1.397   1_455 S
C795   C811    1.417   .     A
C795   C812    1.413   .     A
C795   C804    1.462   .     S
C796   C810    1.416   .     A
C797   H813    1.080   .     S
C797   N822    1.366   .     A
C797   C1064   1.414   1_545 S
C798   H814    1.081   .     S
C798   N821    1.366   .     A
C798   C931    1.415   .     S
C799   N822    1.366   .     A
C799   H815    1.081   .     S
C799   C1062   1.415   1_545 S
C800   N821    1.366   .     A
C800   H816    1.081   .     S
C800   C929    1.414   .     S
C801   H817    1.086   .     S
C801   O834    1.221   .     D
C801   C810    1.489   .     S
C802   C811    1.487   .     S
C802   H818    1.085   .     S
C802   O824    1.221   .     D
C803   H819    1.083   .     S
C803   C812    1.488   .     S
C803   O825    1.221   .     D
C804   O827    1.293   .     A
C804   O828    1.287   .     A
C805   H820    1.082   .     S
C805   O826    1.221   .     D
C806   O830    1.275   .     A
C806   O833    1.275   .     A
C806   C808    1.367   .     S
C807   O831    1.275   .     A
C807   O832    1.275   .     A
C807   C809    1.366   .     S
C809   C16     1.166   1_556 S
C810   C900    1.397   1_455 S
C811   C838    1.397   .     S
C812   C854    1.397   .     S
N821   Zn835   2.007   .     S
N822   Zn836   2.007   .     S
O823   Zn835   1.967   .     S
O827   Zn836   1.967   .     S
O828   Zn835   1.972   .     S
O829   Zn836   1.972   .     S
O830   Zn835   1.952   .     S
O831   Zn836   1.952   .     S
O832   Zn835   1.952   .     S
O833   Zn836   1.952   .     S
C837   O873    1.289   .     A
C837   C840    1.460   .     S
C837   O867    1.291   .     A
C838   C840    1.415   .     A
C838   C849    1.492   .     S
C839   C855    1.417   .     A
C839   C856    1.413   .     A
C839   C848    1.462   .     S
C840   C854    1.416   .     A
C841   H857    1.080   .     S
C841   N866    1.366   .     A
C841   C1108   1.414   1_545 S
C842   H858    1.081   .     S
C842   N865    1.366   .     A
C842   C975    1.415   .     S
C843   N866    1.366   .     A
C843   H859    1.081   .     S
C843   C1106   1.415   1_545 S
C844   N865    1.366   .     A
C844   H860    1.081   .     S
C844   C973    1.414   .     S
C845   H861    1.086   .     S
C845   O878    1.221   .     D
C845   C854    1.489   .     S
C846   C855    1.487   .     S
C846   H862    1.085   .     S
C846   O868    1.221   .     D
C847   H863    1.083   .     S
C847   C856    1.488   .     S
C847   O869    1.221   .     D
C848   O871    1.293   .     A
C848   O872    1.287   .     A
C849   H864    1.082   .     S
C849   O870    1.221   .     D
C850   O874    1.275   .     A
C850   O877    1.275   .     A
C850   C852    1.367   .     S
C851   O875    1.275   .     A
C851   O876    1.275   .     A
C851   C853    1.366   .     S
C853   C60     1.166   1_556 S
C855   C882    1.397   .     S
C856   C898    1.397   .     S
N865   Zn879   2.007   .     S
N866   Zn880   2.007   .     S
O867   Zn879   1.967   .     S
O871   Zn880   1.967   .     S
O872   Zn879   1.972   .     S
O873   Zn880   1.972   .     S
O874   Zn879   1.952   .     S
O875   Zn880   1.952   .     S
O876   Zn879   1.952   .     S
O877   Zn880   1.952   .     S
C881   O917    1.289   .     A
C881   C884    1.460   .     S
C881   O911    1.291   .     A
C882   C884    1.415   .     A
C882   C893    1.492   .     S
C883   C899    1.417   .     A
C883   C900    1.413   .     A
C883   C892    1.462   .     S
C884   C898    1.416   .     A
C885   H901    1.080   .     S
C885   N910    1.366   .     A
C885   C1152   1.414   1_545 S
C886   H902    1.081   .     S
C886   N909    1.366   .     A
C886   C1019   1.415   .     S
C887   N910    1.366   .     A
C887   H903    1.081   .     S
C887   C1150   1.415   1_545 S
C888   N909    1.366   .     A
C888   H904    1.081   .     S
C888   C1017   1.414   .     S
C889   H905    1.086   .     S
C889   O922    1.221   .     D
C889   C898    1.489   .     S
C890   C899    1.487   .     S
C890   H906    1.085   .     S
C890   O912    1.221   .     D
C891   H907    1.083   .     S
C891   C900    1.488   .     S
C891   O913    1.221   .     D
C892   O915    1.293   .     A
C892   O916    1.287   .     A
C893   H908    1.082   .     S
C893   O914    1.221   .     D
C894   O918    1.275   .     A
C894   O921    1.275   .     A
C894   C896    1.367   .     S
C895   O919    1.275   .     A
C895   O920    1.275   .     A
C895   C897    1.366   .     S
C897   C104    1.166   1_556 S
C899   C794    1.397   1_655 S
C900   C810    1.397   1_655 S
N909   Zn923   2.007   .     S
N910   Zn924   2.007   .     S
O911   Zn923   1.967   .     S
O915   Zn924   1.967   .     S
O916   Zn923   1.972   .     S
O917   Zn924   1.972   .     S
O918   Zn923   1.952   .     S
O919   Zn924   1.952   .     S
O920   Zn923   1.952   .     S
O921   Zn924   1.952   .     S
C925   O961    1.289   .     A
C925   C928    1.460   .     S
C925   O955    1.291   .     A
C926   C928    1.415   .     A
C926   C937    1.492   .     S
C926   C1031   1.397   1_455 S
C927   C943    1.417   .     A
C927   C944    1.413   .     A
C927   C936    1.462   .     S
C928   C942    1.416   .     A
C929   H945    1.080   .     S
C929   N954    1.366   .     A
C930   H946    1.081   .     S
C930   N953    1.366   .     A
C930   C1063   1.415   .     S
C931   N954    1.366   .     A
C931   H947    1.081   .     S
C932   N953    1.366   .     A
C932   H948    1.081   .     S
C932   C1061   1.414   .     S
C933   H949    1.086   .     S
C933   O966    1.221   .     D
C933   C942    1.489   .     S
C934   C943    1.487   .     S
C934   H950    1.085   .     S
C934   O956    1.221   .     D
C935   H951    1.083   .     S
C935   C944    1.488   .     S
C935   O957    1.221   .     D
C936   O959    1.293   .     A
C936   O960    1.287   .     A
C937   H952    1.082   .     S
C937   O958    1.221   .     D
C938   O962    1.275   .     A
C938   O965    1.275   .     A
C938   C940    1.367   .     S
C939   O963    1.275   .     A
C939   O964    1.275   .     A
C939   C941    1.366   .     S
C941   C148    1.166   1_556 S
C942   C1032   1.397   1_455 S
C943   C970    1.397   .     S
C944   C986    1.397   .     S
N953   Zn967   2.007   .     S
N954   Zn968   2.007   .     S
O955   Zn967   1.967   .     S
O959   Zn968   1.967   .     S
O960   Zn967   1.972   .     S
O961   Zn968   1.972   .     S
O962   Zn967   1.952   .     S
O963   Zn968   1.952   .     S
O964   Zn967   1.952   .     S
O965   Zn968   1.952   .     S
C969   O1005   1.289   .     A
C969   C972    1.460   .     S
C969   O999    1.291   .     A
C970   C972    1.415   .     A
C970   C981    1.492   .     S
C971   C987    1.417   .     A
C971   C988    1.413   .     A
C971   C980    1.462   .     S
C972   C986    1.416   .     A
C973   H989    1.080   .     S
C973   N998    1.366   .     A
C974   H990    1.081   .     S
C974   N997    1.366   .     A
C974   C1107   1.415   .     S
C975   N998    1.366   .     A
C975   H991    1.081   .     S
C976   N997    1.366   .     A
C976   H992    1.081   .     S
C976   C1105   1.414   .     S
C977   H993    1.086   .     S
C977   O1010   1.221   .     D
C977   C986    1.489   .     S
C978   C987    1.487   .     S
C978   H994    1.085   .     S
C978   O1000   1.221   .     D
C979   H995    1.083   .     S
C979   C988    1.488   .     S
C979   O1001   1.221   .     D
C980   O1003   1.293   .     A
C980   O1004   1.287   .     A
C981   H996    1.082   .     S
C981   O1002   1.221   .     D
C982   O1006   1.275   .     A
C982   O1009   1.275   .     A
C982   C984    1.367   .     S
C983   O1007   1.275   .     A
C983   O1008   1.275   .     A
C983   C985    1.366   .     S
C985   C192    1.166   1_556 S
C987   C1014   1.397   .     S
C988   C1030   1.397   .     S
N997   Zn1011  2.007   .     S
N998   Zn1012  2.007   .     S
O999   Zn1011  1.967   .     S
O1003  Zn1012  1.967   .     S
O1004  Zn1011  1.972   .     S
O1005  Zn1012  1.972   .     S
O1006  Zn1011  1.952   .     S
O1007  Zn1012  1.952   .     S
O1008  Zn1011  1.952   .     S
O1009  Zn1012  1.952   .     S
C1013  O1049   1.289   .     A
C1013  C1016   1.460   .     S
C1013  O1043   1.291   .     A
C1014  C1016   1.415   .     A
C1014  C1025   1.492   .     S
C1015  C1031   1.417   .     A
C1015  C1032   1.413   .     A
C1015  C1024   1.462   .     S
C1016  C1030   1.416   .     A
C1017  H1033   1.080   .     S
C1017  N1042   1.366   .     A
C1018  H1034   1.081   .     S
C1018  N1041   1.366   .     A
C1018  C1151   1.415   .     S
C1019  N1042   1.366   .     A
C1019  H1035   1.081   .     S
C1020  N1041   1.366   .     A
C1020  H1036   1.081   .     S
C1020  C1149   1.414   .     S
C1021  H1037   1.086   .     S
C1021  O1054   1.221   .     D
C1021  C1030   1.489   .     S
C1022  C1031   1.487   .     S
C1022  H1038   1.085   .     S
C1022  O1044   1.221   .     D
C1023  H1039   1.083   .     S
C1023  C1032   1.488   .     S
C1023  O1045   1.221   .     D
C1024  O1047   1.293   .     A
C1024  O1048   1.287   .     A
C1025  H1040   1.082   .     S
C1025  O1046   1.221   .     D
C1026  O1050   1.275   .     A
C1026  O1053   1.275   .     A
C1026  C1028   1.367   .     S
C1027  O1051   1.275   .     A
C1027  O1052   1.275   .     A
C1027  C1029   1.366   .     S
C1029  C236    1.166   1_556 S
C1031  C926    1.397   1_655 S
C1032  C942    1.397   1_655 S
N1041  Zn1055  2.007   .     S
N1042  Zn1056  2.007   .     S
O1043  Zn1055  1.967   .     S
O1047  Zn1056  1.967   .     S
O1048  Zn1055  1.972   .     S
O1049  Zn1056  1.972   .     S
O1050  Zn1055  1.952   .     S
O1051  Zn1056  1.952   .     S
O1052  Zn1055  1.952   .     S
O1053  Zn1056  1.952   .     S
C1057  O1093   1.289   .     A
C1057  C1060   1.460   .     S
C1057  O1087   1.291   .     A
C1058  C1060   1.415   .     A
C1058  C1069   1.492   .     S
C1058  C1163   1.397   1_455 S
C1059  C1075   1.417   .     A
C1059  C1076   1.413   .     A
C1059  C1068   1.462   .     S
C1060  C1074   1.416   .     A
C1061  H1077   1.080   .     S
C1061  N1086   1.366   .     A
C1062  H1078   1.081   .     S
C1062  N1085   1.366   .     A
C1062  C799    1.415   1_565 S
C1063  N1086   1.366   .     A
C1063  H1079   1.081   .     S
C1064  N1085   1.366   .     A
C1064  H1080   1.081   .     S
C1064  C797    1.414   1_565 S
C1065  H1081   1.086   .     S
C1065  O1098   1.221   .     D
C1065  C1074   1.489   .     S
C1066  C1075   1.487   .     S
C1066  H1082   1.085   .     S
C1066  O1088   1.221   .     D
C1067  H1083   1.083   .     S
C1067  C1076   1.488   .     S
C1067  O1089   1.221   .     D
C1068  O1091   1.293   .     A
C1068  O1092   1.287   .     A
C1069  H1084   1.082   .     S
C1069  O1090   1.221   .     D
C1070  O1094   1.275   .     A
C1070  O1097   1.275   .     A
C1070  C1072   1.367   .     S
C1071  O1095   1.275   .     A
C1071  O1096   1.275   .     A
C1071  C1073   1.366   .     S
C1073  C280    1.166   1_556 S
C1074  C1164   1.397   1_455 S
C1075  C1102   1.397   .     S
C1076  C1118   1.397   .     S
N1085  Zn1099  2.007   .     S
N1086  Zn1100  2.007   .     S
O1087  Zn1099  1.967   .     S
O1091  Zn1100  1.967   .     S
O1092  Zn1099  1.972   .     S
O1093  Zn1100  1.972   .     S
O1094  Zn1099  1.952   .     S
O1095  Zn1100  1.952   .     S
O1096  Zn1099  1.952   .     S
O1097  Zn1100  1.952   .     S
C1101  O1137   1.289   .     A
C1101  C1104   1.460   .     S
C1101  O1131   1.291   .     A
C1102  C1104   1.415   .     A
C1102  C1113   1.492   .     S
C1103  C1119   1.417   .     A
C1103  C1120   1.413   .     A
C1103  C1112   1.462   .     S
C1104  C1118   1.416   .     A
C1105  H1121   1.080   .     S
C1105  N1130   1.366   .     A
C1106  H1122   1.081   .     S
C1106  N1129   1.366   .     A
C1106  C843    1.415   1_565 S
C1107  N1130   1.366   .     A
C1107  H1123   1.081   .     S
C1108  N1129   1.366   .     A
C1108  H1124   1.081   .     S
C1108  C841    1.414   1_565 S
C1109  H1125   1.086   .     S
C1109  O1142   1.221   .     D
C1109  C1118   1.489   .     S
C1110  C1119   1.487   .     S
C1110  H1126   1.085   .     S
C1110  O1132   1.221   .     D
C1111  H1127   1.083   .     S
C1111  C1120   1.488   .     S
C1111  O1133   1.221   .     D
C1112  O1135   1.293   .     A
C1112  O1136   1.287   .     A
C1113  H1128   1.082   .     S
C1113  O1134   1.221   .     D
C1114  O1138   1.275   .     A
C1114  O1141   1.275   .     A
C1114  C1116   1.367   .     S
C1115  O1139   1.275   .     A
C1115  O1140   1.275   .     A
C1115  C1117   1.366   .     S
C1117  C324    1.166   1_556 S
C1119  C1146   1.397   .     S
C1120  C1162   1.397   .     S
N1129  Zn1143  2.007   .     S
N1130  Zn1144  2.007   .     S
O1131  Zn1143  1.967   .     S
O1135  Zn1144  1.967   .     S
O1136  Zn1143  1.972   .     S
O1137  Zn1144  1.972   .     S
O1138  Zn1143  1.952   .     S
O1139  Zn1144  1.952   .     S
O1140  Zn1143  1.952   .     S
O1141  Zn1144  1.952   .     S
C1145  O1181   1.289   .     A
C1145  C1148   1.460   .     S
C1145  O1175   1.291   .     A
C1146  C1148   1.415   .     A
C1146  C1157   1.492   .     S
C1147  C1163   1.417   .     A
C1147  C1164   1.413   .     A
C1147  C1156   1.462   .     S
C1148  C1162   1.416   .     A
C1149  H1165   1.080   .     S
C1149  N1174   1.366   .     A
C1150  H1166   1.081   .     S
C1150  N1173   1.366   .     A
C1150  C887    1.415   1_565 S
C1151  N1174   1.366   .     A
C1151  H1167   1.081   .     S
C1152  N1173   1.366   .     A
C1152  H1168   1.081   .     S
C1152  C885    1.414   1_565 S
C1153  H1169   1.086   .     S
C1153  O1186   1.221   .     D
C1153  C1162   1.489   .     S
C1154  C1163   1.487   .     S
C1154  H1170   1.085   .     S
C1154  O1176   1.221   .     D
C1155  H1171   1.083   .     S
C1155  C1164   1.488   .     S
C1155  O1177   1.221   .     D
C1156  O1179   1.293   .     A
C1156  O1180   1.287   .     A
C1157  H1172   1.082   .     S
C1157  O1178   1.221   .     D
C1158  O1182   1.275   .     A
C1158  O1185   1.275   .     A
C1158  C1160   1.367   .     S
C1159  O1183   1.275   .     A
C1159  O1184   1.275   .     A
C1159  C1161   1.366   .     S
C1161  C368    1.166   1_556 S
C1163  C1058   1.397   1_655 S
C1164  C1074   1.397   1_655 S
N1173  Zn1187  2.007   .     S
N1174  Zn1188  2.007   .     S
O1175  Zn1187  1.967   .     S
O1179  Zn1188  1.967   .     S
O1180  Zn1187  1.972   .     S
O1181  Zn1188  1.972   .     S
O1182  Zn1187  1.952   .     S
O1183  Zn1188  1.952   .     S
O1184  Zn1187  1.952   .     S
O1185  Zn1188  1.952   .     S
