data_str_m3_o2_o10_pcu_sym.149
_audit_creation_date              2020-01-03
_audit_creation_method            'Materials Studio'
_symmetry_space_group_name_H-M    'P1'
_symmetry_Int_Tables_number       1
_symmetry_cell_setting            triclinic
loop_
_symmetry_equiv_pos_as_xyz
  x,y,z
_cell_length_a                    25.7362
_cell_length_b                    29.9627
_cell_length_c                    28.3202
_cell_angle_alpha                 89.8040
_cell_angle_beta                  98.7804
_cell_angle_gamma                 90.3158
loop_
_atom_site_label
_atom_site_type_symbol
_atom_site_fract_x
_atom_site_fract_y
_atom_site_fract_z
_atom_site_U_iso_or_equiv
_atom_site_adp_type
_atom_site_occupancy
C1     C     0.16678   0.16412   0.25008   0.00000  Uiso   1.00
C2     C     0.16544   0.33624   0.24981   0.00000  Uiso   1.00
C3     C     0.11931   0.24334   0.04593   0.00000  Uiso   1.00
C4     C     0.19140   0.28518   0.45064   0.00000  Uiso   1.00
C5     C     0.12088   0.24253   0.09598   0.00000  Uiso   1.00
C6     C     0.19180   0.28345   0.40081   0.00000  Uiso   1.00
C7     C     0.21207   0.25779   0.10817   0.00000  Uiso   1.00
C8     C     0.14156   0.21691   0.39461   0.00000  Uiso   1.00
C9     C     0.21275   0.25778   0.05865   0.00000  Uiso   1.00
C10    C     0.14149   0.21640   0.44421   0.00000  Uiso   1.00
C11    C     0.16620   0.25045   0.02648   0.00000  Uiso   1.00
C12    C     0.16670   0.25061   0.47324   0.00000  Uiso   1.00
C13    C     0.06699   0.25004   0.23751   0.00000  Uiso   1.00
C14    C     0.26636   0.25009   0.26251   0.00000  Uiso   1.00
C15    C     0.01197   0.25011   0.23081   0.00000  Uiso   1.00
C16    C     0.32143   0.25028   0.26928   0.00000  Uiso   1.00
C17    C     0.12018   0.04904   0.26413   0.00000  Uiso   1.00
C18    C     0.16987   0.45335   0.20719   0.00000  Uiso   1.00
C19    C     0.12355   0.09498   0.26625   0.00000  Uiso   1.00
C20    C     0.17223   0.40741   0.20855   0.00000  Uiso   1.00
C21    C     0.16547   0.11661   0.24979   0.00000  Uiso   1.00
C22    C     0.16139   0.38434   0.24906   0.00000  Uiso   1.00
C23    C     0.20441   0.09305   0.23101   0.00000  Uiso   1.00
C24    C     0.14578   0.40761   0.28779   0.00000  Uiso   1.00
C25    C     0.20197   0.04672   0.23080   0.00000  Uiso   1.00
C26    C     0.14534   0.45386   0.28673   0.00000  Uiso   1.00
C27    C     0.15955   0.02486   0.24672   0.00000  Uiso   1.00
C28    C     0.15755   0.47663   0.24663   0.00000  Uiso   1.00
H29    H     0.32464   0.24995   0.19434   0.00000  Uiso   1.00
H30    H     0.00882   0.25053   0.30578   0.00000  Uiso   1.00
H31    H     0.08698   0.03240   0.27603   0.00000  Uiso   1.00
H32    H     0.17844   0.47077   0.17566   0.00000  Uiso   1.00
H33    H     0.09311   0.11374   0.27980   0.00000  Uiso   1.00
H34    H     0.18326   0.39004   0.17811   0.00000  Uiso   1.00
H35    H     0.23355   0.02789   0.21924   0.00000  Uiso   1.00
H36    H     0.13622   0.47184   0.31756   0.00000  Uiso   1.00
H37    H     0.08504   0.23627   0.11049   0.00000  Uiso   1.00
H38    H     0.21202   0.30916   0.38366   0.00000  Uiso   1.00
H39    H     0.24823   0.26396   0.13207   0.00000  Uiso   1.00
H40    H     0.12175   0.19056   0.37274   0.00000  Uiso   1.00
H41    H     0.24975   0.26311   0.04566   0.00000  Uiso   1.00
H42    H     0.12215   0.18912   0.45983   0.00000  Uiso   1.00
N43    N     0.16667   0.24999   0.12624   0.00000  Uiso   1.00
N44    N     0.16667   0.25001   0.37377   0.00000  Uiso   1.00
O45    O     0.16667   0.18453   0.28974   0.00000  Uiso   1.00
O46    O     0.16666   0.31546   0.21026   0.00000  Uiso   1.00
O47    O     0.16667   0.18453   0.21026   0.00000  Uiso   1.00
O48    O     0.16666   0.31547   0.28974   0.00000  Uiso   1.00
O49    O     0.09058   0.25000   0.28045   0.00000  Uiso   1.00
O50    O     0.24275   0.25000   0.21956   0.00000  Uiso   1.00
O51    O     0.09058   0.24999   0.20097   0.00000  Uiso   1.00
O52    O     0.24275   0.25000   0.29904   0.00000  Uiso   1.00
Zn53   Zn    0.16667   0.25000   0.30307   0.00000  Uiso   1.00
Zn54   Zn    0.16667   0.24999   0.19693   0.00000  Uiso   1.00
O55    O     0.24725   0.11550   0.21798   0.00000  Uiso   1.00
C56    C     0.24644   0.11157   0.16820   0.00000  Uiso   1.00
H57    H     0.20684   0.11935   0.14793   0.00000  Uiso   1.00
H58    H     0.25807   0.07735   0.15902   0.00000  Uiso   1.00
C59    C     0.28559   0.14462   0.15257   0.00000  Uiso   1.00
H60    H     0.32574   0.13773   0.17169   0.00000  Uiso   1.00
H61    H     0.28572   0.14172   0.11351   0.00000  Uiso   1.00
H62    H     0.27441   0.17917   0.16069   0.00000  Uiso   1.00
O63    O     0.13355   0.38566   0.32775   0.00000  Uiso   1.00
C64    C     0.07867   0.37828   0.32151   0.00000  Uiso   1.00
H65    H     0.06473   0.36025   0.28749   0.00000  Uiso   1.00
H66    H     0.05742   0.41056   0.32157   0.00000  Uiso   1.00
C67    C     0.06511   0.34968   0.36249   0.00000  Uiso   1.00
H68    H     0.02194   0.34410   0.35817   0.00000  Uiso   1.00
H69    H     0.08482   0.31681   0.36266   0.00000  Uiso   1.00
H70    H     0.07805   0.36664   0.39712   0.00000  Uiso   1.00
O71    O     0.07216   0.23567   0.01651   0.00000  Uiso   1.00
C72    C     0.04758   0.27706   0.00456   0.00000  Uiso   1.00
H73    H     0.07497   0.30171   0.49179   0.00000  Uiso   1.00
H74    H     0.03217   0.29102   0.03605   0.00000  Uiso   1.00
C75    C     0.00187   0.27012   0.46436   0.00000  Uiso   1.00
H76    H     0.30592   0.24681   0.47602   0.00000  Uiso   1.00
H77    H     0.31593   0.30257   0.45431   0.00000  Uiso   1.00
H78    H     0.01638   0.25608   0.43256   0.00000  Uiso   1.00
O79    O     0.21689   0.31954   0.47741   0.00000  Uiso   1.00
C80    C     0.18681   0.35878   0.46889   0.00000  Uiso   1.00
H81    H     0.14566   0.35320   0.47547   0.00000  Uiso   1.00
H82    H     0.18639   0.37083   0.43160   0.00000  Uiso   1.00
C83    C     0.21122   0.39500   0.00281   0.00000  Uiso   1.00
H84    H     0.25218   0.40186   0.49683   0.00000  Uiso   1.00
H85    H     0.18796   0.42613   0.49647   0.00000  Uiso   1.00
H86    H     0.21161   0.38413   0.04041   0.00000  Uiso   1.00
C87    C     0.50012   0.16412   0.25008   0.00000  Uiso   1.00
C88    C     0.49877   0.33624   0.24981   0.00000  Uiso   1.00
C89    C     0.45265   0.24334   0.04593   0.00000  Uiso   1.00
C90    C     0.52473   0.28518   0.45064   0.00000  Uiso   1.00
C91    C     0.45421   0.24253   0.09598   0.00000  Uiso   1.00
C92    C     0.52514   0.28345   0.40081   0.00000  Uiso   1.00
C93    C     0.54540   0.25779   0.10817   0.00000  Uiso   1.00
C94    C     0.47490   0.21691   0.39461   0.00000  Uiso   1.00
C95    C     0.54609   0.25778   0.05865   0.00000  Uiso   1.00
C96    C     0.47482   0.21640   0.44421   0.00000  Uiso   1.00
C97    C     0.49953   0.25045   0.02648   0.00000  Uiso   1.00
C98    C     0.50003   0.25061   0.47324   0.00000  Uiso   1.00
C99    C     0.40032   0.25004   0.23751   0.00000  Uiso   1.00
C100   C     0.59970   0.25009   0.26251   0.00000  Uiso   1.00
C101   C     0.34530   0.25011   0.23081   0.00000  Uiso   1.00
C102   C     0.65476   0.25028   0.26928   0.00000  Uiso   1.00
C103   C     0.45351   0.04904   0.26413   0.00000  Uiso   1.00
C104   C     0.50320   0.45335   0.20719   0.00000  Uiso   1.00
C105   C     0.45689   0.09498   0.26625   0.00000  Uiso   1.00
C106   C     0.50556   0.40741   0.20855   0.00000  Uiso   1.00
C107   C     0.49880   0.11661   0.24979   0.00000  Uiso   1.00
C108   C     0.49473   0.38434   0.24906   0.00000  Uiso   1.00
C109   C     0.53774   0.09305   0.23101   0.00000  Uiso   1.00
C110   C     0.47912   0.40761   0.28779   0.00000  Uiso   1.00
C111   C     0.53530   0.04672   0.23080   0.00000  Uiso   1.00
C112   C     0.47867   0.45386   0.28673   0.00000  Uiso   1.00
C113   C     0.49288   0.02486   0.24672   0.00000  Uiso   1.00
C114   C     0.49088   0.47663   0.24663   0.00000  Uiso   1.00
H115   H     0.65797   0.24995   0.19434   0.00000  Uiso   1.00
H116   H     0.34216   0.25053   0.30578   0.00000  Uiso   1.00
H117   H     0.42032   0.03240   0.27603   0.00000  Uiso   1.00
H118   H     0.51177   0.47077   0.17566   0.00000  Uiso   1.00
H119   H     0.42644   0.11374   0.27980   0.00000  Uiso   1.00
H120   H     0.51660   0.39004   0.17811   0.00000  Uiso   1.00
H121   H     0.56688   0.02789   0.21924   0.00000  Uiso   1.00
H122   H     0.46956   0.47184   0.31756   0.00000  Uiso   1.00
H123   H     0.41837   0.23627   0.11049   0.00000  Uiso   1.00
H124   H     0.54535   0.30916   0.38366   0.00000  Uiso   1.00
H125   H     0.58156   0.26396   0.13207   0.00000  Uiso   1.00
H126   H     0.45508   0.19056   0.37274   0.00000  Uiso   1.00
H127   H     0.58308   0.26311   0.04566   0.00000  Uiso   1.00
H128   H     0.45549   0.18912   0.45983   0.00000  Uiso   1.00
N129   N     0.50000   0.24999   0.12624   0.00000  Uiso   1.00
N130   N     0.50000   0.25001   0.37377   0.00000  Uiso   1.00
O131   O     0.50000   0.18453   0.28974   0.00000  Uiso   1.00
O132   O     0.50000   0.31546   0.21026   0.00000  Uiso   1.00
O133   O     0.50000   0.18453   0.21026   0.00000  Uiso   1.00
O134   O     0.50000   0.31547   0.28974   0.00000  Uiso   1.00
O135   O     0.42392   0.25000   0.28045   0.00000  Uiso   1.00
O136   O     0.57608   0.25000   0.21956   0.00000  Uiso   1.00
O137   O     0.42392   0.24999   0.20097   0.00000  Uiso   1.00
O138   O     0.57608   0.25000   0.29904   0.00000  Uiso   1.00
Zn139  Zn    0.50000   0.25000   0.30307   0.00000  Uiso   1.00
Zn140  Zn    0.50000   0.24999   0.19693   0.00000  Uiso   1.00
O141   O     0.58059   0.11550   0.21798   0.00000  Uiso   1.00
C142   C     0.57977   0.11157   0.16820   0.00000  Uiso   1.00
H143   H     0.54017   0.11935   0.14793   0.00000  Uiso   1.00
H144   H     0.59140   0.07735   0.15902   0.00000  Uiso   1.00
C145   C     0.61893   0.14462   0.15257   0.00000  Uiso   1.00
H146   H     0.65908   0.13773   0.17169   0.00000  Uiso   1.00
H147   H     0.61905   0.14172   0.11351   0.00000  Uiso   1.00
H148   H     0.60774   0.17917   0.16069   0.00000  Uiso   1.00
O149   O     0.46688   0.38566   0.32775   0.00000  Uiso   1.00
C150   C     0.41200   0.37828   0.32151   0.00000  Uiso   1.00
H151   H     0.39807   0.36025   0.28749   0.00000  Uiso   1.00
H152   H     0.39075   0.41056   0.32157   0.00000  Uiso   1.00
C153   C     0.39844   0.34968   0.36249   0.00000  Uiso   1.00
H154   H     0.35527   0.34410   0.35817   0.00000  Uiso   1.00
H155   H     0.41816   0.31681   0.36266   0.00000  Uiso   1.00
H156   H     0.41138   0.36664   0.39712   0.00000  Uiso   1.00
O157   O     0.40549   0.23567   0.01651   0.00000  Uiso   1.00
C158   C     0.38091   0.27706   0.00456   0.00000  Uiso   1.00
H159   H     0.40830   0.30171   0.49179   0.00000  Uiso   1.00
H160   H     0.36550   0.29102   0.03605   0.00000  Uiso   1.00
C161   C     0.33520   0.27012   0.46436   0.00000  Uiso   1.00
H162   H     0.63925   0.24681   0.47602   0.00000  Uiso   1.00
H163   H     0.64926   0.30257   0.45431   0.00000  Uiso   1.00
H164   H     0.34971   0.25608   0.43256   0.00000  Uiso   1.00
O165   O     0.55023   0.31954   0.47741   0.00000  Uiso   1.00
C166   C     0.52014   0.35878   0.46889   0.00000  Uiso   1.00
H167   H     0.47899   0.35320   0.47547   0.00000  Uiso   1.00
H168   H     0.51972   0.37083   0.43160   0.00000  Uiso   1.00
C169   C     0.54456   0.39500   0.00281   0.00000  Uiso   1.00
H170   H     0.58551   0.40186   0.49683   0.00000  Uiso   1.00
H171   H     0.52129   0.42613   0.49647   0.00000  Uiso   1.00
H172   H     0.54494   0.38413   0.04041   0.00000  Uiso   1.00
C173   C     0.83345   0.16412   0.25008   0.00000  Uiso   1.00
C174   C     0.83210   0.33624   0.24981   0.00000  Uiso   1.00
C175   C     0.78598   0.24334   0.04593   0.00000  Uiso   1.00
C176   C     0.85806   0.28518   0.45064   0.00000  Uiso   1.00
C177   C     0.78755   0.24253   0.09598   0.00000  Uiso   1.00
C178   C     0.85847   0.28345   0.40081   0.00000  Uiso   1.00
C179   C     0.87874   0.25779   0.10817   0.00000  Uiso   1.00
C180   C     0.80823   0.21691   0.39461   0.00000  Uiso   1.00
C181   C     0.87942   0.25778   0.05865   0.00000  Uiso   1.00
C182   C     0.80816   0.21640   0.44421   0.00000  Uiso   1.00
C183   C     0.83286   0.25045   0.02648   0.00000  Uiso   1.00
C184   C     0.83336   0.25061   0.47324   0.00000  Uiso   1.00
C185   C     0.73366   0.25004   0.23751   0.00000  Uiso   1.00
C186   C     0.93303   0.25009   0.26251   0.00000  Uiso   1.00
C187   C     0.67863   0.25011   0.23081   0.00000  Uiso   1.00
C188   C     0.98809   0.25028   0.26928   0.00000  Uiso   1.00
C189   C     0.78684   0.04904   0.26413   0.00000  Uiso   1.00
C190   C     0.83654   0.45335   0.20719   0.00000  Uiso   1.00
C191   C     0.79022   0.09498   0.26625   0.00000  Uiso   1.00
C192   C     0.83890   0.40741   0.20855   0.00000  Uiso   1.00
C193   C     0.83213   0.11661   0.24979   0.00000  Uiso   1.00
C194   C     0.82806   0.38434   0.24906   0.00000  Uiso   1.00
C195   C     0.87107   0.09305   0.23101   0.00000  Uiso   1.00
C196   C     0.81245   0.40761   0.28779   0.00000  Uiso   1.00
C197   C     0.86864   0.04672   0.23080   0.00000  Uiso   1.00
C198   C     0.81200   0.45386   0.28673   0.00000  Uiso   1.00
C199   C     0.82622   0.02486   0.24672   0.00000  Uiso   1.00
C200   C     0.82422   0.47663   0.24663   0.00000  Uiso   1.00
H201   H     0.99131   0.24995   0.19434   0.00000  Uiso   1.00
H202   H     0.67549   0.25053   0.30578   0.00000  Uiso   1.00
H203   H     0.75365   0.03240   0.27603   0.00000  Uiso   1.00
H204   H     0.84511   0.47077   0.17566   0.00000  Uiso   1.00
H205   H     0.75977   0.11374   0.27980   0.00000  Uiso   1.00
H206   H     0.84993   0.39004   0.17811   0.00000  Uiso   1.00
H207   H     0.90021   0.02789   0.21924   0.00000  Uiso   1.00
H208   H     0.80289   0.47184   0.31756   0.00000  Uiso   1.00
H209   H     0.75170   0.23627   0.11049   0.00000  Uiso   1.00
H210   H     0.87869   0.30916   0.38366   0.00000  Uiso   1.00
H211   H     0.91490   0.26396   0.13207   0.00000  Uiso   1.00
H212   H     0.78841   0.19056   0.37274   0.00000  Uiso   1.00
H213   H     0.91641   0.26311   0.04566   0.00000  Uiso   1.00
H214   H     0.78882   0.18912   0.45983   0.00000  Uiso   1.00
N215   N     0.83333   0.24999   0.12624   0.00000  Uiso   1.00
N216   N     0.83333   0.25001   0.37377   0.00000  Uiso   1.00
O217   O     0.83334   0.18453   0.28974   0.00000  Uiso   1.00
O218   O     0.83333   0.31546   0.21026   0.00000  Uiso   1.00
O219   O     0.83334   0.18453   0.21026   0.00000  Uiso   1.00
O220   O     0.83333   0.31547   0.28974   0.00000  Uiso   1.00
O221   O     0.75725   0.25000   0.28045   0.00000  Uiso   1.00
O222   O     0.90942   0.25000   0.21956   0.00000  Uiso   1.00
O223   O     0.75725   0.24999   0.20097   0.00000  Uiso   1.00
O224   O     0.90942   0.25000   0.29904   0.00000  Uiso   1.00
Zn225  Zn    0.83333   0.25000   0.30307   0.00000  Uiso   1.00
Zn226  Zn    0.83333   0.24999   0.19693   0.00000  Uiso   1.00
O227   O     0.91392   0.11550   0.21798   0.00000  Uiso   1.00
C228   C     0.91311   0.11157   0.16820   0.00000  Uiso   1.00
H229   H     0.87351   0.11935   0.14793   0.00000  Uiso   1.00
H230   H     0.92473   0.07735   0.15902   0.00000  Uiso   1.00
C231   C     0.95226   0.14462   0.15257   0.00000  Uiso   1.00
H232   H     0.99241   0.13773   0.17169   0.00000  Uiso   1.00
H233   H     0.95239   0.14172   0.11351   0.00000  Uiso   1.00
H234   H     0.94107   0.17917   0.16069   0.00000  Uiso   1.00
O235   O     0.80021   0.38566   0.32775   0.00000  Uiso   1.00
C236   C     0.74533   0.37828   0.32151   0.00000  Uiso   1.00
H237   H     0.73140   0.36025   0.28749   0.00000  Uiso   1.00
H238   H     0.72408   0.41056   0.32157   0.00000  Uiso   1.00
C239   C     0.73177   0.34968   0.36249   0.00000  Uiso   1.00
H240   H     0.68861   0.34410   0.35817   0.00000  Uiso   1.00
H241   H     0.75149   0.31681   0.36266   0.00000  Uiso   1.00
H242   H     0.74472   0.36664   0.39712   0.00000  Uiso   1.00
O243   O     0.73883   0.23567   0.01651   0.00000  Uiso   1.00
C244   C     0.71425   0.27706   0.00456   0.00000  Uiso   1.00
H245   H     0.74164   0.30171   0.49179   0.00000  Uiso   1.00
H246   H     0.69884   0.29102   0.03605   0.00000  Uiso   1.00
C247   C     0.66853   0.27012   0.46436   0.00000  Uiso   1.00
H248   H     0.97259   0.24681   0.47602   0.00000  Uiso   1.00
H249   H     0.98260   0.30257   0.45431   0.00000  Uiso   1.00
H250   H     0.68304   0.25608   0.43256   0.00000  Uiso   1.00
O251   O     0.88356   0.31954   0.47741   0.00000  Uiso   1.00
C252   C     0.85347   0.35878   0.46889   0.00000  Uiso   1.00
H253   H     0.81233   0.35320   0.47547   0.00000  Uiso   1.00
H254   H     0.85306   0.37083   0.43160   0.00000  Uiso   1.00
C255   C     0.87789   0.39500   0.00281   0.00000  Uiso   1.00
H256   H     0.91885   0.40186   0.49683   0.00000  Uiso   1.00
H257   H     0.85463   0.42613   0.49647   0.00000  Uiso   1.00
H258   H     0.87827   0.38413   0.04041   0.00000  Uiso   1.00
C259   C     0.16678   0.66412   0.25008   0.00000  Uiso   1.00
C260   C     0.16544   0.83624   0.24981   0.00000  Uiso   1.00
C261   C     0.11931   0.74334   0.04593   0.00000  Uiso   1.00
C262   C     0.19140   0.78518   0.45064   0.00000  Uiso   1.00
C263   C     0.12088   0.74253   0.09598   0.00000  Uiso   1.00
C264   C     0.19180   0.78345   0.40081   0.00000  Uiso   1.00
C265   C     0.21207   0.75779   0.10817   0.00000  Uiso   1.00
C266   C     0.14156   0.71691   0.39461   0.00000  Uiso   1.00
C267   C     0.21275   0.75778   0.05865   0.00000  Uiso   1.00
C268   C     0.14149   0.71640   0.44421   0.00000  Uiso   1.00
C269   C     0.16620   0.75045   0.02648   0.00000  Uiso   1.00
C270   C     0.16670   0.75061   0.47324   0.00000  Uiso   1.00
C271   C     0.06699   0.75004   0.23751   0.00000  Uiso   1.00
C272   C     0.26636   0.75009   0.26251   0.00000  Uiso   1.00
C273   C     0.01197   0.75011   0.23081   0.00000  Uiso   1.00
C274   C     0.32143   0.75028   0.26928   0.00000  Uiso   1.00
C275   C     0.12018   0.54904   0.26413   0.00000  Uiso   1.00
C276   C     0.16987   0.95335   0.20719   0.00000  Uiso   1.00
C277   C     0.12355   0.59498   0.26625   0.00000  Uiso   1.00
C278   C     0.17223   0.90741   0.20855   0.00000  Uiso   1.00
C279   C     0.16547   0.61661   0.24979   0.00000  Uiso   1.00
C280   C     0.16139   0.88434   0.24906   0.00000  Uiso   1.00
C281   C     0.20441   0.59305   0.23101   0.00000  Uiso   1.00
C282   C     0.14578   0.90761   0.28779   0.00000  Uiso   1.00
C283   C     0.20197   0.54672   0.23080   0.00000  Uiso   1.00
C284   C     0.14534   0.95386   0.28673   0.00000  Uiso   1.00
C285   C     0.15955   0.52486   0.24672   0.00000  Uiso   1.00
C286   C     0.15755   0.97663   0.24663   0.00000  Uiso   1.00
H287   H     0.32464   0.74995   0.19434   0.00000  Uiso   1.00
H288   H     0.00882   0.75053   0.30578   0.00000  Uiso   1.00
H289   H     0.08698   0.53240   0.27603   0.00000  Uiso   1.00
H290   H     0.17844   0.97077   0.17566   0.00000  Uiso   1.00
H291   H     0.09311   0.61374   0.27980   0.00000  Uiso   1.00
H292   H     0.18326   0.89004   0.17811   0.00000  Uiso   1.00
H293   H     0.23355   0.52789   0.21924   0.00000  Uiso   1.00
H294   H     0.13622   0.97184   0.31756   0.00000  Uiso   1.00
H295   H     0.08504   0.73627   0.11049   0.00000  Uiso   1.00
H296   H     0.21202   0.80916   0.38366   0.00000  Uiso   1.00
H297   H     0.24823   0.76396   0.13207   0.00000  Uiso   1.00
H298   H     0.12175   0.69056   0.37274   0.00000  Uiso   1.00
H299   H     0.24975   0.76311   0.04566   0.00000  Uiso   1.00
H300   H     0.12215   0.68912   0.45983   0.00000  Uiso   1.00
N301   N     0.16667   0.74999   0.12624   0.00000  Uiso   1.00
N302   N     0.16667   0.75001   0.37377   0.00000  Uiso   1.00
O303   O     0.16667   0.68453   0.28974   0.00000  Uiso   1.00
O304   O     0.16666   0.81546   0.21026   0.00000  Uiso   1.00
O305   O     0.16667   0.68453   0.21026   0.00000  Uiso   1.00
O306   O     0.16666   0.81547   0.28974   0.00000  Uiso   1.00
O307   O     0.09058   0.75000   0.28045   0.00000  Uiso   1.00
O308   O     0.24275   0.75000   0.21956   0.00000  Uiso   1.00
O309   O     0.09058   0.74999   0.20097   0.00000  Uiso   1.00
O310   O     0.24275   0.75000   0.29904   0.00000  Uiso   1.00
Zn311  Zn    0.16667   0.75000   0.30307   0.00000  Uiso   1.00
Zn312  Zn    0.16667   0.74999   0.19693   0.00000  Uiso   1.00
O313   O     0.24725   0.61550   0.21798   0.00000  Uiso   1.00
C314   C     0.24644   0.61157   0.16820   0.00000  Uiso   1.00
H315   H     0.20684   0.61935   0.14793   0.00000  Uiso   1.00
H316   H     0.25807   0.57735   0.15902   0.00000  Uiso   1.00
C317   C     0.28559   0.64462   0.15257   0.00000  Uiso   1.00
H318   H     0.32574   0.63773   0.17169   0.00000  Uiso   1.00
H319   H     0.28572   0.64172   0.11351   0.00000  Uiso   1.00
H320   H     0.27441   0.67917   0.16069   0.00000  Uiso   1.00
O321   O     0.13355   0.88566   0.32775   0.00000  Uiso   1.00
C322   C     0.07867   0.87828   0.32151   0.00000  Uiso   1.00
H323   H     0.06473   0.86025   0.28749   0.00000  Uiso   1.00
H324   H     0.05742   0.91056   0.32157   0.00000  Uiso   1.00
C325   C     0.06511   0.84968   0.36249   0.00000  Uiso   1.00
H326   H     0.02194   0.84410   0.35817   0.00000  Uiso   1.00
H327   H     0.08482   0.81681   0.36266   0.00000  Uiso   1.00
H328   H     0.07805   0.86664   0.39712   0.00000  Uiso   1.00
O329   O     0.07216   0.73567   0.01651   0.00000  Uiso   1.00
C330   C     0.04758   0.77706   0.00456   0.00000  Uiso   1.00
H331   H     0.07497   0.80171   0.49179   0.00000  Uiso   1.00
H332   H     0.03217   0.79102   0.03605   0.00000  Uiso   1.00
C333   C     0.00187   0.77012   0.46436   0.00000  Uiso   1.00
H334   H     0.30592   0.74681   0.47602   0.00000  Uiso   1.00
H335   H     0.31593   0.80257   0.45431   0.00000  Uiso   1.00
H336   H     0.01638   0.75608   0.43256   0.00000  Uiso   1.00
O337   O     0.21689   0.81954   0.47741   0.00000  Uiso   1.00
C338   C     0.18681   0.85878   0.46889   0.00000  Uiso   1.00
H339   H     0.14566   0.85320   0.47547   0.00000  Uiso   1.00
H340   H     0.18639   0.87083   0.43160   0.00000  Uiso   1.00
C341   C     0.21122   0.89500   0.00281   0.00000  Uiso   1.00
H342   H     0.25218   0.90186   0.49683   0.00000  Uiso   1.00
H343   H     0.18796   0.92613   0.49647   0.00000  Uiso   1.00
H344   H     0.21161   0.88413   0.04041   0.00000  Uiso   1.00
C345   C     0.50012   0.66412   0.25008   0.00000  Uiso   1.00
C346   C     0.49877   0.83624   0.24981   0.00000  Uiso   1.00
C347   C     0.45265   0.74334   0.04593   0.00000  Uiso   1.00
C348   C     0.52473   0.78518   0.45064   0.00000  Uiso   1.00
C349   C     0.45421   0.74253   0.09598   0.00000  Uiso   1.00
C350   C     0.52514   0.78345   0.40081   0.00000  Uiso   1.00
C351   C     0.54540   0.75779   0.10817   0.00000  Uiso   1.00
C352   C     0.47490   0.71691   0.39461   0.00000  Uiso   1.00
C353   C     0.54609   0.75778   0.05865   0.00000  Uiso   1.00
C354   C     0.47482   0.71640   0.44421   0.00000  Uiso   1.00
C355   C     0.49953   0.75045   0.02648   0.00000  Uiso   1.00
C356   C     0.50003   0.75061   0.47324   0.00000  Uiso   1.00
C357   C     0.40032   0.75004   0.23751   0.00000  Uiso   1.00
C358   C     0.59970   0.75009   0.26251   0.00000  Uiso   1.00
C359   C     0.34530   0.75011   0.23081   0.00000  Uiso   1.00
C360   C     0.65476   0.75028   0.26928   0.00000  Uiso   1.00
C361   C     0.45351   0.54904   0.26413   0.00000  Uiso   1.00
C362   C     0.50320   0.95335   0.20719   0.00000  Uiso   1.00
C363   C     0.45689   0.59498   0.26625   0.00000  Uiso   1.00
C364   C     0.50556   0.90741   0.20855   0.00000  Uiso   1.00
C365   C     0.49880   0.61661   0.24979   0.00000  Uiso   1.00
C366   C     0.49473   0.88434   0.24906   0.00000  Uiso   1.00
C367   C     0.53774   0.59305   0.23101   0.00000  Uiso   1.00
C368   C     0.47912   0.90761   0.28779   0.00000  Uiso   1.00
C369   C     0.53530   0.54672   0.23080   0.00000  Uiso   1.00
C370   C     0.47867   0.95386   0.28673   0.00000  Uiso   1.00
C371   C     0.49288   0.52486   0.24672   0.00000  Uiso   1.00
C372   C     0.49088   0.97663   0.24663   0.00000  Uiso   1.00
H373   H     0.65797   0.74995   0.19434   0.00000  Uiso   1.00
H374   H     0.34216   0.75053   0.30578   0.00000  Uiso   1.00
H375   H     0.42032   0.53240   0.27603   0.00000  Uiso   1.00
H376   H     0.51177   0.97077   0.17566   0.00000  Uiso   1.00
H377   H     0.42644   0.61374   0.27980   0.00000  Uiso   1.00
H378   H     0.51660   0.89004   0.17811   0.00000  Uiso   1.00
H379   H     0.56688   0.52789   0.21924   0.00000  Uiso   1.00
H380   H     0.46956   0.97184   0.31756   0.00000  Uiso   1.00
H381   H     0.41837   0.73627   0.11049   0.00000  Uiso   1.00
H382   H     0.54535   0.80916   0.38366   0.00000  Uiso   1.00
H383   H     0.58156   0.76396   0.13207   0.00000  Uiso   1.00
H384   H     0.45508   0.69056   0.37274   0.00000  Uiso   1.00
H385   H     0.58308   0.76311   0.04566   0.00000  Uiso   1.00
H386   H     0.45549   0.68912   0.45983   0.00000  Uiso   1.00
N387   N     0.50000   0.74999   0.12624   0.00000  Uiso   1.00
N388   N     0.50000   0.75001   0.37377   0.00000  Uiso   1.00
O389   O     0.50000   0.68453   0.28974   0.00000  Uiso   1.00
O390   O     0.50000   0.81546   0.21026   0.00000  Uiso   1.00
O391   O     0.50000   0.68453   0.21026   0.00000  Uiso   1.00
O392   O     0.50000   0.81547   0.28974   0.00000  Uiso   1.00
O393   O     0.42392   0.75000   0.28045   0.00000  Uiso   1.00
O394   O     0.57608   0.75000   0.21956   0.00000  Uiso   1.00
O395   O     0.42392   0.74999   0.20097   0.00000  Uiso   1.00
O396   O     0.57608   0.75000   0.29904   0.00000  Uiso   1.00
Zn397  Zn    0.50000   0.75000   0.30307   0.00000  Uiso   1.00
Zn398  Zn    0.50000   0.74999   0.19693   0.00000  Uiso   1.00
O399   O     0.58059   0.61550   0.21798   0.00000  Uiso   1.00
C400   C     0.57977   0.61157   0.16820   0.00000  Uiso   1.00
H401   H     0.54017   0.61935   0.14793   0.00000  Uiso   1.00
H402   H     0.59140   0.57735   0.15902   0.00000  Uiso   1.00
C403   C     0.61893   0.64462   0.15257   0.00000  Uiso   1.00
H404   H     0.65908   0.63773   0.17169   0.00000  Uiso   1.00
H405   H     0.61905   0.64172   0.11351   0.00000  Uiso   1.00
H406   H     0.60774   0.67917   0.16069   0.00000  Uiso   1.00
O407   O     0.46688   0.88566   0.32775   0.00000  Uiso   1.00
C408   C     0.41200   0.87828   0.32151   0.00000  Uiso   1.00
H409   H     0.39807   0.86025   0.28749   0.00000  Uiso   1.00
H410   H     0.39075   0.91056   0.32157   0.00000  Uiso   1.00
C411   C     0.39844   0.84968   0.36249   0.00000  Uiso   1.00
H412   H     0.35527   0.84410   0.35817   0.00000  Uiso   1.00
H413   H     0.41816   0.81681   0.36266   0.00000  Uiso   1.00
H414   H     0.41138   0.86664   0.39712   0.00000  Uiso   1.00
O415   O     0.40549   0.73567   0.01651   0.00000  Uiso   1.00
C416   C     0.38091   0.77706   0.00456   0.00000  Uiso   1.00
H417   H     0.40830   0.80171   0.49179   0.00000  Uiso   1.00
H418   H     0.36550   0.79102   0.03605   0.00000  Uiso   1.00
C419   C     0.33520   0.77012   0.46436   0.00000  Uiso   1.00
H420   H     0.63925   0.74681   0.47602   0.00000  Uiso   1.00
H421   H     0.64926   0.80257   0.45431   0.00000  Uiso   1.00
H422   H     0.34971   0.75608   0.43256   0.00000  Uiso   1.00
O423   O     0.55023   0.81954   0.47741   0.00000  Uiso   1.00
C424   C     0.52014   0.85878   0.46889   0.00000  Uiso   1.00
H425   H     0.47899   0.85320   0.47547   0.00000  Uiso   1.00
H426   H     0.51972   0.87083   0.43160   0.00000  Uiso   1.00
C427   C     0.54456   0.89500   0.00281   0.00000  Uiso   1.00
H428   H     0.58551   0.90186   0.49683   0.00000  Uiso   1.00
H429   H     0.52129   0.92613   0.49647   0.00000  Uiso   1.00
H430   H     0.54494   0.88413   0.04041   0.00000  Uiso   1.00
C431   C     0.83345   0.66412   0.25008   0.00000  Uiso   1.00
C432   C     0.83210   0.83624   0.24981   0.00000  Uiso   1.00
C433   C     0.78598   0.74334   0.04593   0.00000  Uiso   1.00
C434   C     0.85806   0.78518   0.45064   0.00000  Uiso   1.00
C435   C     0.78755   0.74253   0.09598   0.00000  Uiso   1.00
C436   C     0.85847   0.78345   0.40081   0.00000  Uiso   1.00
C437   C     0.87874   0.75779   0.10817   0.00000  Uiso   1.00
C438   C     0.80823   0.71691   0.39461   0.00000  Uiso   1.00
C439   C     0.87942   0.75778   0.05865   0.00000  Uiso   1.00
C440   C     0.80816   0.71640   0.44421   0.00000  Uiso   1.00
C441   C     0.83286   0.75045   0.02648   0.00000  Uiso   1.00
C442   C     0.83336   0.75061   0.47324   0.00000  Uiso   1.00
C443   C     0.73366   0.75004   0.23751   0.00000  Uiso   1.00
C444   C     0.93303   0.75009   0.26251   0.00000  Uiso   1.00
C445   C     0.67863   0.75011   0.23081   0.00000  Uiso   1.00
C446   C     0.98809   0.75028   0.26928   0.00000  Uiso   1.00
C447   C     0.78684   0.54904   0.26413   0.00000  Uiso   1.00
C448   C     0.83654   0.95335   0.20719   0.00000  Uiso   1.00
C449   C     0.79022   0.59498   0.26625   0.00000  Uiso   1.00
C450   C     0.83890   0.90741   0.20855   0.00000  Uiso   1.00
C451   C     0.83213   0.61661   0.24979   0.00000  Uiso   1.00
C452   C     0.82806   0.88434   0.24906   0.00000  Uiso   1.00
C453   C     0.87107   0.59305   0.23101   0.00000  Uiso   1.00
C454   C     0.81245   0.90761   0.28779   0.00000  Uiso   1.00
C455   C     0.86864   0.54672   0.23080   0.00000  Uiso   1.00
C456   C     0.81200   0.95386   0.28673   0.00000  Uiso   1.00
C457   C     0.82622   0.52486   0.24672   0.00000  Uiso   1.00
C458   C     0.82422   0.97663   0.24663   0.00000  Uiso   1.00
H459   H     0.99131   0.74995   0.19434   0.00000  Uiso   1.00
H460   H     0.67549   0.75053   0.30578   0.00000  Uiso   1.00
H461   H     0.75365   0.53240   0.27603   0.00000  Uiso   1.00
H462   H     0.84511   0.97077   0.17566   0.00000  Uiso   1.00
H463   H     0.75977   0.61374   0.27980   0.00000  Uiso   1.00
H464   H     0.84993   0.89004   0.17811   0.00000  Uiso   1.00
H465   H     0.90021   0.52789   0.21924   0.00000  Uiso   1.00
H466   H     0.80289   0.97184   0.31756   0.00000  Uiso   1.00
H467   H     0.75170   0.73627   0.11049   0.00000  Uiso   1.00
H468   H     0.87869   0.80916   0.38366   0.00000  Uiso   1.00
H469   H     0.91490   0.76396   0.13207   0.00000  Uiso   1.00
H470   H     0.78841   0.69056   0.37274   0.00000  Uiso   1.00
H471   H     0.91641   0.76311   0.04566   0.00000  Uiso   1.00
H472   H     0.78882   0.68912   0.45983   0.00000  Uiso   1.00
N473   N     0.83333   0.74999   0.12624   0.00000  Uiso   1.00
N474   N     0.83333   0.75001   0.37377   0.00000  Uiso   1.00
O475   O     0.83334   0.68453   0.28974   0.00000  Uiso   1.00
O476   O     0.83333   0.81546   0.21026   0.00000  Uiso   1.00
O477   O     0.83334   0.68453   0.21026   0.00000  Uiso   1.00
O478   O     0.83333   0.81547   0.28974   0.00000  Uiso   1.00
O479   O     0.75725   0.75000   0.28045   0.00000  Uiso   1.00
O480   O     0.90942   0.75000   0.21956   0.00000  Uiso   1.00
O481   O     0.75725   0.74999   0.20097   0.00000  Uiso   1.00
O482   O     0.90942   0.75000   0.29904   0.00000  Uiso   1.00
Zn483  Zn    0.83333   0.75000   0.30307   0.00000  Uiso   1.00
Zn484  Zn    0.83333   0.74999   0.19693   0.00000  Uiso   1.00
O485   O     0.91392   0.61550   0.21798   0.00000  Uiso   1.00
C486   C     0.91311   0.61157   0.16820   0.00000  Uiso   1.00
H487   H     0.87351   0.61935   0.14793   0.00000  Uiso   1.00
H488   H     0.92473   0.57735   0.15902   0.00000  Uiso   1.00
C489   C     0.95226   0.64462   0.15257   0.00000  Uiso   1.00
H490   H     0.99241   0.63773   0.17169   0.00000  Uiso   1.00
H491   H     0.95239   0.64172   0.11351   0.00000  Uiso   1.00
H492   H     0.94107   0.67917   0.16069   0.00000  Uiso   1.00
O493   O     0.80021   0.88566   0.32775   0.00000  Uiso   1.00
C494   C     0.74533   0.87828   0.32151   0.00000  Uiso   1.00
H495   H     0.73140   0.86025   0.28749   0.00000  Uiso   1.00
H496   H     0.72408   0.91056   0.32157   0.00000  Uiso   1.00
C497   C     0.73177   0.84968   0.36249   0.00000  Uiso   1.00
H498   H     0.68861   0.84410   0.35817   0.00000  Uiso   1.00
H499   H     0.75149   0.81681   0.36266   0.00000  Uiso   1.00
H500   H     0.74472   0.86664   0.39712   0.00000  Uiso   1.00
O501   O     0.73883   0.73567   0.01651   0.00000  Uiso   1.00
C502   C     0.71425   0.77706   0.00456   0.00000  Uiso   1.00
H503   H     0.74164   0.80171   0.49179   0.00000  Uiso   1.00
H504   H     0.69884   0.79102   0.03605   0.00000  Uiso   1.00
C505   C     0.66853   0.77012   0.46436   0.00000  Uiso   1.00
H506   H     0.97259   0.74681   0.47602   0.00000  Uiso   1.00
H507   H     0.98260   0.80257   0.45431   0.00000  Uiso   1.00
H508   H     0.68304   0.75608   0.43256   0.00000  Uiso   1.00
O509   O     0.88356   0.81954   0.47741   0.00000  Uiso   1.00
C510   C     0.85347   0.85878   0.46889   0.00000  Uiso   1.00
H511   H     0.81233   0.85320   0.47547   0.00000  Uiso   1.00
H512   H     0.85306   0.87083   0.43160   0.00000  Uiso   1.00
C513   C     0.87789   0.89500   0.00281   0.00000  Uiso   1.00
H514   H     0.91885   0.90186   0.49683   0.00000  Uiso   1.00
H515   H     0.85463   0.92613   0.49647   0.00000  Uiso   1.00
H516   H     0.87827   0.88413   0.04041   0.00000  Uiso   1.00
C517   C     0.16678   0.16412   0.75008   0.00000  Uiso   1.00
C518   C     0.16544   0.33624   0.74981   0.00000  Uiso   1.00
C519   C     0.11931   0.24334   0.54593   0.00000  Uiso   1.00
C520   C     0.19140   0.28518   0.95064   0.00000  Uiso   1.00
C521   C     0.12088   0.24253   0.59598   0.00000  Uiso   1.00
C522   C     0.19180   0.28345   0.90081   0.00000  Uiso   1.00
C523   C     0.21207   0.25779   0.60817   0.00000  Uiso   1.00
C524   C     0.14156   0.21691   0.89461   0.00000  Uiso   1.00
C525   C     0.21275   0.25778   0.55865   0.00000  Uiso   1.00
C526   C     0.14149   0.21640   0.94421   0.00000  Uiso   1.00
C527   C     0.16620   0.25045   0.52648   0.00000  Uiso   1.00
C528   C     0.16670   0.25061   0.97324   0.00000  Uiso   1.00
C529   C     0.06699   0.25004   0.73751   0.00000  Uiso   1.00
C530   C     0.26636   0.25009   0.76251   0.00000  Uiso   1.00
C531   C     0.01197   0.25011   0.73081   0.00000  Uiso   1.00
C532   C     0.32143   0.25028   0.76928   0.00000  Uiso   1.00
C533   C     0.12018   0.04904   0.76413   0.00000  Uiso   1.00
C534   C     0.16987   0.45335   0.70719   0.00000  Uiso   1.00
C535   C     0.12355   0.09498   0.76625   0.00000  Uiso   1.00
C536   C     0.17223   0.40741   0.70855   0.00000  Uiso   1.00
C537   C     0.16547   0.11661   0.74979   0.00000  Uiso   1.00
C538   C     0.16139   0.38434   0.74906   0.00000  Uiso   1.00
C539   C     0.20441   0.09305   0.73101   0.00000  Uiso   1.00
C540   C     0.14578   0.40761   0.78779   0.00000  Uiso   1.00
C541   C     0.20197   0.04672   0.73080   0.00000  Uiso   1.00
C542   C     0.14534   0.45386   0.78673   0.00000  Uiso   1.00
C543   C     0.15955   0.02486   0.74672   0.00000  Uiso   1.00
C544   C     0.15755   0.47663   0.74663   0.00000  Uiso   1.00
H545   H     0.32464   0.24995   0.69434   0.00000  Uiso   1.00
H546   H     0.00882   0.25053   0.80578   0.00000  Uiso   1.00
H547   H     0.08698   0.03240   0.77603   0.00000  Uiso   1.00
H548   H     0.17844   0.47077   0.67566   0.00000  Uiso   1.00
H549   H     0.09311   0.11374   0.77980   0.00000  Uiso   1.00
H550   H     0.18326   0.39004   0.67811   0.00000  Uiso   1.00
H551   H     0.23355   0.02789   0.71924   0.00000  Uiso   1.00
H552   H     0.13622   0.47184   0.81756   0.00000  Uiso   1.00
H553   H     0.08504   0.23627   0.61049   0.00000  Uiso   1.00
H554   H     0.21202   0.30916   0.88366   0.00000  Uiso   1.00
H555   H     0.24823   0.26396   0.63207   0.00000  Uiso   1.00
H556   H     0.12175   0.19056   0.87274   0.00000  Uiso   1.00
H557   H     0.24975   0.26311   0.54566   0.00000  Uiso   1.00
H558   H     0.12215   0.18912   0.95983   0.00000  Uiso   1.00
N559   N     0.16667   0.24999   0.62624   0.00000  Uiso   1.00
N560   N     0.16667   0.25001   0.87377   0.00000  Uiso   1.00
O561   O     0.16667   0.18453   0.78974   0.00000  Uiso   1.00
O562   O     0.16666   0.31546   0.71026   0.00000  Uiso   1.00
O563   O     0.16667   0.18453   0.71026   0.00000  Uiso   1.00
O564   O     0.16666   0.31547   0.78974   0.00000  Uiso   1.00
O565   O     0.09058   0.25000   0.78045   0.00000  Uiso   1.00
O566   O     0.24275   0.25000   0.71956   0.00000  Uiso   1.00
O567   O     0.09058   0.24999   0.70097   0.00000  Uiso   1.00
O568   O     0.24275   0.25000   0.79904   0.00000  Uiso   1.00
Zn569  Zn    0.16667   0.25000   0.80307   0.00000  Uiso   1.00
Zn570  Zn    0.16667   0.24999   0.69693   0.00000  Uiso   1.00
O571   O     0.24725   0.11550   0.71798   0.00000  Uiso   1.00
C572   C     0.24644   0.11157   0.66820   0.00000  Uiso   1.00
H573   H     0.20684   0.11935   0.64793   0.00000  Uiso   1.00
H574   H     0.25807   0.07735   0.65902   0.00000  Uiso   1.00
C575   C     0.28559   0.14462   0.65257   0.00000  Uiso   1.00
H576   H     0.32574   0.13773   0.67169   0.00000  Uiso   1.00
H577   H     0.28572   0.14172   0.61351   0.00000  Uiso   1.00
H578   H     0.27441   0.17917   0.66069   0.00000  Uiso   1.00
O579   O     0.13355   0.38566   0.82775   0.00000  Uiso   1.00
C580   C     0.07867   0.37828   0.82151   0.00000  Uiso   1.00
H581   H     0.06473   0.36025   0.78749   0.00000  Uiso   1.00
H582   H     0.05742   0.41056   0.82157   0.00000  Uiso   1.00
C583   C     0.06511   0.34968   0.86249   0.00000  Uiso   1.00
H584   H     0.02194   0.34410   0.85817   0.00000  Uiso   1.00
H585   H     0.08482   0.31681   0.86266   0.00000  Uiso   1.00
H586   H     0.07805   0.36664   0.89712   0.00000  Uiso   1.00
O587   O     0.07216   0.23567   0.51651   0.00000  Uiso   1.00
C588   C     0.04758   0.27706   0.50456   0.00000  Uiso   1.00
H589   H     0.07497   0.30171   0.99179   0.00000  Uiso   1.00
H590   H     0.03217   0.29102   0.53605   0.00000  Uiso   1.00
C591   C     0.00187   0.27012   0.96436   0.00000  Uiso   1.00
H592   H     0.30592   0.24681   0.97602   0.00000  Uiso   1.00
H593   H     0.31593   0.30257   0.95431   0.00000  Uiso   1.00
H594   H     0.01638   0.25608   0.93256   0.00000  Uiso   1.00
O595   O     0.21689   0.31954   0.97741   0.00000  Uiso   1.00
C596   C     0.18681   0.35878   0.96889   0.00000  Uiso   1.00
H597   H     0.14566   0.35320   0.97547   0.00000  Uiso   1.00
H598   H     0.18639   0.37083   0.93160   0.00000  Uiso   1.00
C599   C     0.21122   0.39500   0.50281   0.00000  Uiso   1.00
H600   H     0.25218   0.40186   0.99683   0.00000  Uiso   1.00
H601   H     0.18796   0.42613   0.99647   0.00000  Uiso   1.00
H602   H     0.21161   0.38413   0.54041   0.00000  Uiso   1.00
C603   C     0.50012   0.16412   0.75008   0.00000  Uiso   1.00
C604   C     0.49877   0.33624   0.74981   0.00000  Uiso   1.00
C605   C     0.45265   0.24334   0.54593   0.00000  Uiso   1.00
C606   C     0.52473   0.28518   0.95064   0.00000  Uiso   1.00
C607   C     0.45421   0.24253   0.59598   0.00000  Uiso   1.00
C608   C     0.52514   0.28345   0.90081   0.00000  Uiso   1.00
C609   C     0.54540   0.25779   0.60817   0.00000  Uiso   1.00
C610   C     0.47490   0.21691   0.89461   0.00000  Uiso   1.00
C611   C     0.54609   0.25778   0.55865   0.00000  Uiso   1.00
C612   C     0.47482   0.21640   0.94421   0.00000  Uiso   1.00
C613   C     0.49953   0.25045   0.52648   0.00000  Uiso   1.00
C614   C     0.50003   0.25061   0.97324   0.00000  Uiso   1.00
C615   C     0.40032   0.25004   0.73751   0.00000  Uiso   1.00
C616   C     0.59970   0.25009   0.76251   0.00000  Uiso   1.00
C617   C     0.34530   0.25011   0.73081   0.00000  Uiso   1.00
C618   C     0.65476   0.25028   0.76928   0.00000  Uiso   1.00
C619   C     0.45351   0.04904   0.76413   0.00000  Uiso   1.00
C620   C     0.50320   0.45335   0.70719   0.00000  Uiso   1.00
C621   C     0.45689   0.09498   0.76625   0.00000  Uiso   1.00
C622   C     0.50556   0.40741   0.70855   0.00000  Uiso   1.00
C623   C     0.49880   0.11661   0.74979   0.00000  Uiso   1.00
C624   C     0.49473   0.38434   0.74906   0.00000  Uiso   1.00
C625   C     0.53774   0.09305   0.73101   0.00000  Uiso   1.00
C626   C     0.47912   0.40761   0.78779   0.00000  Uiso   1.00
C627   C     0.53530   0.04672   0.73080   0.00000  Uiso   1.00
C628   C     0.47867   0.45386   0.78673   0.00000  Uiso   1.00
C629   C     0.49288   0.02486   0.74672   0.00000  Uiso   1.00
C630   C     0.49088   0.47663   0.74663   0.00000  Uiso   1.00
H631   H     0.65797   0.24995   0.69434   0.00000  Uiso   1.00
H632   H     0.34216   0.25053   0.80578   0.00000  Uiso   1.00
H633   H     0.42032   0.03240   0.77603   0.00000  Uiso   1.00
H634   H     0.51177   0.47077   0.67566   0.00000  Uiso   1.00
H635   H     0.42644   0.11374   0.77980   0.00000  Uiso   1.00
H636   H     0.51660   0.39004   0.67811   0.00000  Uiso   1.00
H637   H     0.56688   0.02789   0.71924   0.00000  Uiso   1.00
H638   H     0.46956   0.47184   0.81756   0.00000  Uiso   1.00
H639   H     0.41837   0.23627   0.61049   0.00000  Uiso   1.00
H640   H     0.54535   0.30916   0.88366   0.00000  Uiso   1.00
H641   H     0.58156   0.26396   0.63207   0.00000  Uiso   1.00
H642   H     0.45508   0.19056   0.87274   0.00000  Uiso   1.00
H643   H     0.58308   0.26311   0.54566   0.00000  Uiso   1.00
H644   H     0.45549   0.18912   0.95983   0.00000  Uiso   1.00
N645   N     0.50000   0.24999   0.62624   0.00000  Uiso   1.00
N646   N     0.50000   0.25001   0.87377   0.00000  Uiso   1.00
O647   O     0.50000   0.18453   0.78974   0.00000  Uiso   1.00
O648   O     0.50000   0.31546   0.71026   0.00000  Uiso   1.00
O649   O     0.50000   0.18453   0.71026   0.00000  Uiso   1.00
O650   O     0.50000   0.31547   0.78974   0.00000  Uiso   1.00
O651   O     0.42392   0.25000   0.78045   0.00000  Uiso   1.00
O652   O     0.57608   0.25000   0.71956   0.00000  Uiso   1.00
O653   O     0.42392   0.24999   0.70097   0.00000  Uiso   1.00
O654   O     0.57608   0.25000   0.79904   0.00000  Uiso   1.00
Zn655  Zn    0.50000   0.25000   0.80307   0.00000  Uiso   1.00
Zn656  Zn    0.50000   0.24999   0.69693   0.00000  Uiso   1.00
O657   O     0.58059   0.11550   0.71798   0.00000  Uiso   1.00
C658   C     0.57977   0.11157   0.66820   0.00000  Uiso   1.00
H659   H     0.54017   0.11935   0.64793   0.00000  Uiso   1.00
H660   H     0.59140   0.07735   0.65902   0.00000  Uiso   1.00
C661   C     0.61893   0.14462   0.65257   0.00000  Uiso   1.00
H662   H     0.65908   0.13773   0.67169   0.00000  Uiso   1.00
H663   H     0.61905   0.14172   0.61351   0.00000  Uiso   1.00
H664   H     0.60774   0.17917   0.66069   0.00000  Uiso   1.00
O665   O     0.46688   0.38566   0.82775   0.00000  Uiso   1.00
C666   C     0.41200   0.37828   0.82151   0.00000  Uiso   1.00
H667   H     0.39807   0.36025   0.78749   0.00000  Uiso   1.00
H668   H     0.39075   0.41056   0.82157   0.00000  Uiso   1.00
C669   C     0.39844   0.34968   0.86249   0.00000  Uiso   1.00
H670   H     0.35527   0.34410   0.85817   0.00000  Uiso   1.00
H671   H     0.41816   0.31681   0.86266   0.00000  Uiso   1.00
H672   H     0.41138   0.36664   0.89712   0.00000  Uiso   1.00
O673   O     0.40549   0.23567   0.51651   0.00000  Uiso   1.00
C674   C     0.38091   0.27706   0.50456   0.00000  Uiso   1.00
H675   H     0.40830   0.30171   0.99179   0.00000  Uiso   1.00
H676   H     0.36550   0.29102   0.53605   0.00000  Uiso   1.00
C677   C     0.33520   0.27012   0.96436   0.00000  Uiso   1.00
H678   H     0.63925   0.24681   0.97602   0.00000  Uiso   1.00
H679   H     0.64926   0.30257   0.95431   0.00000  Uiso   1.00
H680   H     0.34971   0.25608   0.93256   0.00000  Uiso   1.00
O681   O     0.55023   0.31954   0.97741   0.00000  Uiso   1.00
C682   C     0.52014   0.35878   0.96889   0.00000  Uiso   1.00
H683   H     0.47899   0.35320   0.97547   0.00000  Uiso   1.00
H684   H     0.51972   0.37083   0.93160   0.00000  Uiso   1.00
C685   C     0.54456   0.39500   0.50281   0.00000  Uiso   1.00
H686   H     0.58551   0.40186   0.99683   0.00000  Uiso   1.00
H687   H     0.52129   0.42613   0.99647   0.00000  Uiso   1.00
H688   H     0.54494   0.38413   0.54041   0.00000  Uiso   1.00
C689   C     0.83345   0.16412   0.75008   0.00000  Uiso   1.00
C690   C     0.83210   0.33624   0.74981   0.00000  Uiso   1.00
C691   C     0.78598   0.24334   0.54593   0.00000  Uiso   1.00
C692   C     0.85806   0.28518   0.95064   0.00000  Uiso   1.00
C693   C     0.78755   0.24253   0.59598   0.00000  Uiso   1.00
C694   C     0.85847   0.28345   0.90081   0.00000  Uiso   1.00
C695   C     0.87874   0.25779   0.60817   0.00000  Uiso   1.00
C696   C     0.80823   0.21691   0.89461   0.00000  Uiso   1.00
C697   C     0.87942   0.25778   0.55865   0.00000  Uiso   1.00
C698   C     0.80816   0.21640   0.94421   0.00000  Uiso   1.00
C699   C     0.83286   0.25045   0.52648   0.00000  Uiso   1.00
C700   C     0.83336   0.25061   0.97324   0.00000  Uiso   1.00
C701   C     0.73366   0.25004   0.73751   0.00000  Uiso   1.00
C702   C     0.93303   0.25009   0.76251   0.00000  Uiso   1.00
C703   C     0.67863   0.25011   0.73081   0.00000  Uiso   1.00
C704   C     0.98809   0.25028   0.76928   0.00000  Uiso   1.00
C705   C     0.78684   0.04904   0.76413   0.00000  Uiso   1.00
C706   C     0.83654   0.45335   0.70719   0.00000  Uiso   1.00
C707   C     0.79022   0.09498   0.76625   0.00000  Uiso   1.00
C708   C     0.83890   0.40741   0.70855   0.00000  Uiso   1.00
C709   C     0.83213   0.11661   0.74979   0.00000  Uiso   1.00
C710   C     0.82806   0.38434   0.74906   0.00000  Uiso   1.00
C711   C     0.87107   0.09305   0.73101   0.00000  Uiso   1.00
C712   C     0.81245   0.40761   0.78779   0.00000  Uiso   1.00
C713   C     0.86864   0.04672   0.73080   0.00000  Uiso   1.00
C714   C     0.81200   0.45386   0.78673   0.00000  Uiso   1.00
C715   C     0.82622   0.02486   0.74672   0.00000  Uiso   1.00
C716   C     0.82422   0.47663   0.74663   0.00000  Uiso   1.00
H717   H     0.99131   0.24995   0.69434   0.00000  Uiso   1.00
H718   H     0.67549   0.25053   0.80578   0.00000  Uiso   1.00
H719   H     0.75365   0.03240   0.77603   0.00000  Uiso   1.00
H720   H     0.84511   0.47077   0.67566   0.00000  Uiso   1.00
H721   H     0.75977   0.11374   0.77980   0.00000  Uiso   1.00
H722   H     0.84993   0.39004   0.67811   0.00000  Uiso   1.00
H723   H     0.90021   0.02789   0.71924   0.00000  Uiso   1.00
H724   H     0.80289   0.47184   0.81756   0.00000  Uiso   1.00
H725   H     0.75170   0.23627   0.61049   0.00000  Uiso   1.00
H726   H     0.87869   0.30916   0.88366   0.00000  Uiso   1.00
H727   H     0.91490   0.26396   0.63207   0.00000  Uiso   1.00
H728   H     0.78841   0.19056   0.87274   0.00000  Uiso   1.00
H729   H     0.91641   0.26311   0.54566   0.00000  Uiso   1.00
H730   H     0.78882   0.18912   0.95983   0.00000  Uiso   1.00
N731   N     0.83333   0.24999   0.62624   0.00000  Uiso   1.00
N732   N     0.83333   0.25001   0.87377   0.00000  Uiso   1.00
O733   O     0.83334   0.18453   0.78974   0.00000  Uiso   1.00
O734   O     0.83333   0.31546   0.71026   0.00000  Uiso   1.00
O735   O     0.83334   0.18453   0.71026   0.00000  Uiso   1.00
O736   O     0.83333   0.31547   0.78974   0.00000  Uiso   1.00
O737   O     0.75725   0.25000   0.78045   0.00000  Uiso   1.00
O738   O     0.90942   0.25000   0.71956   0.00000  Uiso   1.00
O739   O     0.75725   0.24999   0.70097   0.00000  Uiso   1.00
O740   O     0.90942   0.25000   0.79904   0.00000  Uiso   1.00
Zn741  Zn    0.83333   0.25000   0.80307   0.00000  Uiso   1.00
Zn742  Zn    0.83333   0.24999   0.69693   0.00000  Uiso   1.00
O743   O     0.91392   0.11550   0.71798   0.00000  Uiso   1.00
C744   C     0.91311   0.11157   0.66820   0.00000  Uiso   1.00
H745   H     0.87351   0.11935   0.64793   0.00000  Uiso   1.00
H746   H     0.92473   0.07735   0.65902   0.00000  Uiso   1.00
C747   C     0.95226   0.14462   0.65257   0.00000  Uiso   1.00
H748   H     0.99241   0.13773   0.67169   0.00000  Uiso   1.00
H749   H     0.95239   0.14172   0.61351   0.00000  Uiso   1.00
H750   H     0.94107   0.17917   0.66069   0.00000  Uiso   1.00
O751   O     0.80021   0.38566   0.82775   0.00000  Uiso   1.00
C752   C     0.74533   0.37828   0.82151   0.00000  Uiso   1.00
H753   H     0.73140   0.36025   0.78749   0.00000  Uiso   1.00
H754   H     0.72408   0.41056   0.82157   0.00000  Uiso   1.00
C755   C     0.73177   0.34968   0.86249   0.00000  Uiso   1.00
H756   H     0.68861   0.34410   0.85817   0.00000  Uiso   1.00
H757   H     0.75149   0.31681   0.86266   0.00000  Uiso   1.00
H758   H     0.74472   0.36664   0.89712   0.00000  Uiso   1.00
O759   O     0.73883   0.23567   0.51651   0.00000  Uiso   1.00
C760   C     0.71425   0.27706   0.50456   0.00000  Uiso   1.00
H761   H     0.74164   0.30171   0.99179   0.00000  Uiso   1.00
H762   H     0.69884   0.29102   0.53605   0.00000  Uiso   1.00
C763   C     0.66853   0.27012   0.96436   0.00000  Uiso   1.00
H764   H     0.97259   0.24681   0.97602   0.00000  Uiso   1.00
H765   H     0.98260   0.30257   0.95431   0.00000  Uiso   1.00
H766   H     0.68304   0.25608   0.93256   0.00000  Uiso   1.00
O767   O     0.88356   0.31954   0.97741   0.00000  Uiso   1.00
C768   C     0.85347   0.35878   0.96889   0.00000  Uiso   1.00
H769   H     0.81233   0.35320   0.97547   0.00000  Uiso   1.00
H770   H     0.85306   0.37083   0.93160   0.00000  Uiso   1.00
C771   C     0.87789   0.39500   0.50281   0.00000  Uiso   1.00
H772   H     0.91885   0.40186   0.99683   0.00000  Uiso   1.00
H773   H     0.85463   0.42613   0.99647   0.00000  Uiso   1.00
H774   H     0.87827   0.38413   0.54041   0.00000  Uiso   1.00
C775   C     0.16678   0.66412   0.75008   0.00000  Uiso   1.00
C776   C     0.16544   0.83624   0.74981   0.00000  Uiso   1.00
C777   C     0.11931   0.74334   0.54593   0.00000  Uiso   1.00
C778   C     0.19140   0.78518   0.95064   0.00000  Uiso   1.00
C779   C     0.12088   0.74253   0.59598   0.00000  Uiso   1.00
C780   C     0.19180   0.78345   0.90081   0.00000  Uiso   1.00
C781   C     0.21207   0.75779   0.60817   0.00000  Uiso   1.00
C782   C     0.14156   0.71691   0.89461   0.00000  Uiso   1.00
C783   C     0.21275   0.75778   0.55865   0.00000  Uiso   1.00
C784   C     0.14149   0.71640   0.94421   0.00000  Uiso   1.00
C785   C     0.16620   0.75045   0.52648   0.00000  Uiso   1.00
C786   C     0.16670   0.75061   0.97324   0.00000  Uiso   1.00
C787   C     0.06699   0.75004   0.73751   0.00000  Uiso   1.00
C788   C     0.26636   0.75009   0.76251   0.00000  Uiso   1.00
C789   C     0.01197   0.75011   0.73081   0.00000  Uiso   1.00
C790   C     0.32143   0.75028   0.76928   0.00000  Uiso   1.00
C791   C     0.12018   0.54904   0.76413   0.00000  Uiso   1.00
C792   C     0.16987   0.95335   0.70719   0.00000  Uiso   1.00
C793   C     0.12355   0.59498   0.76625   0.00000  Uiso   1.00
C794   C     0.17223   0.90741   0.70855   0.00000  Uiso   1.00
C795   C     0.16547   0.61661   0.74979   0.00000  Uiso   1.00
C796   C     0.16139   0.88434   0.74906   0.00000  Uiso   1.00
C797   C     0.20441   0.59305   0.73101   0.00000  Uiso   1.00
C798   C     0.14578   0.90761   0.78779   0.00000  Uiso   1.00
C799   C     0.20197   0.54672   0.73080   0.00000  Uiso   1.00
C800   C     0.14534   0.95386   0.78673   0.00000  Uiso   1.00
C801   C     0.15955   0.52486   0.74672   0.00000  Uiso   1.00
C802   C     0.15755   0.97663   0.74663   0.00000  Uiso   1.00
H803   H     0.32464   0.74995   0.69434   0.00000  Uiso   1.00
H804   H     0.00882   0.75053   0.80578   0.00000  Uiso   1.00
H805   H     0.08698   0.53240   0.77603   0.00000  Uiso   1.00
H806   H     0.17844   0.97077   0.67566   0.00000  Uiso   1.00
H807   H     0.09311   0.61374   0.77980   0.00000  Uiso   1.00
H808   H     0.18326   0.89004   0.67811   0.00000  Uiso   1.00
H809   H     0.23355   0.52789   0.71924   0.00000  Uiso   1.00
H810   H     0.13622   0.97184   0.81756   0.00000  Uiso   1.00
H811   H     0.08504   0.73627   0.61049   0.00000  Uiso   1.00
H812   H     0.21202   0.80916   0.88366   0.00000  Uiso   1.00
H813   H     0.24823   0.76396   0.63207   0.00000  Uiso   1.00
H814   H     0.12175   0.69056   0.87274   0.00000  Uiso   1.00
H815   H     0.24975   0.76311   0.54566   0.00000  Uiso   1.00
H816   H     0.12215   0.68912   0.95983   0.00000  Uiso   1.00
N817   N     0.16667   0.74999   0.62624   0.00000  Uiso   1.00
N818   N     0.16667   0.75001   0.87377   0.00000  Uiso   1.00
O819   O     0.16667   0.68453   0.78974   0.00000  Uiso   1.00
O820   O     0.16666   0.81546   0.71026   0.00000  Uiso   1.00
O821   O     0.16667   0.68453   0.71026   0.00000  Uiso   1.00
O822   O     0.16666   0.81547   0.78974   0.00000  Uiso   1.00
O823   O     0.09058   0.75000   0.78045   0.00000  Uiso   1.00
O824   O     0.24275   0.75000   0.71956   0.00000  Uiso   1.00
O825   O     0.09058   0.74999   0.70097   0.00000  Uiso   1.00
O826   O     0.24275   0.75000   0.79904   0.00000  Uiso   1.00
Zn827  Zn    0.16667   0.75000   0.80307   0.00000  Uiso   1.00
Zn828  Zn    0.16667   0.74999   0.69693   0.00000  Uiso   1.00
O829   O     0.24725   0.61550   0.71798   0.00000  Uiso   1.00
C830   C     0.24644   0.61157   0.66820   0.00000  Uiso   1.00
H831   H     0.20684   0.61935   0.64793   0.00000  Uiso   1.00
H832   H     0.25807   0.57735   0.65902   0.00000  Uiso   1.00
C833   C     0.28559   0.64462   0.65257   0.00000  Uiso   1.00
H834   H     0.32574   0.63773   0.67169   0.00000  Uiso   1.00
H835   H     0.28572   0.64172   0.61351   0.00000  Uiso   1.00
H836   H     0.27441   0.67917   0.66069   0.00000  Uiso   1.00
O837   O     0.13355   0.88566   0.82775   0.00000  Uiso   1.00
C838   C     0.07867   0.87828   0.82151   0.00000  Uiso   1.00
H839   H     0.06473   0.86025   0.78749   0.00000  Uiso   1.00
H840   H     0.05742   0.91056   0.82157   0.00000  Uiso   1.00
C841   C     0.06511   0.84968   0.86249   0.00000  Uiso   1.00
H842   H     0.02194   0.84410   0.85817   0.00000  Uiso   1.00
H843   H     0.08482   0.81681   0.86266   0.00000  Uiso   1.00
H844   H     0.07805   0.86664   0.89712   0.00000  Uiso   1.00
O845   O     0.07216   0.73567   0.51651   0.00000  Uiso   1.00
C846   C     0.04758   0.77706   0.50456   0.00000  Uiso   1.00
H847   H     0.07497   0.80171   0.99179   0.00000  Uiso   1.00
H848   H     0.03217   0.79102   0.53605   0.00000  Uiso   1.00
C849   C     0.00187   0.77012   0.96436   0.00000  Uiso   1.00
H850   H     0.30592   0.74681   0.97602   0.00000  Uiso   1.00
H851   H     0.31593   0.80257   0.95431   0.00000  Uiso   1.00
H852   H     0.01638   0.75608   0.93256   0.00000  Uiso   1.00
O853   O     0.21689   0.81954   0.97741   0.00000  Uiso   1.00
C854   C     0.18681   0.85878   0.96889   0.00000  Uiso   1.00
H855   H     0.14566   0.85320   0.97547   0.00000  Uiso   1.00
H856   H     0.18639   0.87083   0.93160   0.00000  Uiso   1.00
C857   C     0.21122   0.89500   0.50281   0.00000  Uiso   1.00
H858   H     0.25218   0.90186   0.99683   0.00000  Uiso   1.00
H859   H     0.18796   0.92613   0.99647   0.00000  Uiso   1.00
H860   H     0.21161   0.88413   0.54041   0.00000  Uiso   1.00
C861   C     0.50012   0.66412   0.75008   0.00000  Uiso   1.00
C862   C     0.49877   0.83624   0.74981   0.00000  Uiso   1.00
C863   C     0.45265   0.74334   0.54593   0.00000  Uiso   1.00
C864   C     0.52473   0.78518   0.95064   0.00000  Uiso   1.00
C865   C     0.45421   0.74253   0.59598   0.00000  Uiso   1.00
C866   C     0.52514   0.78345   0.90081   0.00000  Uiso   1.00
C867   C     0.54540   0.75779   0.60817   0.00000  Uiso   1.00
C868   C     0.47490   0.71691   0.89461   0.00000  Uiso   1.00
C869   C     0.54609   0.75778   0.55865   0.00000  Uiso   1.00
C870   C     0.47482   0.71640   0.94421   0.00000  Uiso   1.00
C871   C     0.49953   0.75045   0.52648   0.00000  Uiso   1.00
C872   C     0.50003   0.75061   0.97324   0.00000  Uiso   1.00
C873   C     0.40032   0.75004   0.73751   0.00000  Uiso   1.00
C874   C     0.59970   0.75009   0.76251   0.00000  Uiso   1.00
C875   C     0.34530   0.75011   0.73081   0.00000  Uiso   1.00
C876   C     0.65476   0.75028   0.76928   0.00000  Uiso   1.00
C877   C     0.45351   0.54904   0.76413   0.00000  Uiso   1.00
C878   C     0.50320   0.95335   0.70719   0.00000  Uiso   1.00
C879   C     0.45689   0.59498   0.76625   0.00000  Uiso   1.00
C880   C     0.50556   0.90741   0.70855   0.00000  Uiso   1.00
C881   C     0.49880   0.61661   0.74979   0.00000  Uiso   1.00
C882   C     0.49473   0.88434   0.74906   0.00000  Uiso   1.00
C883   C     0.53774   0.59305   0.73101   0.00000  Uiso   1.00
C884   C     0.47912   0.90761   0.78779   0.00000  Uiso   1.00
C885   C     0.53530   0.54672   0.73080   0.00000  Uiso   1.00
C886   C     0.47867   0.95386   0.78673   0.00000  Uiso   1.00
C887   C     0.49288   0.52486   0.74672   0.00000  Uiso   1.00
C888   C     0.49088   0.97663   0.74663   0.00000  Uiso   1.00
H889   H     0.65797   0.74995   0.69434   0.00000  Uiso   1.00
H890   H     0.34216   0.75053   0.80578   0.00000  Uiso   1.00
H891   H     0.42032   0.53240   0.77603   0.00000  Uiso   1.00
H892   H     0.51177   0.97077   0.67566   0.00000  Uiso   1.00
H893   H     0.42644   0.61374   0.77980   0.00000  Uiso   1.00
H894   H     0.51660   0.89004   0.67811   0.00000  Uiso   1.00
H895   H     0.56688   0.52789   0.71924   0.00000  Uiso   1.00
H896   H     0.46956   0.97184   0.81756   0.00000  Uiso   1.00
H897   H     0.41837   0.73627   0.61049   0.00000  Uiso   1.00
H898   H     0.54535   0.80916   0.88366   0.00000  Uiso   1.00
H899   H     0.58156   0.76396   0.63207   0.00000  Uiso   1.00
H900   H     0.45508   0.69056   0.87274   0.00000  Uiso   1.00
H901   H     0.58308   0.76311   0.54566   0.00000  Uiso   1.00
H902   H     0.45549   0.68912   0.95983   0.00000  Uiso   1.00
N903   N     0.50000   0.74999   0.62624   0.00000  Uiso   1.00
N904   N     0.50000   0.75001   0.87377   0.00000  Uiso   1.00
O905   O     0.50000   0.68453   0.78974   0.00000  Uiso   1.00
O906   O     0.50000   0.81546   0.71026   0.00000  Uiso   1.00
O907   O     0.50000   0.68453   0.71026   0.00000  Uiso   1.00
O908   O     0.50000   0.81547   0.78974   0.00000  Uiso   1.00
O909   O     0.42392   0.75000   0.78045   0.00000  Uiso   1.00
O910   O     0.57608   0.75000   0.71956   0.00000  Uiso   1.00
O911   O     0.42392   0.74999   0.70097   0.00000  Uiso   1.00
O912   O     0.57608   0.75000   0.79904   0.00000  Uiso   1.00
Zn913  Zn    0.50000   0.75000   0.80307   0.00000  Uiso   1.00
Zn914  Zn    0.50000   0.74999   0.69693   0.00000  Uiso   1.00
O915   O     0.58059   0.61550   0.71798   0.00000  Uiso   1.00
C916   C     0.57977   0.61157   0.66820   0.00000  Uiso   1.00
H917   H     0.54017   0.61935   0.64793   0.00000  Uiso   1.00
H918   H     0.59140   0.57735   0.65902   0.00000  Uiso   1.00
C919   C     0.61893   0.64462   0.65257   0.00000  Uiso   1.00
H920   H     0.65908   0.63773   0.67169   0.00000  Uiso   1.00
H921   H     0.61905   0.64172   0.61351   0.00000  Uiso   1.00
H922   H     0.60774   0.67917   0.66069   0.00000  Uiso   1.00
O923   O     0.46688   0.88566   0.82775   0.00000  Uiso   1.00
C924   C     0.41200   0.87828   0.82151   0.00000  Uiso   1.00
H925   H     0.39807   0.86025   0.78749   0.00000  Uiso   1.00
H926   H     0.39075   0.91056   0.82157   0.00000  Uiso   1.00
C927   C     0.39844   0.84968   0.86249   0.00000  Uiso   1.00
H928   H     0.35527   0.84410   0.85817   0.00000  Uiso   1.00
H929   H     0.41816   0.81681   0.86266   0.00000  Uiso   1.00
H930   H     0.41138   0.86664   0.89712   0.00000  Uiso   1.00
O931   O     0.40549   0.73567   0.51651   0.00000  Uiso   1.00
C932   C     0.38091   0.77706   0.50456   0.00000  Uiso   1.00
H933   H     0.40830   0.80171   0.99179   0.00000  Uiso   1.00
H934   H     0.36550   0.79102   0.53605   0.00000  Uiso   1.00
C935   C     0.33520   0.77012   0.96436   0.00000  Uiso   1.00
H936   H     0.63925   0.74681   0.97602   0.00000  Uiso   1.00
H937   H     0.64926   0.80257   0.95431   0.00000  Uiso   1.00
H938   H     0.34971   0.75608   0.93256   0.00000  Uiso   1.00
O939   O     0.55023   0.81954   0.97741   0.00000  Uiso   1.00
C940   C     0.52014   0.85878   0.96889   0.00000  Uiso   1.00
H941   H     0.47899   0.85320   0.97547   0.00000  Uiso   1.00
H942   H     0.51972   0.87083   0.93160   0.00000  Uiso   1.00
C943   C     0.54456   0.89500   0.50281   0.00000  Uiso   1.00
H944   H     0.58551   0.90186   0.99683   0.00000  Uiso   1.00
H945   H     0.52129   0.92613   0.99647   0.00000  Uiso   1.00
H946   H     0.54494   0.88413   0.54041   0.00000  Uiso   1.00
C947   C     0.83345   0.66412   0.75008   0.00000  Uiso   1.00
C948   C     0.83210   0.83624   0.74981   0.00000  Uiso   1.00
C949   C     0.78598   0.74334   0.54593   0.00000  Uiso   1.00
C950   C     0.85806   0.78518   0.95064   0.00000  Uiso   1.00
C951   C     0.78755   0.74253   0.59598   0.00000  Uiso   1.00
C952   C     0.85847   0.78345   0.90081   0.00000  Uiso   1.00
C953   C     0.87874   0.75779   0.60817   0.00000  Uiso   1.00
C954   C     0.80823   0.71691   0.89461   0.00000  Uiso   1.00
C955   C     0.87942   0.75778   0.55865   0.00000  Uiso   1.00
C956   C     0.80816   0.71640   0.94421   0.00000  Uiso   1.00
C957   C     0.83286   0.75045   0.52648   0.00000  Uiso   1.00
C958   C     0.83336   0.75061   0.97324   0.00000  Uiso   1.00
C959   C     0.73366   0.75004   0.73751   0.00000  Uiso   1.00
C960   C     0.93303   0.75009   0.76251   0.00000  Uiso   1.00
C961   C     0.67863   0.75011   0.73081   0.00000  Uiso   1.00
C962   C     0.98809   0.75028   0.76928   0.00000  Uiso   1.00
C963   C     0.78684   0.54904   0.76413   0.00000  Uiso   1.00
C964   C     0.83654   0.95335   0.70719   0.00000  Uiso   1.00
C965   C     0.79022   0.59498   0.76625   0.00000  Uiso   1.00
C966   C     0.83890   0.90741   0.70855   0.00000  Uiso   1.00
C967   C     0.83213   0.61661   0.74979   0.00000  Uiso   1.00
C968   C     0.82806   0.88434   0.74906   0.00000  Uiso   1.00
C969   C     0.87107   0.59305   0.73101   0.00000  Uiso   1.00
C970   C     0.81245   0.90761   0.78779   0.00000  Uiso   1.00
C971   C     0.86864   0.54672   0.73080   0.00000  Uiso   1.00
C972   C     0.81200   0.95386   0.78673   0.00000  Uiso   1.00
C973   C     0.82622   0.52486   0.74672   0.00000  Uiso   1.00
C974   C     0.82422   0.97663   0.74663   0.00000  Uiso   1.00
H975   H     0.99131   0.74995   0.69434   0.00000  Uiso   1.00
H976   H     0.67549   0.75053   0.80578   0.00000  Uiso   1.00
H977   H     0.75365   0.53240   0.77603   0.00000  Uiso   1.00
H978   H     0.84511   0.97077   0.67566   0.00000  Uiso   1.00
H979   H     0.75977   0.61374   0.77980   0.00000  Uiso   1.00
H980   H     0.84993   0.89004   0.67811   0.00000  Uiso   1.00
H981   H     0.90021   0.52789   0.71924   0.00000  Uiso   1.00
H982   H     0.80289   0.97184   0.81756   0.00000  Uiso   1.00
H983   H     0.75170   0.73627   0.61049   0.00000  Uiso   1.00
H984   H     0.87869   0.80916   0.88366   0.00000  Uiso   1.00
H985   H     0.91490   0.76396   0.63207   0.00000  Uiso   1.00
H986   H     0.78841   0.69056   0.87274   0.00000  Uiso   1.00
H987   H     0.91641   0.76311   0.54566   0.00000  Uiso   1.00
H988   H     0.78882   0.68912   0.95983   0.00000  Uiso   1.00
N989   N     0.83333   0.74999   0.62624   0.00000  Uiso   1.00
N990   N     0.83333   0.75001   0.87377   0.00000  Uiso   1.00
O991   O     0.83334   0.68453   0.78974   0.00000  Uiso   1.00
O992   O     0.83333   0.81546   0.71026   0.00000  Uiso   1.00
O993   O     0.83334   0.68453   0.71026   0.00000  Uiso   1.00
O994   O     0.83333   0.81547   0.78974   0.00000  Uiso   1.00
O995   O     0.75725   0.75000   0.78045   0.00000  Uiso   1.00
O996   O     0.90942   0.75000   0.71956   0.00000  Uiso   1.00
O997   O     0.75725   0.74999   0.70097   0.00000  Uiso   1.00
O998   O     0.90942   0.75000   0.79904   0.00000  Uiso   1.00
Zn999  Zn    0.83333   0.75000   0.80307   0.00000  Uiso   1.00
Zn1000 Zn    0.83333   0.74999   0.69693   0.00000  Uiso   1.00
O1001  O     0.91392   0.61550   0.71798   0.00000  Uiso   1.00
C1002  C     0.91311   0.61157   0.66820   0.00000  Uiso   1.00
H1003  H     0.87351   0.61935   0.64793   0.00000  Uiso   1.00
H1004  H     0.92473   0.57735   0.65902   0.00000  Uiso   1.00
C1005  C     0.95226   0.64462   0.65257   0.00000  Uiso   1.00
H1006  H     0.99241   0.63773   0.67169   0.00000  Uiso   1.00
H1007  H     0.95239   0.64172   0.61351   0.00000  Uiso   1.00
H1008  H     0.94107   0.67917   0.66069   0.00000  Uiso   1.00
O1009  O     0.80021   0.88566   0.82775   0.00000  Uiso   1.00
C1010  C     0.74533   0.87828   0.82151   0.00000  Uiso   1.00
H1011  H     0.73140   0.86025   0.78749   0.00000  Uiso   1.00
H1012  H     0.72408   0.91056   0.82157   0.00000  Uiso   1.00
C1013  C     0.73177   0.84968   0.86249   0.00000  Uiso   1.00
H1014  H     0.68861   0.84410   0.85817   0.00000  Uiso   1.00
H1015  H     0.75149   0.81681   0.86266   0.00000  Uiso   1.00
H1016  H     0.74472   0.86664   0.89712   0.00000  Uiso   1.00
O1017  O     0.73883   0.73567   0.51651   0.00000  Uiso   1.00
C1018  C     0.71425   0.77706   0.50456   0.00000  Uiso   1.00
H1019  H     0.74164   0.80171   0.99179   0.00000  Uiso   1.00
H1020  H     0.69884   0.79102   0.53605   0.00000  Uiso   1.00
C1021  C     0.66853   0.77012   0.96436   0.00000  Uiso   1.00
H1022  H     0.97259   0.74681   0.97602   0.00000  Uiso   1.00
H1023  H     0.98260   0.80257   0.95431   0.00000  Uiso   1.00
H1024  H     0.68304   0.75608   0.93256   0.00000  Uiso   1.00
O1025  O     0.88356   0.81954   0.97741   0.00000  Uiso   1.00
C1026  C     0.85347   0.85878   0.96889   0.00000  Uiso   1.00
H1027  H     0.81233   0.85320   0.97547   0.00000  Uiso   1.00
H1028  H     0.85306   0.87083   0.93160   0.00000  Uiso   1.00
C1029  C     0.87789   0.89500   0.50281   0.00000  Uiso   1.00
H1030  H     0.91885   0.90186   0.99683   0.00000  Uiso   1.00
H1031  H     0.85463   0.92613   0.99647   0.00000  Uiso   1.00
H1032  H     0.87827   0.88413   0.54041   0.00000  Uiso   1.00
loop_
_geom_bond_atom_site_label_1
_geom_bond_atom_site_label_2
_geom_bond_distance
_geom_bond_site_symmetry_2
_ccdc_geom_bond_type
C1     C21     1.424   .     S
C1     O47     1.281   .     A
C1     O45     1.281   .     A
C2     O46     1.288   .     A
C2     C22     1.445   .     S
C2     O48     1.285   .     A
C3     O71     1.382   .     S
C3     C5      1.412   .     A
C3     C11     1.416   .     A
C4     C12     1.414   .     A
C4     O79     1.382   .     S
C4     C6      1.414   .     A
C5     H37     1.081   .     S
C5     N43     1.365   .     A
C6     H38     1.082   .     S
C6     N44     1.362   .     A
C7     N43     1.364   .     A
C7     C9      1.405   .     A
C7     H39     1.079   .     S
C8     N44     1.362   .     A
C8     C10     1.405   .     A
C8     H40     1.082   .     S
C9     C11     1.407   .     A
C9     H41     1.083   .     S
C10    H42     1.082   .     S
C10    C12     1.408   .     A
C11    C528    1.510   1_554 S
C12    C527    1.510   .     S
C13    O51     1.277   .     A
C13    O49     1.273   .     A
C13    C15     1.400   .     S
C14    O52     1.277   .     A
C14    C16     1.401   .     S
C14    O50     1.274   .     A
C15    C188    1.330   1_455 S
C15    H201    1.087   1_455 S
C16    C101    1.330   .     S
C16    H116    1.088   .     S
C17    C27     1.399   .     A
C17    H31     1.083   .     S
C17    C19     1.380   .     A
C18    C28     1.397   .     A
C18    H32     1.084   .     S
C18    C20     1.378   .     A
C19    C21     1.394   .     A
C19    H33     1.084   .     S
C20    H34     1.083   .     S
C20    C22     1.401   .     A
C21    C23     1.399   .     A
C22    C24     1.412   .     A
C23    O55     1.385   .     S
C23    C25     1.389   .     A
C24    C26     1.386   .     A
C24    O63     1.383   .     S
C25    H35     1.083   .     S
C25    C27     1.402   .     A
C26    H36     1.084   .     S
C26    C28     1.398   .     A
C27    C286    1.446   1_545 S
C28    C285    1.446   .     S
H29    C101    1.087   .     S
H30    C188    1.088   1_455 S
N43    Zn54    2.002   .     S
N44    Zn53    2.002   .     S
O45    Zn53    1.999   .     S
O46    Zn54    1.999   .     S
O47    Zn54    1.996   .     S
O48    Zn53    1.996   .     S
O49    Zn53    1.965   .     S
O50    Zn54    1.965   .     S
O51    Zn54    1.979   .     S
O52    Zn53    1.979   .     S
O55    C56     1.412   .     S
C56    H57     1.116   .     S
C56    C59     1.521   .     S
C56    H58     1.112   .     S
C59    H60     1.111   .     S
C59    H61     1.110   .     S
C59    H62     1.110   .     S
O63    C64     1.413   .     S
C64    C67     1.522   .     S
C64    H66     1.114   .     S
C64    H65     1.116   .     S
C67    H68     1.111   .     S
C67    H69     1.110   .     S
C67    H70     1.110   .     S
O71    C72     1.412   .     S
C72    H74     1.113   .     S
C72    H589    1.115   1_554 S
C72    C591    1.521   1_554 S
H73    C588    1.115   .     S
C75    H78     1.111   .     S
C75    C588    1.521   .     S
C75    H248    1.111   1_455 S
C75    H249    1.110   1_455 S
H76    C161    1.111   .     S
H77    C161    1.110   .     S
O79    C80     1.411   .     S
C80    H82     1.113   .     S
C80    H81     1.115   .     S
C80    C599    1.520   .     S
C83    H86     1.111   .     S
C83    C596    1.520   1_554 S
C83    H600    1.111   1_554 S
C83    H601    1.110   1_554 S
H84    C599    1.111   .     S
H85    C599    1.110   .     S
C87    C107    1.424   .     S
C87    O133    1.281   .     A
C87    O131    1.281   .     A
C88    O132    1.288   .     A
C88    C108    1.445   .     S
C88    O134    1.285   .     A
C89    O157    1.382   .     S
C89    C91     1.412   .     A
C89    C97     1.416   .     A
C90    C98     1.414   .     A
C90    O165    1.382   .     S
C90    C92     1.414   .     A
C91    H123    1.081   .     S
C91    N129    1.365   .     A
C92    H124    1.082   .     S
C92    N130    1.362   .     A
C93    N129    1.364   .     A
C93    C95     1.405   .     A
C93    H125    1.079   .     S
C94    N130    1.362   .     A
C94    C96     1.405   .     A
C94    H126    1.082   .     S
C95    C97     1.407   .     A
C95    H127    1.083   .     S
C96    H128    1.082   .     S
C96    C98     1.408   .     A
C97    C614    1.510   1_554 S
C98    C613    1.510   .     S
C99    O137    1.277   .     A
C99    O135    1.273   .     A
C99    C101    1.400   .     S
C100   O138    1.277   .     A
C100   C102    1.401   .     S
C100   O136    1.274   .     A
C102   C187    1.330   .     S
C102   H202    1.088   .     S
C103   C113    1.399   .     A
C103   H117    1.083   .     S
C103   C105    1.380   .     A
C104   C114    1.397   .     A
C104   H118    1.084   .     S
C104   C106    1.378   .     A
C105   C107    1.394   .     A
C105   H119    1.084   .     S
C106   H120    1.083   .     S
C106   C108    1.401   .     A
C107   C109    1.399   .     A
C108   C110    1.412   .     A
C109   O141    1.385   .     S
C109   C111    1.389   .     A
C110   C112    1.386   .     A
C110   O149    1.383   .     S
C111   H121    1.083   .     S
C111   C113    1.402   .     A
C112   H122    1.084   .     S
C112   C114    1.398   .     A
C113   C372    1.446   1_545 S
C114   C371    1.446   .     S
H115   C187    1.087   .     S
N129   Zn140   2.002   .     S
N130   Zn139   2.002   .     S
O131   Zn139   1.999   .     S
O132   Zn140   1.999   .     S
O133   Zn140   1.996   .     S
O134   Zn139   1.996   .     S
O135   Zn139   1.965   .     S
O136   Zn140   1.965   .     S
O137   Zn140   1.979   .     S
O138   Zn139   1.979   .     S
O141   C142    1.412   .     S
C142   H143    1.116   .     S
C142   C145    1.521   .     S
C142   H144    1.112   .     S
C145   H146    1.111   .     S
C145   H147    1.110   .     S
C145   H148    1.110   .     S
O149   C150    1.413   .     S
C150   C153    1.522   .     S
C150   H152    1.114   .     S
C150   H151    1.116   .     S
C153   H154    1.111   .     S
C153   H155    1.110   .     S
C153   H156    1.110   .     S
O157   C158    1.412   .     S
C158   H160    1.113   .     S
C158   H675    1.115   1_554 S
C158   C677    1.521   1_554 S
H159   C674    1.115   .     S
C161   H164    1.111   .     S
C161   C674    1.521   .     S
H162   C247    1.111   .     S
H163   C247    1.110   .     S
O165   C166    1.411   .     S
C166   H168    1.113   .     S
C166   H167    1.115   .     S
C166   C685    1.520   .     S
C169   H172    1.111   .     S
C169   C682    1.520   1_554 S
C169   H686    1.111   1_554 S
C169   H687    1.110   1_554 S
H170   C685    1.111   .     S
H171   C685    1.110   .     S
C173   C193    1.424   .     S
C173   O219    1.281   .     A
C173   O217    1.281   .     A
C174   O218    1.288   .     A
C174   C194    1.445   .     S
C174   O220    1.285   .     A
C175   O243    1.382   .     S
C175   C177    1.412   .     A
C175   C183    1.416   .     A
C176   C184    1.414   .     A
C176   O251    1.382   .     S
C176   C178    1.414   .     A
C177   H209    1.081   .     S
C177   N215    1.365   .     A
C178   H210    1.082   .     S
C178   N216    1.362   .     A
C179   N215    1.364   .     A
C179   C181    1.405   .     A
C179   H211    1.079   .     S
C180   N216    1.362   .     A
C180   C182    1.405   .     A
C180   H212    1.082   .     S
C181   C183    1.407   .     A
C181   H213    1.083   .     S
C182   H214    1.082   .     S
C182   C184    1.408   .     A
C183   C700    1.510   1_554 S
C184   C699    1.510   .     S
C185   O223    1.277   .     A
C185   O221    1.273   .     A
C185   C187    1.400   .     S
C186   O224    1.277   .     A
C186   C188    1.401   .     S
C186   O222    1.274   .     A
C188   C15     1.330   1_655 S
C188   H30     1.088   1_655 S
C189   C199    1.399   .     A
C189   H203    1.083   .     S
C189   C191    1.380   .     A
C190   C200    1.397   .     A
C190   H204    1.084   .     S
C190   C192    1.378   .     A
C191   C193    1.394   .     A
C191   H205    1.084   .     S
C192   H206    1.083   .     S
C192   C194    1.401   .     A
C193   C195    1.399   .     A
C194   C196    1.412   .     A
C195   O227    1.385   .     S
C195   C197    1.389   .     A
C196   C198    1.386   .     A
C196   O235    1.383   .     S
C197   H207    1.083   .     S
C197   C199    1.402   .     A
C198   H208    1.084   .     S
C198   C200    1.398   .     A
C199   C458    1.446   1_545 S
C200   C457    1.446   .     S
H201   C15     1.087   1_655 S
N215   Zn226   2.002   .     S
N216   Zn225   2.002   .     S
O217   Zn225   1.999   .     S
O218   Zn226   1.999   .     S
O219   Zn226   1.996   .     S
O220   Zn225   1.996   .     S
O221   Zn225   1.965   .     S
O222   Zn226   1.965   .     S
O223   Zn226   1.979   .     S
O224   Zn225   1.979   .     S
O227   C228    1.412   .     S
C228   H229    1.116   .     S
C228   C231    1.521   .     S
C228   H230    1.112   .     S
C231   H232    1.111   .     S
C231   H233    1.110   .     S
C231   H234    1.110   .     S
O235   C236    1.413   .     S
C236   C239    1.522   .     S
C236   H238    1.114   .     S
C236   H237    1.116   .     S
C239   H240    1.111   .     S
C239   H241    1.110   .     S
C239   H242    1.110   .     S
O243   C244    1.412   .     S
C244   H246    1.113   .     S
C244   H761    1.115   1_554 S
C244   C763    1.521   1_554 S
H245   C760    1.115   .     S
C247   H250    1.111   .     S
C247   C760    1.521   .     S
H248   C75     1.111   1_655 S
H249   C75     1.110   1_655 S
O251   C252    1.411   .     S
C252   H254    1.113   .     S
C252   H253    1.115   .     S
C252   C771    1.520   .     S
C255   H258    1.111   .     S
C255   C768    1.520   1_554 S
C255   H772    1.111   1_554 S
C255   H773    1.110   1_554 S
H256   C771    1.111   .     S
H257   C771    1.110   .     S
C259   C279    1.424   .     S
C259   O305    1.281   .     A
C259   O303    1.281   .     A
C260   O304    1.288   .     A
C260   C280    1.445   .     S
C260   O306    1.285   .     A
C261   O329    1.382   .     S
C261   C263    1.412   .     A
C261   C269    1.416   .     A
C262   C270    1.414   .     A
C262   O337    1.382   .     S
C262   C264    1.414   .     A
C263   H295    1.081   .     S
C263   N301    1.365   .     A
C264   H296    1.082   .     S
C264   N302    1.362   .     A
C265   N301    1.364   .     A
C265   C267    1.405   .     A
C265   H297    1.079   .     S
C266   N302    1.362   .     A
C266   C268    1.405   .     A
C266   H298    1.082   .     S
C267   C269    1.407   .     A
C267   H299    1.083   .     S
C268   H300    1.082   .     S
C268   C270    1.408   .     A
C269   C786    1.510   1_554 S
C270   C785    1.510   .     S
C271   O309    1.277   .     A
C271   O307    1.273   .     A
C271   C273    1.400   .     S
C272   O310    1.277   .     A
C272   C274    1.401   .     S
C272   O308    1.274   .     A
C273   C446    1.330   1_455 S
C273   H459    1.087   1_455 S
C274   C359    1.330   .     S
C274   H374    1.088   .     S
C275   C285    1.399   .     A
C275   H289    1.083   .     S
C275   C277    1.380   .     A
C276   C286    1.397   .     A
C276   H290    1.084   .     S
C276   C278    1.378   .     A
C277   C279    1.394   .     A
C277   H291    1.084   .     S
C278   H292    1.083   .     S
C278   C280    1.401   .     A
C279   C281    1.399   .     A
C280   C282    1.412   .     A
C281   O313    1.385   .     S
C281   C283    1.389   .     A
C282   C284    1.386   .     A
C282   O321    1.383   .     S
C283   H293    1.083   .     S
C283   C285    1.402   .     A
C284   H294    1.084   .     S
C284   C286    1.398   .     A
C286   C27     1.446   1_565 S
H287   C359    1.087   .     S
H288   C446    1.088   1_455 S
N301   Zn312   2.002   .     S
N302   Zn311   2.002   .     S
O303   Zn311   1.999   .     S
O304   Zn312   1.999   .     S
O305   Zn312   1.996   .     S
O306   Zn311   1.996   .     S
O307   Zn311   1.965   .     S
O308   Zn312   1.965   .     S
O309   Zn312   1.979   .     S
O310   Zn311   1.979   .     S
O313   C314    1.412   .     S
C314   H315    1.116   .     S
C314   C317    1.521   .     S
C314   H316    1.112   .     S
C317   H318    1.111   .     S
C317   H319    1.110   .     S
C317   H320    1.110   .     S
O321   C322    1.413   .     S
C322   C325    1.522   .     S
C322   H324    1.114   .     S
C322   H323    1.116   .     S
C325   H326    1.111   .     S
C325   H327    1.110   .     S
C325   H328    1.110   .     S
O329   C330    1.412   .     S
C330   H332    1.113   .     S
C330   H847    1.115   1_554 S
C330   C849    1.521   1_554 S
H331   C846    1.115   .     S
C333   H336    1.111   .     S
C333   C846    1.521   .     S
C333   H506    1.111   1_455 S
C333   H507    1.110   1_455 S
H334   C419    1.111   .     S
H335   C419    1.110   .     S
O337   C338    1.411   .     S
C338   H340    1.113   .     S
C338   H339    1.115   .     S
C338   C857    1.520   .     S
C341   H344    1.111   .     S
C341   C854    1.520   1_554 S
C341   H858    1.111   1_554 S
C341   H859    1.110   1_554 S
H342   C857    1.111   .     S
H343   C857    1.110   .     S
C345   C365    1.424   .     S
C345   O391    1.281   .     A
C345   O389    1.281   .     A
C346   O390    1.288   .     A
C346   C366    1.445   .     S
C346   O392    1.285   .     A
C347   O415    1.382   .     S
C347   C349    1.412   .     A
C347   C355    1.416   .     A
C348   C356    1.414   .     A
C348   O423    1.382   .     S
C348   C350    1.414   .     A
C349   H381    1.081   .     S
C349   N387    1.365   .     A
C350   H382    1.082   .     S
C350   N388    1.362   .     A
C351   N387    1.364   .     A
C351   C353    1.405   .     A
C351   H383    1.079   .     S
C352   N388    1.362   .     A
C352   C354    1.405   .     A
C352   H384    1.082   .     S
C353   C355    1.407   .     A
C353   H385    1.083   .     S
C354   H386    1.082   .     S
C354   C356    1.408   .     A
C355   C872    1.510   1_554 S
C356   C871    1.510   .     S
C357   O395    1.277   .     A
C357   O393    1.273   .     A
C357   C359    1.400   .     S
C358   O396    1.277   .     A
C358   C360    1.401   .     S
C358   O394    1.274   .     A
C360   C445    1.330   .     S
C360   H460    1.088   .     S
C361   C371    1.399   .     A
C361   H375    1.083   .     S
C361   C363    1.380   .     A
C362   C372    1.397   .     A
C362   H376    1.084   .     S
C362   C364    1.378   .     A
C363   C365    1.394   .     A
C363   H377    1.084   .     S
C364   H378    1.083   .     S
C364   C366    1.401   .     A
C365   C367    1.399   .     A
C366   C368    1.412   .     A
C367   O399    1.385   .     S
C367   C369    1.389   .     A
C368   C370    1.386   .     A
C368   O407    1.383   .     S
C369   H379    1.083   .     S
C369   C371    1.402   .     A
C370   H380    1.084   .     S
C370   C372    1.398   .     A
C372   C113    1.446   1_565 S
H373   C445    1.087   .     S
N387   Zn398   2.002   .     S
N388   Zn397   2.002   .     S
O389   Zn397   1.999   .     S
O390   Zn398   1.999   .     S
O391   Zn398   1.996   .     S
O392   Zn397   1.996   .     S
O393   Zn397   1.965   .     S
O394   Zn398   1.965   .     S
O395   Zn398   1.979   .     S
O396   Zn397   1.979   .     S
O399   C400    1.412   .     S
C400   H401    1.116   .     S
C400   C403    1.521   .     S
C400   H402    1.112   .     S
C403   H404    1.111   .     S
C403   H405    1.110   .     S
C403   H406    1.110   .     S
O407   C408    1.413   .     S
C408   C411    1.522   .     S
C408   H410    1.114   .     S
C408   H409    1.116   .     S
C411   H412    1.111   .     S
C411   H413    1.110   .     S
C411   H414    1.110   .     S
O415   C416    1.412   .     S
C416   H418    1.113   .     S
C416   H933    1.115   1_554 S
C416   C935    1.521   1_554 S
H417   C932    1.115   .     S
C419   H422    1.111   .     S
C419   C932    1.521   .     S
H420   C505    1.111   .     S
H421   C505    1.110   .     S
O423   C424    1.411   .     S
C424   H426    1.113   .     S
C424   H425    1.115   .     S
C424   C943    1.520   .     S
C427   H430    1.111   .     S
C427   C940    1.520   1_554 S
C427   H944    1.111   1_554 S
C427   H945    1.110   1_554 S
H428   C943    1.111   .     S
H429   C943    1.110   .     S
C431   C451    1.424   .     S
C431   O477    1.281   .     A
C431   O475    1.281   .     A
C432   O476    1.288   .     A
C432   C452    1.445   .     S
C432   O478    1.285   .     A
C433   O501    1.382   .     S
C433   C435    1.412   .     A
C433   C441    1.416   .     A
C434   C442    1.414   .     A
C434   O509    1.382   .     S
C434   C436    1.414   .     A
C435   H467    1.081   .     S
C435   N473    1.365   .     A
C436   H468    1.082   .     S
C436   N474    1.362   .     A
C437   N473    1.364   .     A
C437   C439    1.405   .     A
C437   H469    1.079   .     S
C438   N474    1.362   .     A
C438   C440    1.405   .     A
C438   H470    1.082   .     S
C439   C441    1.407   .     A
C439   H471    1.083   .     S
C440   H472    1.082   .     S
C440   C442    1.408   .     A
C441   C958    1.510   1_554 S
C442   C957    1.510   .     S
C443   O481    1.277   .     A
C443   O479    1.273   .     A
C443   C445    1.400   .     S
C444   O482    1.277   .     A
C444   C446    1.401   .     S
C444   O480    1.274   .     A
C446   C273    1.330   1_655 S
C446   H288    1.088   1_655 S
C447   C457    1.399   .     A
C447   H461    1.083   .     S
C447   C449    1.380   .     A
C448   C458    1.397   .     A
C448   H462    1.084   .     S
C448   C450    1.378   .     A
C449   C451    1.394   .     A
C449   H463    1.084   .     S
C450   H464    1.083   .     S
C450   C452    1.401   .     A
C451   C453    1.399   .     A
C452   C454    1.412   .     A
C453   O485    1.385   .     S
C453   C455    1.389   .     A
C454   C456    1.386   .     A
C454   O493    1.383   .     S
C455   H465    1.083   .     S
C455   C457    1.402   .     A
C456   H466    1.084   .     S
C456   C458    1.398   .     A
C458   C199    1.446   1_565 S
H459   C273    1.087   1_655 S
N473   Zn484   2.002   .     S
N474   Zn483   2.002   .     S
O475   Zn483   1.999   .     S
O476   Zn484   1.999   .     S
O477   Zn484   1.996   .     S
O478   Zn483   1.996   .     S
O479   Zn483   1.965   .     S
O480   Zn484   1.965   .     S
O481   Zn484   1.979   .     S
O482   Zn483   1.979   .     S
O485   C486    1.412   .     S
C486   H487    1.116   .     S
C486   C489    1.521   .     S
C486   H488    1.112   .     S
C489   H490    1.111   .     S
C489   H491    1.110   .     S
C489   H492    1.110   .     S
O493   C494    1.413   .     S
C494   C497    1.522   .     S
C494   H496    1.114   .     S
C494   H495    1.116   .     S
C497   H498    1.111   .     S
C497   H499    1.110   .     S
C497   H500    1.110   .     S
O501   C502    1.412   .     S
C502   H504    1.113   .     S
C502   H1019   1.115   1_554 S
C502   C1021   1.521   1_554 S
H503   C1018   1.115   .     S
C505   H508    1.111   .     S
C505   C1018   1.521   .     S
H506   C333    1.111   1_655 S
H507   C333    1.110   1_655 S
O509   C510    1.411   .     S
C510   H512    1.113   .     S
C510   H511    1.115   .     S
C510   C1029   1.520   .     S
C513   H516    1.111   .     S
C513   C1026   1.520   1_554 S
C513   H1030   1.111   1_554 S
C513   H1031   1.110   1_554 S
H514   C1029   1.111   .     S
H515   C1029   1.110   .     S
C517   C537    1.424   .     S
C517   O563    1.281   .     A
C517   O561    1.281   .     A
C518   O562    1.288   .     A
C518   C538    1.445   .     S
C518   O564    1.285   .     A
C519   O587    1.382   .     S
C519   C521    1.412   .     A
C519   C527    1.416   .     A
C520   C528    1.414   .     A
C520   O595    1.382   .     S
C520   C522    1.414   .     A
C521   H553    1.081   .     S
C521   N559    1.365   .     A
C522   H554    1.082   .     S
C522   N560    1.362   .     A
C523   N559    1.364   .     A
C523   C525    1.405   .     A
C523   H555    1.079   .     S
C524   N560    1.362   .     A
C524   C526    1.405   .     A
C524   H556    1.082   .     S
C525   C527    1.407   .     A
C525   H557    1.083   .     S
C526   H558    1.082   .     S
C526   C528    1.408   .     A
C528   C11     1.510   1_556 S
C529   O567    1.277   .     A
C529   O565    1.273   .     A
C529   C531    1.400   .     S
C530   O568    1.277   .     A
C530   C532    1.401   .     S
C530   O566    1.274   .     A
C531   C704    1.330   1_455 S
C531   H717    1.087   1_455 S
C532   C617    1.330   .     S
C532   H632    1.088   .     S
C533   C543    1.399   .     A
C533   H547    1.083   .     S
C533   C535    1.380   .     A
C534   C544    1.397   .     A
C534   H548    1.084   .     S
C534   C536    1.378   .     A
C535   C537    1.394   .     A
C535   H549    1.084   .     S
C536   H550    1.083   .     S
C536   C538    1.401   .     A
C537   C539    1.399   .     A
C538   C540    1.412   .     A
C539   O571    1.385   .     S
C539   C541    1.389   .     A
C540   C542    1.386   .     A
C540   O579    1.383   .     S
C541   H551    1.083   .     S
C541   C543    1.402   .     A
C542   H552    1.084   .     S
C542   C544    1.398   .     A
C543   C802    1.446   1_545 S
C544   C801    1.446   .     S
H545   C617    1.087   .     S
H546   C704    1.088   1_455 S
N559   Zn570   2.002   .     S
N560   Zn569   2.002   .     S
O561   Zn569   1.999   .     S
O562   Zn570   1.999   .     S
O563   Zn570   1.996   .     S
O564   Zn569   1.996   .     S
O565   Zn569   1.965   .     S
O566   Zn570   1.965   .     S
O567   Zn570   1.979   .     S
O568   Zn569   1.979   .     S
O571   C572    1.412   .     S
C572   H573    1.116   .     S
C572   C575    1.521   .     S
C572   H574    1.112   .     S
C575   H576    1.111   .     S
C575   H577    1.110   .     S
C575   H578    1.110   .     S
O579   C580    1.413   .     S
C580   C583    1.522   .     S
C580   H582    1.114   .     S
C580   H581    1.116   .     S
C583   H584    1.111   .     S
C583   H585    1.110   .     S
C583   H586    1.110   .     S
O587   C588    1.412   .     S
C588   H590    1.113   .     S
H589   C72     1.115   1_556 S
C591   H594    1.111   .     S
C591   C72     1.521   1_556 S
C591   H764    1.111   1_455 S
C591   H765    1.110   1_455 S
H592   C677    1.111   .     S
H593   C677    1.110   .     S
O595   C596    1.411   .     S
C596   H598    1.113   .     S
C596   H597    1.115   .     S
C596   C83     1.520   1_556 S
C599   H602    1.111   .     S
H600   C83     1.111   1_556 S
H601   C83     1.110   1_556 S
C603   C623    1.424   .     S
C603   O649    1.281   .     A
C603   O647    1.281   .     A
C604   O648    1.288   .     A
C604   C624    1.445   .     S
C604   O650    1.285   .     A
C605   O673    1.382   .     S
C605   C607    1.412   .     A
C605   C613    1.416   .     A
C606   C614    1.414   .     A
C606   O681    1.382   .     S
C606   C608    1.414   .     A
C607   H639    1.081   .     S
C607   N645    1.365   .     A
C608   H640    1.082   .     S
C608   N646    1.362   .     A
C609   N645    1.364   .     A
C609   C611    1.405   .     A
C609   H641    1.079   .     S
C610   N646    1.362   .     A
C610   C612    1.405   .     A
C610   H642    1.082   .     S
C611   C613    1.407   .     A
C611   H643    1.083   .     S
C612   H644    1.082   .     S
C612   C614    1.408   .     A
C614   C97     1.510   1_556 S
C615   O653    1.277   .     A
C615   O651    1.273   .     A
C615   C617    1.400   .     S
C616   O654    1.277   .     A
C616   C618    1.401   .     S
C616   O652    1.274   .     A
C618   C703    1.330   .     S
C618   H718    1.088   .     S
C619   C629    1.399   .     A
C619   H633    1.083   .     S
C619   C621    1.380   .     A
C620   C630    1.397   .     A
C620   H634    1.084   .     S
C620   C622    1.378   .     A
C621   C623    1.394   .     A
C621   H635    1.084   .     S
C622   H636    1.083   .     S
C622   C624    1.401   .     A
C623   C625    1.399   .     A
C624   C626    1.412   .     A
C625   O657    1.385   .     S
C625   C627    1.389   .     A
C626   C628    1.386   .     A
C626   O665    1.383   .     S
C627   H637    1.083   .     S
C627   C629    1.402   .     A
C628   H638    1.084   .     S
C628   C630    1.398   .     A
C629   C888    1.446   1_545 S
C630   C887    1.446   .     S
H631   C703    1.087   .     S
N645   Zn656   2.002   .     S
N646   Zn655   2.002   .     S
O647   Zn655   1.999   .     S
O648   Zn656   1.999   .     S
O649   Zn656   1.996   .     S
O650   Zn655   1.996   .     S
O651   Zn655   1.965   .     S
O652   Zn656   1.965   .     S
O653   Zn656   1.979   .     S
O654   Zn655   1.979   .     S
O657   C658    1.412   .     S
C658   H659    1.116   .     S
C658   C661    1.521   .     S
C658   H660    1.112   .     S
C661   H662    1.111   .     S
C661   H663    1.110   .     S
C661   H664    1.110   .     S
O665   C666    1.413   .     S
C666   C669    1.522   .     S
C666   H668    1.114   .     S
C666   H667    1.116   .     S
C669   H670    1.111   .     S
C669   H671    1.110   .     S
C669   H672    1.110   .     S
O673   C674    1.412   .     S
C674   H676    1.113   .     S
H675   C158    1.115   1_556 S
C677   H680    1.111   .     S
C677   C158    1.521   1_556 S
H678   C763    1.111   .     S
H679   C763    1.110   .     S
O681   C682    1.411   .     S
C682   H684    1.113   .     S
C682   H683    1.115   .     S
C682   C169    1.520   1_556 S
C685   H688    1.111   .     S
H686   C169    1.111   1_556 S
H687   C169    1.110   1_556 S
C689   C709    1.424   .     S
C689   O735    1.281   .     A
C689   O733    1.281   .     A
C690   O734    1.288   .     A
C690   C710    1.445   .     S
C690   O736    1.285   .     A
C691   O759    1.382   .     S
C691   C693    1.412   .     A
C691   C699    1.416   .     A
C692   C700    1.414   .     A
C692   O767    1.382   .     S
C692   C694    1.414   .     A
C693   H725    1.081   .     S
C693   N731    1.365   .     A
C694   H726    1.082   .     S
C694   N732    1.362   .     A
C695   N731    1.364   .     A
C695   C697    1.405   .     A
C695   H727    1.079   .     S
C696   N732    1.362   .     A
C696   C698    1.405   .     A
C696   H728    1.082   .     S
C697   C699    1.407   .     A
C697   H729    1.083   .     S
C698   H730    1.082   .     S
C698   C700    1.408   .     A
C700   C183    1.510   1_556 S
C701   O739    1.277   .     A
C701   O737    1.273   .     A
C701   C703    1.400   .     S
C702   O740    1.277   .     A
C702   C704    1.401   .     S
C702   O738    1.274   .     A
C704   C531    1.330   1_655 S
C704   H546    1.088   1_655 S
C705   C715    1.399   .     A
C705   H719    1.083   .     S
C705   C707    1.380   .     A
C706   C716    1.397   .     A
C706   H720    1.084   .     S
C706   C708    1.378   .     A
C707   C709    1.394   .     A
C707   H721    1.084   .     S
C708   H722    1.083   .     S
C708   C710    1.401   .     A
C709   C711    1.399   .     A
C710   C712    1.412   .     A
C711   O743    1.385   .     S
C711   C713    1.389   .     A
C712   C714    1.386   .     A
C712   O751    1.383   .     S
C713   H723    1.083   .     S
C713   C715    1.402   .     A
C714   H724    1.084   .     S
C714   C716    1.398   .     A
C715   C974    1.446   1_545 S
C716   C973    1.446   .     S
H717   C531    1.087   1_655 S
N731   Zn742   2.002   .     S
N732   Zn741   2.002   .     S
O733   Zn741   1.999   .     S
O734   Zn742   1.999   .     S
O735   Zn742   1.996   .     S
O736   Zn741   1.996   .     S
O737   Zn741   1.965   .     S
O738   Zn742   1.965   .     S
O739   Zn742   1.979   .     S
O740   Zn741   1.979   .     S
O743   C744    1.412   .     S
C744   H745    1.116   .     S
C744   C747    1.521   .     S
C744   H746    1.112   .     S
C747   H748    1.111   .     S
C747   H749    1.110   .     S
C747   H750    1.110   .     S
O751   C752    1.413   .     S
C752   C755    1.522   .     S
C752   H754    1.114   .     S
C752   H753    1.116   .     S
C755   H756    1.111   .     S
C755   H757    1.110   .     S
C755   H758    1.110   .     S
O759   C760    1.412   .     S
C760   H762    1.113   .     S
H761   C244    1.115   1_556 S
C763   H766    1.111   .     S
C763   C244    1.521   1_556 S
H764   C591    1.111   1_655 S
H765   C591    1.110   1_655 S
O767   C768    1.411   .     S
C768   H770    1.113   .     S
C768   H769    1.115   .     S
C768   C255    1.520   1_556 S
C771   H774    1.111   .     S
H772   C255    1.111   1_556 S
H773   C255    1.110   1_556 S
C775   C795    1.424   .     S
C775   O821    1.281   .     A
C775   O819    1.281   .     A
C776   O820    1.288   .     A
C776   C796    1.445   .     S
C776   O822    1.285   .     A
C777   O845    1.382   .     S
C777   C779    1.412   .     A
C777   C785    1.416   .     A
C778   C786    1.414   .     A
C778   O853    1.382   .     S
C778   C780    1.414   .     A
C779   H811    1.081   .     S
C779   N817    1.365   .     A
C780   H812    1.082   .     S
C780   N818    1.362   .     A
C781   N817    1.364   .     A
C781   C783    1.405   .     A
C781   H813    1.079   .     S
C782   N818    1.362   .     A
C782   C784    1.405   .     A
C782   H814    1.082   .     S
C783   C785    1.407   .     A
C783   H815    1.083   .     S
C784   H816    1.082   .     S
C784   C786    1.408   .     A
C786   C269    1.510   1_556 S
C787   O825    1.277   .     A
C787   O823    1.273   .     A
C787   C789    1.400   .     S
C788   O826    1.277   .     A
C788   C790    1.401   .     S
C788   O824    1.274   .     A
C789   C962    1.330   1_455 S
C789   H975    1.087   1_455 S
C790   C875    1.330   .     S
C790   H890    1.088   .     S
C791   C801    1.399   .     A
C791   H805    1.083   .     S
C791   C793    1.380   .     A
C792   C802    1.397   .     A
C792   H806    1.084   .     S
C792   C794    1.378   .     A
C793   C795    1.394   .     A
C793   H807    1.084   .     S
C794   H808    1.083   .     S
C794   C796    1.401   .     A
C795   C797    1.399   .     A
C796   C798    1.412   .     A
C797   O829    1.385   .     S
C797   C799    1.389   .     A
C798   C800    1.386   .     A
C798   O837    1.383   .     S
C799   H809    1.083   .     S
C799   C801    1.402   .     A
C800   H810    1.084   .     S
C800   C802    1.398   .     A
C802   C543    1.446   1_565 S
H803   C875    1.087   .     S
H804   C962    1.088   1_455 S
N817   Zn828   2.002   .     S
N818   Zn827   2.002   .     S
O819   Zn827   1.999   .     S
O820   Zn828   1.999   .     S
O821   Zn828   1.996   .     S
O822   Zn827   1.996   .     S
O823   Zn827   1.965   .     S
O824   Zn828   1.965   .     S
O825   Zn828   1.979   .     S
O826   Zn827   1.979   .     S
O829   C830    1.412   .     S
C830   H831    1.116   .     S
C830   C833    1.521   .     S
C830   H832    1.112   .     S
C833   H834    1.111   .     S
C833   H835    1.110   .     S
C833   H836    1.110   .     S
O837   C838    1.413   .     S
C838   C841    1.522   .     S
C838   H840    1.114   .     S
C838   H839    1.116   .     S
C841   H842    1.111   .     S
C841   H843    1.110   .     S
C841   H844    1.110   .     S
O845   C846    1.412   .     S
C846   H848    1.113   .     S
H847   C330    1.115   1_556 S
C849   H852    1.111   .     S
C849   C330    1.521   1_556 S
C849   H1022   1.111   1_455 S
C849   H1023   1.110   1_455 S
H850   C935    1.111   .     S
H851   C935    1.110   .     S
O853   C854    1.411   .     S
C854   H856    1.113   .     S
C854   H855    1.115   .     S
C854   C341    1.520   1_556 S
C857   H860    1.111   .     S
H858   C341    1.111   1_556 S
H859   C341    1.110   1_556 S
C861   C881    1.424   .     S
C861   O907    1.281   .     A
C861   O905    1.281   .     A
C862   O906    1.288   .     A
C862   C882    1.445   .     S
C862   O908    1.285   .     A
C863   O931    1.382   .     S
C863   C865    1.412   .     A
C863   C871    1.416   .     A
C864   C872    1.414   .     A
C864   O939    1.382   .     S
C864   C866    1.414   .     A
C865   H897    1.081   .     S
C865   N903    1.365   .     A
C866   H898    1.082   .     S
C866   N904    1.362   .     A
C867   N903    1.364   .     A
C867   C869    1.405   .     A
C867   H899    1.079   .     S
C868   N904    1.362   .     A
C868   C870    1.405   .     A
C868   H900    1.082   .     S
C869   C871    1.407   .     A
C869   H901    1.083   .     S
C870   H902    1.082   .     S
C870   C872    1.408   .     A
C872   C355    1.510   1_556 S
C873   O911    1.277   .     A
C873   O909    1.273   .     A
C873   C875    1.400   .     S
C874   O912    1.277   .     A
C874   C876    1.401   .     S
C874   O910    1.274   .     A
C876   C961    1.330   .     S
C876   H976    1.088   .     S
C877   C887    1.399   .     A
C877   H891    1.083   .     S
C877   C879    1.380   .     A
C878   C888    1.397   .     A
C878   H892    1.084   .     S
C878   C880    1.378   .     A
C879   C881    1.394   .     A
C879   H893    1.084   .     S
C880   H894    1.083   .     S
C880   C882    1.401   .     A
C881   C883    1.399   .     A
C882   C884    1.412   .     A
C883   O915    1.385   .     S
C883   C885    1.389   .     A
C884   C886    1.386   .     A
C884   O923    1.383   .     S
C885   H895    1.083   .     S
C885   C887    1.402   .     A
C886   H896    1.084   .     S
C886   C888    1.398   .     A
C888   C629    1.446   1_565 S
H889   C961    1.087   .     S
N903   Zn914   2.002   .     S
N904   Zn913   2.002   .     S
O905   Zn913   1.999   .     S
O906   Zn914   1.999   .     S
O907   Zn914   1.996   .     S
O908   Zn913   1.996   .     S
O909   Zn913   1.965   .     S
O910   Zn914   1.965   .     S
O911   Zn914   1.979   .     S
O912   Zn913   1.979   .     S
O915   C916    1.412   .     S
C916   H917    1.116   .     S
C916   C919    1.521   .     S
C916   H918    1.112   .     S
C919   H920    1.111   .     S
C919   H921    1.110   .     S
C919   H922    1.110   .     S
O923   C924    1.413   .     S
C924   C927    1.522   .     S
C924   H926    1.114   .     S
C924   H925    1.116   .     S
C927   H928    1.111   .     S
C927   H929    1.110   .     S
C927   H930    1.110   .     S
O931   C932    1.412   .     S
C932   H934    1.113   .     S
H933   C416    1.115   1_556 S
C935   H938    1.111   .     S
C935   C416    1.521   1_556 S
H936   C1021   1.111   .     S
H937   C1021   1.110   .     S
O939   C940    1.411   .     S
C940   H942    1.113   .     S
C940   H941    1.115   .     S
C940   C427    1.520   1_556 S
C943   H946    1.111   .     S
H944   C427    1.111   1_556 S
H945   C427    1.110   1_556 S
C947   C967    1.424   .     S
C947   O993    1.281   .     A
C947   O991    1.281   .     A
C948   O992    1.288   .     A
C948   C968    1.445   .     S
C948   O994    1.285   .     A
C949   O1017   1.382   .     S
C949   C951    1.412   .     A
C949   C957    1.416   .     A
C950   C958    1.414   .     A
C950   O1025   1.382   .     S
C950   C952    1.414   .     A
C951   H983    1.081   .     S
C951   N989    1.365   .     A
C952   H984    1.082   .     S
C952   N990    1.362   .     A
C953   N989    1.364   .     A
C953   C955    1.405   .     A
C953   H985    1.079   .     S
C954   N990    1.362   .     A
C954   C956    1.405   .     A
C954   H986    1.082   .     S
C955   C957    1.407   .     A
C955   H987    1.083   .     S
C956   H988    1.082   .     S
C956   C958    1.408   .     A
C958   C441    1.510   1_556 S
C959   O997    1.277   .     A
C959   O995    1.273   .     A
C959   C961    1.400   .     S
C960   O998    1.277   .     A
C960   C962    1.401   .     S
C960   O996    1.274   .     A
C962   C789    1.330   1_655 S
C962   H804    1.088   1_655 S
C963   C973    1.399   .     A
C963   H977    1.083   .     S
C963   C965    1.380   .     A
C964   C974    1.397   .     A
C964   H978    1.084   .     S
C964   C966    1.378   .     A
C965   C967    1.394   .     A
C965   H979    1.084   .     S
C966   H980    1.083   .     S
C966   C968    1.401   .     A
C967   C969    1.399   .     A
C968   C970    1.412   .     A
C969   O1001   1.385   .     S
C969   C971    1.389   .     A
C970   C972    1.386   .     A
C970   O1009   1.383   .     S
C971   H981    1.083   .     S
C971   C973    1.402   .     A
C972   H982    1.084   .     S
C972   C974    1.398   .     A
C974   C715    1.446   1_565 S
H975   C789    1.087   1_655 S
N989   Zn1000  2.002   .     S
N990   Zn999   2.002   .     S
O991   Zn999   1.999   .     S
O992   Zn1000  1.999   .     S
O993   Zn1000  1.996   .     S
O994   Zn999   1.996   .     S
O995   Zn999   1.965   .     S
O996   Zn1000  1.965   .     S
O997   Zn1000  1.979   .     S
O998   Zn999   1.979   .     S
O1001  C1002   1.412   .     S
C1002  H1003   1.116   .     S
C1002  C1005   1.521   .     S
C1002  H1004   1.112   .     S
C1005  H1006   1.111   .     S
C1005  H1007   1.110   .     S
C1005  H1008   1.110   .     S
O1009  C1010   1.413   .     S
C1010  C1013   1.522   .     S
C1010  H1012   1.114   .     S
C1010  H1011   1.116   .     S
C1013  H1014   1.111   .     S
C1013  H1015   1.110   .     S
C1013  H1016   1.110   .     S
O1017  C1018   1.412   .     S
C1018  H1020   1.113   .     S
H1019  C502    1.115   1_556 S
C1021  H1024   1.111   .     S
C1021  C502    1.521   1_556 S
H1022  C849    1.111   1_655 S
H1023  C849    1.110   1_655 S
O1025  C1026   1.411   .     S
C1026  H1028   1.113   .     S
C1026  H1027   1.115   .     S
C1026  C513    1.520   1_556 S
C1029  H1032   1.111   .     S
H1030  C513    1.111   1_556 S
H1031  C513    1.110   1_556 S
