data_str_m2_o10_o18_pcu_sym.164
_audit_creation_date              2020-01-03
_audit_creation_method            'Materials Studio'
_symmetry_space_group_name_H-M    'P1'
_symmetry_Int_Tables_number       1
_symmetry_cell_setting            triclinic
loop_
_symmetry_equiv_pos_as_xyz
  x,y,z
_cell_length_a                    21.9926
_cell_length_b                    27.5138
_cell_length_c                    33.6537
_cell_angle_alpha                 85.8851
_cell_angle_beta                  87.3821
_cell_angle_gamma                 101.8666
loop_
_atom_site_label
_atom_site_type_symbol
_atom_site_fract_x
_atom_site_fract_y
_atom_site_fract_z
_atom_site_U_iso_or_equiv
_atom_site_adp_type
_atom_site_occupancy
C1     C     0.18063   0.26632   0.25143   0.00000  Uiso   1.00
C2     C     0.15271   0.06701   0.24857   0.00000  Uiso   1.00
C3     C     0.09158   0.15177   0.02809   0.00000  Uiso   1.00
C4     C     0.24412   0.18082   0.47102   0.00000  Uiso   1.00
C5     C     0.04910   0.13854   0.00104   0.00000  Uiso   1.00
C6     C     0.28593   0.19339   0.49863   0.00000  Uiso   1.00
C7     C     0.18906   0.32044   0.25326   0.00000  Uiso   1.00
C8     C     0.14427   0.01290   0.24674   0.00000  Uiso   1.00
C9     C     0.12955   0.16387   0.33205   0.00000  Uiso   1.00
C10    C     0.20388   0.16994   0.16789   0.00000  Uiso   1.00
C11    C     0.10479   0.16187   0.37638   0.00000  Uiso   1.00
C12    C     0.22885   0.17250   0.12354   0.00000  Uiso   1.00
C13    C     0.02154   0.13320   0.43138   0.00000  Uiso   1.00
C14    C     0.31106   0.19996   0.06848   0.00000  Uiso   1.00
C15    C     0.04048   0.14714   0.39147   0.00000  Uiso   1.00
C16    C     0.29307   0.18737   0.10853   0.00000  Uiso   1.00
C17    C     0.14882   0.17135   0.40637   0.00000  Uiso   1.00
C18    C     0.18503   0.16305   0.09332   0.00000  Uiso   1.00
C19    C     0.13257   0.16026   0.44872   0.00000  Uiso   1.00
C20    C     0.20171   0.17292   0.05072   0.00000  Uiso   1.00
C21    C     0.06767   0.14190   0.46043   0.00000  Uiso   1.00
C22    C     0.26625   0.19074   0.03911   0.00000  Uiso   1.00
C23    C     0.17871   0.16752   0.47927   0.00000  Uiso   1.00
C24    C     0.15651   0.16526   0.01991   0.00000  Uiso   1.00
Cu25   Cu    0.10737   0.16108   0.24517   0.00000  Uiso   1.00
Cu26   Cu    0.22596   0.17225   0.25484   0.00000  Uiso   1.00
H27    H     0.00251   0.12621   0.01301   0.00000  Uiso   1.00
H28    H     0.33259   0.20546   0.48698   0.00000  Uiso   1.00
H29    H     0.13662   0.14721   0.10222   0.00000  Uiso   1.00
H30    H     0.19724   0.18781   0.39771   0.00000  Uiso   1.00
H31    H     0.07181   0.14019   0.05832   0.00000  Uiso   1.00
H32    H     0.26456   0.19166   0.44081   0.00000  Uiso   1.00
H33    H     0.23407   0.00567   0.26055   0.00000  Uiso   1.00
H34    H     0.09927   0.32766   0.23945   0.00000  Uiso   1.00
H35    H     0.00692   0.21289   0.26872   0.00000  Uiso   1.00
H36    H     0.32644   0.12016   0.23170   0.00000  Uiso   1.00
N37    N     0.31506   0.18068   0.26212   0.00000  Uiso   1.00
N38    N     0.01827   0.15265   0.23788   0.00000  Uiso   1.00
O39    O     0.12815   0.23809   0.24686   0.00000  Uiso   1.00
O40    O     0.20518   0.09524   0.25314   0.00000  Uiso   1.00
O41    O     0.22829   0.24753   0.25503   0.00000  Uiso   1.00
O42    O     0.10504   0.08580   0.24498   0.00000  Uiso   1.00
O43    O     0.08851   0.15930   0.30855   0.00000  Uiso   1.00
O44    O     0.24482   0.17403   0.19146   0.00000  Uiso   1.00
O45    O     0.18866   0.16874   0.31671   0.00000  Uiso   1.00
O46    O     0.14468   0.16460   0.18329   0.00000  Uiso   1.00
O47    O     0.00637   0.18201   0.13203   0.00000  Uiso   1.00
C48    C     0.01446   0.21456   0.15956   0.00000  Uiso   1.00
H49    H     0.00688   0.18466   0.18036   0.00000  Uiso   1.00
H50    H     0.31279   0.24062   0.15836   0.00000  Uiso   1.00
H51    H     0.06179   0.23358   0.16633   0.00000  Uiso   1.00
O52    O     0.32828   0.15105   0.36691   0.00000  Uiso   1.00
C53    C     0.31980   0.11495   0.34186   0.00000  Uiso   1.00
H54    H     0.02385   0.09035   0.34360   0.00000  Uiso   1.00
H55    H     0.32550   0.14258   0.31915   0.00000  Uiso   1.00
H56    H     0.27287   0.09376   0.33476   0.00000  Uiso   1.00
O57    O     0.29040   0.11673   0.44369   0.00000  Uiso   1.00
C58    C     0.23444   0.10080   0.42226   0.00000  Uiso   1.00
H59    H     0.21849   0.06503   0.43822   0.00000  Uiso   1.00
H60    H     0.25203   0.10350   0.39466   0.00000  Uiso   1.00
H61    H     0.21211   0.08893   0.39685   0.00000  Uiso   1.00
O62    O     0.04056   0.21159   0.05597   0.00000  Uiso   1.00
C63    C     0.09640   0.23303   0.07453   0.00000  Uiso   1.00
H64    H     0.07960   0.24624   0.10219   0.00000  Uiso   1.00
H65    H     0.10855   0.26762   0.05678   0.00000  Uiso   1.00
H66    H     0.12919   0.24008   0.09960   0.00000  Uiso   1.00
C67    C     0.51396   0.26632   0.25143   0.00000  Uiso   1.00
C68    C     0.48604   0.06701   0.24857   0.00000  Uiso   1.00
C69    C     0.42491   0.15177   0.02809   0.00000  Uiso   1.00
C70    C     0.57745   0.18082   0.47102   0.00000  Uiso   1.00
C71    C     0.38244   0.13854   0.00104   0.00000  Uiso   1.00
C72    C     0.61927   0.19339   0.49863   0.00000  Uiso   1.00
C73    C     0.52239   0.32044   0.25326   0.00000  Uiso   1.00
C74    C     0.47761   0.01290   0.24674   0.00000  Uiso   1.00
C75    C     0.46288   0.16387   0.33205   0.00000  Uiso   1.00
C76    C     0.53721   0.16994   0.16789   0.00000  Uiso   1.00
C77    C     0.43812   0.16187   0.37638   0.00000  Uiso   1.00
C78    C     0.56219   0.17250   0.12354   0.00000  Uiso   1.00
C79    C     0.35488   0.13320   0.43138   0.00000  Uiso   1.00
C80    C     0.64439   0.19996   0.06848   0.00000  Uiso   1.00
C81    C     0.37381   0.14714   0.39147   0.00000  Uiso   1.00
C82    C     0.62640   0.18737   0.10853   0.00000  Uiso   1.00
C83    C     0.48215   0.17135   0.40637   0.00000  Uiso   1.00
C84    C     0.51837   0.16305   0.09332   0.00000  Uiso   1.00
C85    C     0.46590   0.16026   0.44872   0.00000  Uiso   1.00
C86    C     0.53504   0.17292   0.05072   0.00000  Uiso   1.00
C87    C     0.40100   0.14190   0.46043   0.00000  Uiso   1.00
C88    C     0.59958   0.19074   0.03911   0.00000  Uiso   1.00
C89    C     0.51204   0.16752   0.47927   0.00000  Uiso   1.00
C90    C     0.48984   0.16526   0.01991   0.00000  Uiso   1.00
Cu91   Cu    0.44071   0.16108   0.24517   0.00000  Uiso   1.00
Cu92   Cu    0.55929   0.17225   0.25484   0.00000  Uiso   1.00
H93    H     0.33585   0.12621   0.01301   0.00000  Uiso   1.00
H94    H     0.66592   0.20546   0.48698   0.00000  Uiso   1.00
H95    H     0.46995   0.14721   0.10222   0.00000  Uiso   1.00
H96    H     0.53057   0.18781   0.39771   0.00000  Uiso   1.00
H97    H     0.40515   0.14019   0.05832   0.00000  Uiso   1.00
H98    H     0.59790   0.19166   0.44081   0.00000  Uiso   1.00
H99    H     0.56740   0.00567   0.26055   0.00000  Uiso   1.00
H100   H     0.43260   0.32766   0.23945   0.00000  Uiso   1.00
H101   H     0.34025   0.21289   0.26872   0.00000  Uiso   1.00
H102   H     0.65977   0.12016   0.23170   0.00000  Uiso   1.00
N103   N     0.64839   0.18068   0.26212   0.00000  Uiso   1.00
N104   N     0.35161   0.15265   0.23788   0.00000  Uiso   1.00
O105   O     0.46148   0.23809   0.24686   0.00000  Uiso   1.00
O106   O     0.53852   0.09524   0.25314   0.00000  Uiso   1.00
O107   O     0.56163   0.24753   0.25503   0.00000  Uiso   1.00
O108   O     0.43837   0.08580   0.24498   0.00000  Uiso   1.00
O109   O     0.42185   0.15930   0.30855   0.00000  Uiso   1.00
O110   O     0.57815   0.17403   0.19146   0.00000  Uiso   1.00
O111   O     0.52199   0.16874   0.31671   0.00000  Uiso   1.00
O112   O     0.47801   0.16460   0.18329   0.00000  Uiso   1.00
O113   O     0.33970   0.18201   0.13203   0.00000  Uiso   1.00
C114   C     0.34780   0.21456   0.15956   0.00000  Uiso   1.00
H115   H     0.34021   0.18466   0.18036   0.00000  Uiso   1.00
H116   H     0.64613   0.24062   0.15836   0.00000  Uiso   1.00
H117   H     0.39513   0.23358   0.16633   0.00000  Uiso   1.00
O118   O     0.66161   0.15105   0.36691   0.00000  Uiso   1.00
C119   C     0.65313   0.11495   0.34186   0.00000  Uiso   1.00
H120   H     0.35719   0.09035   0.34360   0.00000  Uiso   1.00
H121   H     0.65883   0.14258   0.31915   0.00000  Uiso   1.00
H122   H     0.60621   0.09376   0.33476   0.00000  Uiso   1.00
O123   O     0.62373   0.11673   0.44369   0.00000  Uiso   1.00
C124   C     0.56778   0.10080   0.42226   0.00000  Uiso   1.00
H125   H     0.55182   0.06503   0.43822   0.00000  Uiso   1.00
H126   H     0.58537   0.10350   0.39466   0.00000  Uiso   1.00
H127   H     0.54545   0.08893   0.39685   0.00000  Uiso   1.00
O128   O     0.37389   0.21159   0.05597   0.00000  Uiso   1.00
C129   C     0.42974   0.23303   0.07453   0.00000  Uiso   1.00
H130   H     0.41293   0.24624   0.10219   0.00000  Uiso   1.00
H131   H     0.44189   0.26762   0.05678   0.00000  Uiso   1.00
H132   H     0.46253   0.24008   0.09960   0.00000  Uiso   1.00
C133   C     0.84729   0.26632   0.25143   0.00000  Uiso   1.00
C134   C     0.81937   0.06701   0.24857   0.00000  Uiso   1.00
C135   C     0.75825   0.15177   0.02809   0.00000  Uiso   1.00
C136   C     0.91078   0.18082   0.47102   0.00000  Uiso   1.00
C137   C     0.71577   0.13854   0.00104   0.00000  Uiso   1.00
C138   C     0.95260   0.19339   0.49863   0.00000  Uiso   1.00
C139   C     0.85573   0.32044   0.25326   0.00000  Uiso   1.00
C140   C     0.81094   0.01290   0.24674   0.00000  Uiso   1.00
C141   C     0.79621   0.16387   0.33205   0.00000  Uiso   1.00
C142   C     0.87055   0.16994   0.16789   0.00000  Uiso   1.00
C143   C     0.77146   0.16187   0.37638   0.00000  Uiso   1.00
C144   C     0.89552   0.17250   0.12354   0.00000  Uiso   1.00
C145   C     0.68821   0.13320   0.43138   0.00000  Uiso   1.00
C146   C     0.97772   0.19996   0.06848   0.00000  Uiso   1.00
C147   C     0.70714   0.14714   0.39147   0.00000  Uiso   1.00
C148   C     0.95973   0.18737   0.10853   0.00000  Uiso   1.00
C149   C     0.81549   0.17135   0.40637   0.00000  Uiso   1.00
C150   C     0.85170   0.16305   0.09332   0.00000  Uiso   1.00
C151   C     0.79923   0.16026   0.44872   0.00000  Uiso   1.00
C152   C     0.86837   0.17292   0.05072   0.00000  Uiso   1.00
C153   C     0.73433   0.14190   0.46043   0.00000  Uiso   1.00
C154   C     0.93291   0.19074   0.03911   0.00000  Uiso   1.00
C155   C     0.84537   0.16752   0.47927   0.00000  Uiso   1.00
C156   C     0.82318   0.16526   0.01991   0.00000  Uiso   1.00
Cu157  Cu    0.77404   0.16108   0.24517   0.00000  Uiso   1.00
Cu158  Cu    0.89263   0.17225   0.25484   0.00000  Uiso   1.00
H159   H     0.66918   0.12621   0.01301   0.00000  Uiso   1.00
H160   H     0.99926   0.20546   0.48698   0.00000  Uiso   1.00
H161   H     0.80328   0.14721   0.10222   0.00000  Uiso   1.00
H162   H     0.86390   0.18781   0.39771   0.00000  Uiso   1.00
H163   H     0.73848   0.14019   0.05832   0.00000  Uiso   1.00
H164   H     0.93123   0.19166   0.44081   0.00000  Uiso   1.00
H165   H     0.90074   0.00567   0.26055   0.00000  Uiso   1.00
H166   H     0.76593   0.32766   0.23945   0.00000  Uiso   1.00
H167   H     0.67359   0.21289   0.26872   0.00000  Uiso   1.00
H168   H     0.99311   0.12016   0.23170   0.00000  Uiso   1.00
N169   N     0.98173   0.18068   0.26212   0.00000  Uiso   1.00
N170   N     0.68494   0.15265   0.23788   0.00000  Uiso   1.00
O171   O     0.79482   0.23809   0.24686   0.00000  Uiso   1.00
O172   O     0.87185   0.09524   0.25314   0.00000  Uiso   1.00
O173   O     0.89496   0.24753   0.25503   0.00000  Uiso   1.00
O174   O     0.77171   0.08580   0.24498   0.00000  Uiso   1.00
O175   O     0.75518   0.15930   0.30855   0.00000  Uiso   1.00
O176   O     0.91149   0.17403   0.19146   0.00000  Uiso   1.00
O177   O     0.85532   0.16874   0.31671   0.00000  Uiso   1.00
O178   O     0.81134   0.16460   0.18329   0.00000  Uiso   1.00
O179   O     0.67304   0.18201   0.13203   0.00000  Uiso   1.00
C180   C     0.68113   0.21456   0.15956   0.00000  Uiso   1.00
H181   H     0.67354   0.18466   0.18036   0.00000  Uiso   1.00
H182   H     0.97946   0.24062   0.15836   0.00000  Uiso   1.00
H183   H     0.72846   0.23358   0.16633   0.00000  Uiso   1.00
O184   O     0.99495   0.15105   0.36691   0.00000  Uiso   1.00
C185   C     0.98647   0.11495   0.34186   0.00000  Uiso   1.00
H186   H     0.69052   0.09035   0.34360   0.00000  Uiso   1.00
H187   H     0.99217   0.14258   0.31915   0.00000  Uiso   1.00
H188   H     0.93954   0.09376   0.33476   0.00000  Uiso   1.00
O189   O     0.95707   0.11673   0.44369   0.00000  Uiso   1.00
C190   C     0.90111   0.10080   0.42226   0.00000  Uiso   1.00
H191   H     0.88516   0.06503   0.43822   0.00000  Uiso   1.00
H192   H     0.91870   0.10350   0.39466   0.00000  Uiso   1.00
H193   H     0.87878   0.08893   0.39685   0.00000  Uiso   1.00
O194   O     0.70723   0.21159   0.05597   0.00000  Uiso   1.00
C195   C     0.76307   0.23303   0.07453   0.00000  Uiso   1.00
H196   H     0.74627   0.24624   0.10219   0.00000  Uiso   1.00
H197   H     0.77522   0.26762   0.05678   0.00000  Uiso   1.00
H198   H     0.79586   0.24008   0.09960   0.00000  Uiso   1.00
C199   C     0.18063   0.59966   0.25143   0.00000  Uiso   1.00
C200   C     0.15271   0.40034   0.24857   0.00000  Uiso   1.00
C201   C     0.09158   0.48510   0.02809   0.00000  Uiso   1.00
C202   C     0.24412   0.51415   0.47102   0.00000  Uiso   1.00
C203   C     0.04910   0.47187   0.00104   0.00000  Uiso   1.00
C204   C     0.28593   0.52673   0.49863   0.00000  Uiso   1.00
C205   C     0.18906   0.65377   0.25326   0.00000  Uiso   1.00
C206   C     0.14427   0.34623   0.24674   0.00000  Uiso   1.00
C207   C     0.12955   0.49721   0.33205   0.00000  Uiso   1.00
C208   C     0.20388   0.50327   0.16789   0.00000  Uiso   1.00
C209   C     0.10479   0.49520   0.37638   0.00000  Uiso   1.00
C210   C     0.22885   0.50583   0.12354   0.00000  Uiso   1.00
C211   C     0.02154   0.46654   0.43138   0.00000  Uiso   1.00
C212   C     0.31106   0.53330   0.06848   0.00000  Uiso   1.00
C213   C     0.04048   0.48047   0.39147   0.00000  Uiso   1.00
C214   C     0.29307   0.52070   0.10853   0.00000  Uiso   1.00
C215   C     0.14882   0.50468   0.40637   0.00000  Uiso   1.00
C216   C     0.18503   0.49638   0.09332   0.00000  Uiso   1.00
C217   C     0.13257   0.49360   0.44872   0.00000  Uiso   1.00
C218   C     0.20171   0.50625   0.05072   0.00000  Uiso   1.00
C219   C     0.06767   0.47524   0.46043   0.00000  Uiso   1.00
C220   C     0.26625   0.52407   0.03911   0.00000  Uiso   1.00
C221   C     0.17871   0.50085   0.47927   0.00000  Uiso   1.00
C222   C     0.15651   0.49860   0.01991   0.00000  Uiso   1.00
Cu223  Cu    0.10737   0.49441   0.24517   0.00000  Uiso   1.00
Cu224  Cu    0.22596   0.50559   0.25484   0.00000  Uiso   1.00
H225   H     0.00251   0.45954   0.01301   0.00000  Uiso   1.00
H226   H     0.33259   0.53879   0.48698   0.00000  Uiso   1.00
H227   H     0.13662   0.48054   0.10222   0.00000  Uiso   1.00
H228   H     0.19724   0.52114   0.39771   0.00000  Uiso   1.00
H229   H     0.07181   0.47352   0.05832   0.00000  Uiso   1.00
H230   H     0.26456   0.52500   0.44081   0.00000  Uiso   1.00
H231   H     0.23407   0.33901   0.26055   0.00000  Uiso   1.00
H232   H     0.09927   0.66100   0.23945   0.00000  Uiso   1.00
H233   H     0.00692   0.54622   0.26872   0.00000  Uiso   1.00
H234   H     0.32644   0.45349   0.23170   0.00000  Uiso   1.00
N235   N     0.31506   0.51401   0.26212   0.00000  Uiso   1.00
N236   N     0.01827   0.48599   0.23788   0.00000  Uiso   1.00
O237   O     0.12815   0.57142   0.24686   0.00000  Uiso   1.00
O238   O     0.20518   0.42858   0.25314   0.00000  Uiso   1.00
O239   O     0.22829   0.58086   0.25503   0.00000  Uiso   1.00
O240   O     0.10504   0.41914   0.24498   0.00000  Uiso   1.00
O241   O     0.08851   0.49263   0.30855   0.00000  Uiso   1.00
O242   O     0.24482   0.50737   0.19146   0.00000  Uiso   1.00
O243   O     0.18866   0.50207   0.31671   0.00000  Uiso   1.00
O244   O     0.14468   0.49793   0.18329   0.00000  Uiso   1.00
O245   O     0.00637   0.51535   0.13203   0.00000  Uiso   1.00
C246   C     0.01446   0.54789   0.15956   0.00000  Uiso   1.00
H247   H     0.00688   0.51800   0.18036   0.00000  Uiso   1.00
H248   H     0.31279   0.57396   0.15836   0.00000  Uiso   1.00
H249   H     0.06179   0.56692   0.16633   0.00000  Uiso   1.00
O250   O     0.32828   0.48438   0.36691   0.00000  Uiso   1.00
C251   C     0.31980   0.44828   0.34186   0.00000  Uiso   1.00
H252   H     0.02385   0.42368   0.34360   0.00000  Uiso   1.00
H253   H     0.32550   0.47592   0.31915   0.00000  Uiso   1.00
H254   H     0.27287   0.42709   0.33476   0.00000  Uiso   1.00
O255   O     0.29040   0.45006   0.44369   0.00000  Uiso   1.00
C256   C     0.23444   0.43413   0.42226   0.00000  Uiso   1.00
H257   H     0.21849   0.39836   0.43822   0.00000  Uiso   1.00
H258   H     0.25203   0.43683   0.39466   0.00000  Uiso   1.00
H259   H     0.21211   0.42227   0.39685   0.00000  Uiso   1.00
O260   O     0.04056   0.54492   0.05597   0.00000  Uiso   1.00
C261   C     0.09640   0.56637   0.07453   0.00000  Uiso   1.00
H262   H     0.07960   0.57957   0.10219   0.00000  Uiso   1.00
H263   H     0.10855   0.60096   0.05678   0.00000  Uiso   1.00
H264   H     0.12919   0.57341   0.09960   0.00000  Uiso   1.00
C265   C     0.51396   0.59966   0.25143   0.00000  Uiso   1.00
C266   C     0.48604   0.40034   0.24857   0.00000  Uiso   1.00
C267   C     0.42491   0.48510   0.02809   0.00000  Uiso   1.00
C268   C     0.57745   0.51415   0.47102   0.00000  Uiso   1.00
C269   C     0.38244   0.47187   0.00104   0.00000  Uiso   1.00
C270   C     0.61927   0.52673   0.49863   0.00000  Uiso   1.00
C271   C     0.52239   0.65377   0.25326   0.00000  Uiso   1.00
C272   C     0.47761   0.34623   0.24674   0.00000  Uiso   1.00
C273   C     0.46288   0.49721   0.33205   0.00000  Uiso   1.00
C274   C     0.53721   0.50327   0.16789   0.00000  Uiso   1.00
C275   C     0.43812   0.49520   0.37638   0.00000  Uiso   1.00
C276   C     0.56219   0.50583   0.12354   0.00000  Uiso   1.00
C277   C     0.35488   0.46654   0.43138   0.00000  Uiso   1.00
C278   C     0.64439   0.53330   0.06848   0.00000  Uiso   1.00
C279   C     0.37381   0.48047   0.39147   0.00000  Uiso   1.00
C280   C     0.62640   0.52070   0.10853   0.00000  Uiso   1.00
C281   C     0.48215   0.50468   0.40637   0.00000  Uiso   1.00
C282   C     0.51837   0.49638   0.09332   0.00000  Uiso   1.00
C283   C     0.46590   0.49360   0.44872   0.00000  Uiso   1.00
C284   C     0.53504   0.50625   0.05072   0.00000  Uiso   1.00
C285   C     0.40100   0.47524   0.46043   0.00000  Uiso   1.00
C286   C     0.59958   0.52407   0.03911   0.00000  Uiso   1.00
C287   C     0.51204   0.50085   0.47927   0.00000  Uiso   1.00
C288   C     0.48984   0.49860   0.01991   0.00000  Uiso   1.00
Cu289  Cu    0.44071   0.49441   0.24517   0.00000  Uiso   1.00
Cu290  Cu    0.55929   0.50559   0.25484   0.00000  Uiso   1.00
H291   H     0.33585   0.45954   0.01301   0.00000  Uiso   1.00
H292   H     0.66592   0.53879   0.48698   0.00000  Uiso   1.00
H293   H     0.46995   0.48054   0.10222   0.00000  Uiso   1.00
H294   H     0.53057   0.52114   0.39771   0.00000  Uiso   1.00
H295   H     0.40515   0.47352   0.05832   0.00000  Uiso   1.00
H296   H     0.59790   0.52500   0.44081   0.00000  Uiso   1.00
H297   H     0.56740   0.33901   0.26055   0.00000  Uiso   1.00
H298   H     0.43260   0.66100   0.23945   0.00000  Uiso   1.00
H299   H     0.34025   0.54622   0.26872   0.00000  Uiso   1.00
H300   H     0.65977   0.45349   0.23170   0.00000  Uiso   1.00
N301   N     0.64839   0.51401   0.26212   0.00000  Uiso   1.00
N302   N     0.35161   0.48599   0.23788   0.00000  Uiso   1.00
O303   O     0.46148   0.57142   0.24686   0.00000  Uiso   1.00
O304   O     0.53852   0.42858   0.25314   0.00000  Uiso   1.00
O305   O     0.56163   0.58086   0.25503   0.00000  Uiso   1.00
O306   O     0.43837   0.41914   0.24498   0.00000  Uiso   1.00
O307   O     0.42185   0.49263   0.30855   0.00000  Uiso   1.00
O308   O     0.57815   0.50737   0.19146   0.00000  Uiso   1.00
O309   O     0.52199   0.50207   0.31671   0.00000  Uiso   1.00
O310   O     0.47801   0.49793   0.18329   0.00000  Uiso   1.00
O311   O     0.33970   0.51535   0.13203   0.00000  Uiso   1.00
C312   C     0.34780   0.54789   0.15956   0.00000  Uiso   1.00
H313   H     0.34021   0.51800   0.18036   0.00000  Uiso   1.00
H314   H     0.64613   0.57396   0.15836   0.00000  Uiso   1.00
H315   H     0.39513   0.56692   0.16633   0.00000  Uiso   1.00
O316   O     0.66161   0.48438   0.36691   0.00000  Uiso   1.00
C317   C     0.65313   0.44828   0.34186   0.00000  Uiso   1.00
H318   H     0.35719   0.42368   0.34360   0.00000  Uiso   1.00
H319   H     0.65883   0.47592   0.31915   0.00000  Uiso   1.00
H320   H     0.60621   0.42709   0.33476   0.00000  Uiso   1.00
O321   O     0.62373   0.45006   0.44369   0.00000  Uiso   1.00
C322   C     0.56778   0.43413   0.42226   0.00000  Uiso   1.00
H323   H     0.55182   0.39836   0.43822   0.00000  Uiso   1.00
H324   H     0.58537   0.43683   0.39466   0.00000  Uiso   1.00
H325   H     0.54545   0.42227   0.39685   0.00000  Uiso   1.00
O326   O     0.37389   0.54492   0.05597   0.00000  Uiso   1.00
C327   C     0.42974   0.56637   0.07453   0.00000  Uiso   1.00
H328   H     0.41293   0.57957   0.10219   0.00000  Uiso   1.00
H329   H     0.44189   0.60096   0.05678   0.00000  Uiso   1.00
H330   H     0.46253   0.57341   0.09960   0.00000  Uiso   1.00
C331   C     0.84729   0.59966   0.25143   0.00000  Uiso   1.00
C332   C     0.81937   0.40034   0.24857   0.00000  Uiso   1.00
C333   C     0.75825   0.48510   0.02809   0.00000  Uiso   1.00
C334   C     0.91078   0.51415   0.47102   0.00000  Uiso   1.00
C335   C     0.71577   0.47187   0.00104   0.00000  Uiso   1.00
C336   C     0.95260   0.52673   0.49863   0.00000  Uiso   1.00
C337   C     0.85573   0.65377   0.25326   0.00000  Uiso   1.00
C338   C     0.81094   0.34623   0.24674   0.00000  Uiso   1.00
C339   C     0.79621   0.49721   0.33205   0.00000  Uiso   1.00
C340   C     0.87055   0.50327   0.16789   0.00000  Uiso   1.00
C341   C     0.77146   0.49520   0.37638   0.00000  Uiso   1.00
C342   C     0.89552   0.50583   0.12354   0.00000  Uiso   1.00
C343   C     0.68821   0.46654   0.43138   0.00000  Uiso   1.00
C344   C     0.97772   0.53330   0.06848   0.00000  Uiso   1.00
C345   C     0.70714   0.48047   0.39147   0.00000  Uiso   1.00
C346   C     0.95973   0.52070   0.10853   0.00000  Uiso   1.00
C347   C     0.81549   0.50468   0.40637   0.00000  Uiso   1.00
C348   C     0.85170   0.49638   0.09332   0.00000  Uiso   1.00
C349   C     0.79923   0.49360   0.44872   0.00000  Uiso   1.00
C350   C     0.86837   0.50625   0.05072   0.00000  Uiso   1.00
C351   C     0.73433   0.47524   0.46043   0.00000  Uiso   1.00
C352   C     0.93291   0.52407   0.03911   0.00000  Uiso   1.00
C353   C     0.84537   0.50085   0.47927   0.00000  Uiso   1.00
C354   C     0.82318   0.49860   0.01991   0.00000  Uiso   1.00
Cu355  Cu    0.77404   0.49441   0.24517   0.00000  Uiso   1.00
Cu356  Cu    0.89263   0.50559   0.25484   0.00000  Uiso   1.00
H357   H     0.66918   0.45954   0.01301   0.00000  Uiso   1.00
H358   H     0.99926   0.53879   0.48698   0.00000  Uiso   1.00
H359   H     0.80328   0.48054   0.10222   0.00000  Uiso   1.00
H360   H     0.86390   0.52114   0.39771   0.00000  Uiso   1.00
H361   H     0.73848   0.47352   0.05832   0.00000  Uiso   1.00
H362   H     0.93123   0.52500   0.44081   0.00000  Uiso   1.00
H363   H     0.90074   0.33901   0.26055   0.00000  Uiso   1.00
H364   H     0.76593   0.66100   0.23945   0.00000  Uiso   1.00
H365   H     0.67359   0.54622   0.26872   0.00000  Uiso   1.00
H366   H     0.99311   0.45349   0.23170   0.00000  Uiso   1.00
N367   N     0.98173   0.51401   0.26212   0.00000  Uiso   1.00
N368   N     0.68494   0.48599   0.23788   0.00000  Uiso   1.00
O369   O     0.79482   0.57142   0.24686   0.00000  Uiso   1.00
O370   O     0.87185   0.42858   0.25314   0.00000  Uiso   1.00
O371   O     0.89496   0.58086   0.25503   0.00000  Uiso   1.00
O372   O     0.77171   0.41914   0.24498   0.00000  Uiso   1.00
O373   O     0.75518   0.49263   0.30855   0.00000  Uiso   1.00
O374   O     0.91149   0.50737   0.19146   0.00000  Uiso   1.00
O375   O     0.85532   0.50207   0.31671   0.00000  Uiso   1.00
O376   O     0.81134   0.49793   0.18329   0.00000  Uiso   1.00
O377   O     0.67304   0.51535   0.13203   0.00000  Uiso   1.00
C378   C     0.68113   0.54789   0.15956   0.00000  Uiso   1.00
H379   H     0.67354   0.51800   0.18036   0.00000  Uiso   1.00
H380   H     0.97946   0.57396   0.15836   0.00000  Uiso   1.00
H381   H     0.72846   0.56692   0.16633   0.00000  Uiso   1.00
O382   O     0.99495   0.48438   0.36691   0.00000  Uiso   1.00
C383   C     0.98647   0.44828   0.34186   0.00000  Uiso   1.00
H384   H     0.69052   0.42368   0.34360   0.00000  Uiso   1.00
H385   H     0.99217   0.47592   0.31915   0.00000  Uiso   1.00
H386   H     0.93954   0.42709   0.33476   0.00000  Uiso   1.00
O387   O     0.95707   0.45006   0.44369   0.00000  Uiso   1.00
C388   C     0.90111   0.43413   0.42226   0.00000  Uiso   1.00
H389   H     0.88516   0.39836   0.43822   0.00000  Uiso   1.00
H390   H     0.91870   0.43683   0.39466   0.00000  Uiso   1.00
H391   H     0.87878   0.42227   0.39685   0.00000  Uiso   1.00
O392   O     0.70723   0.54492   0.05597   0.00000  Uiso   1.00
C393   C     0.76307   0.56637   0.07453   0.00000  Uiso   1.00
H394   H     0.74627   0.57957   0.10219   0.00000  Uiso   1.00
H395   H     0.77522   0.60096   0.05678   0.00000  Uiso   1.00
H396   H     0.79586   0.57341   0.09960   0.00000  Uiso   1.00
C397   C     0.18063   0.93299   0.25143   0.00000  Uiso   1.00
C398   C     0.15271   0.73368   0.24857   0.00000  Uiso   1.00
C399   C     0.09158   0.81843   0.02809   0.00000  Uiso   1.00
C400   C     0.24412   0.84748   0.47102   0.00000  Uiso   1.00
C401   C     0.04910   0.80521   0.00104   0.00000  Uiso   1.00
C402   C     0.28593   0.86006   0.49863   0.00000  Uiso   1.00
C403   C     0.18906   0.98710   0.25326   0.00000  Uiso   1.00
C404   C     0.14427   0.67956   0.24674   0.00000  Uiso   1.00
C405   C     0.12955   0.83054   0.33205   0.00000  Uiso   1.00
C406   C     0.20388   0.83661   0.16789   0.00000  Uiso   1.00
C407   C     0.10479   0.82853   0.37638   0.00000  Uiso   1.00
C408   C     0.22885   0.83916   0.12354   0.00000  Uiso   1.00
C409   C     0.02154   0.79987   0.43138   0.00000  Uiso   1.00
C410   C     0.31106   0.86663   0.06848   0.00000  Uiso   1.00
C411   C     0.04048   0.81380   0.39147   0.00000  Uiso   1.00
C412   C     0.29307   0.85404   0.10853   0.00000  Uiso   1.00
C413   C     0.14882   0.83802   0.40637   0.00000  Uiso   1.00
C414   C     0.18503   0.82972   0.09332   0.00000  Uiso   1.00
C415   C     0.13257   0.82693   0.44872   0.00000  Uiso   1.00
C416   C     0.20171   0.83959   0.05072   0.00000  Uiso   1.00
C417   C     0.06767   0.80857   0.46043   0.00000  Uiso   1.00
C418   C     0.26625   0.85741   0.03911   0.00000  Uiso   1.00
C419   C     0.17871   0.83418   0.47927   0.00000  Uiso   1.00
C420   C     0.15651   0.83193   0.01991   0.00000  Uiso   1.00
Cu421  Cu    0.10737   0.82775   0.24517   0.00000  Uiso   1.00
Cu422  Cu    0.22596   0.83892   0.25484   0.00000  Uiso   1.00
H423   H     0.00251   0.79287   0.01301   0.00000  Uiso   1.00
H424   H     0.33259   0.87213   0.48698   0.00000  Uiso   1.00
H425   H     0.13662   0.81387   0.10222   0.00000  Uiso   1.00
H426   H     0.19724   0.85447   0.39771   0.00000  Uiso   1.00
H427   H     0.07181   0.80686   0.05832   0.00000  Uiso   1.00
H428   H     0.26456   0.85833   0.44081   0.00000  Uiso   1.00
H429   H     0.23407   0.67234   0.26055   0.00000  Uiso   1.00
H430   H     0.09927   0.99433   0.23945   0.00000  Uiso   1.00
H431   H     0.00692   0.87956   0.26872   0.00000  Uiso   1.00
H432   H     0.32644   0.78682   0.23170   0.00000  Uiso   1.00
N433   N     0.31506   0.84735   0.26212   0.00000  Uiso   1.00
N434   N     0.01827   0.81932   0.23788   0.00000  Uiso   1.00
O435   O     0.12815   0.90476   0.24686   0.00000  Uiso   1.00
O436   O     0.20518   0.76191   0.25314   0.00000  Uiso   1.00
O437   O     0.22829   0.91420   0.25503   0.00000  Uiso   1.00
O438   O     0.10504   0.75247   0.24498   0.00000  Uiso   1.00
O439   O     0.08851   0.82597   0.30855   0.00000  Uiso   1.00
O440   O     0.24482   0.84070   0.19146   0.00000  Uiso   1.00
O441   O     0.18866   0.83540   0.31671   0.00000  Uiso   1.00
O442   O     0.14468   0.83126   0.18329   0.00000  Uiso   1.00
O443   O     0.00637   0.84868   0.13203   0.00000  Uiso   1.00
C444   C     0.01446   0.88123   0.15956   0.00000  Uiso   1.00
H445   H     0.00688   0.85133   0.18036   0.00000  Uiso   1.00
H446   H     0.31279   0.90729   0.15836   0.00000  Uiso   1.00
H447   H     0.06179   0.90025   0.16633   0.00000  Uiso   1.00
O448   O     0.32828   0.81772   0.36691   0.00000  Uiso   1.00
C449   C     0.31980   0.78162   0.34186   0.00000  Uiso   1.00
H450   H     0.02385   0.75701   0.34360   0.00000  Uiso   1.00
H451   H     0.32550   0.80925   0.31915   0.00000  Uiso   1.00
H452   H     0.27287   0.76042   0.33476   0.00000  Uiso   1.00
O453   O     0.29040   0.78339   0.44369   0.00000  Uiso   1.00
C454   C     0.23444   0.76747   0.42226   0.00000  Uiso   1.00
H455   H     0.21849   0.73169   0.43822   0.00000  Uiso   1.00
H456   H     0.25203   0.77016   0.39466   0.00000  Uiso   1.00
H457   H     0.21211   0.75560   0.39685   0.00000  Uiso   1.00
O458   O     0.04056   0.87826   0.05597   0.00000  Uiso   1.00
C459   C     0.09640   0.89970   0.07453   0.00000  Uiso   1.00
H460   H     0.07960   0.91290   0.10219   0.00000  Uiso   1.00
H461   H     0.10855   0.93429   0.05678   0.00000  Uiso   1.00
H462   H     0.12919   0.90675   0.09960   0.00000  Uiso   1.00
C463   C     0.51396   0.93299   0.25143   0.00000  Uiso   1.00
C464   C     0.48604   0.73368   0.24857   0.00000  Uiso   1.00
C465   C     0.42491   0.81843   0.02809   0.00000  Uiso   1.00
C466   C     0.57745   0.84748   0.47102   0.00000  Uiso   1.00
C467   C     0.38244   0.80521   0.00104   0.00000  Uiso   1.00
C468   C     0.61927   0.86006   0.49863   0.00000  Uiso   1.00
C469   C     0.52239   0.98710   0.25326   0.00000  Uiso   1.00
C470   C     0.47761   0.67956   0.24674   0.00000  Uiso   1.00
C471   C     0.46288   0.83054   0.33205   0.00000  Uiso   1.00
C472   C     0.53721   0.83661   0.16789   0.00000  Uiso   1.00
C473   C     0.43812   0.82853   0.37638   0.00000  Uiso   1.00
C474   C     0.56219   0.83916   0.12354   0.00000  Uiso   1.00
C475   C     0.35488   0.79987   0.43138   0.00000  Uiso   1.00
C476   C     0.64439   0.86663   0.06848   0.00000  Uiso   1.00
C477   C     0.37381   0.81380   0.39147   0.00000  Uiso   1.00
C478   C     0.62640   0.85404   0.10853   0.00000  Uiso   1.00
C479   C     0.48215   0.83802   0.40637   0.00000  Uiso   1.00
C480   C     0.51837   0.82972   0.09332   0.00000  Uiso   1.00
C481   C     0.46590   0.82693   0.44872   0.00000  Uiso   1.00
C482   C     0.53504   0.83959   0.05072   0.00000  Uiso   1.00
C483   C     0.40100   0.80857   0.46043   0.00000  Uiso   1.00
C484   C     0.59958   0.85741   0.03911   0.00000  Uiso   1.00
C485   C     0.51204   0.83418   0.47927   0.00000  Uiso   1.00
C486   C     0.48984   0.83193   0.01991   0.00000  Uiso   1.00
Cu487  Cu    0.44071   0.82775   0.24517   0.00000  Uiso   1.00
Cu488  Cu    0.55929   0.83892   0.25484   0.00000  Uiso   1.00
H489   H     0.33585   0.79287   0.01301   0.00000  Uiso   1.00
H490   H     0.66592   0.87213   0.48698   0.00000  Uiso   1.00
H491   H     0.46995   0.81387   0.10222   0.00000  Uiso   1.00
H492   H     0.53057   0.85447   0.39771   0.00000  Uiso   1.00
H493   H     0.40515   0.80686   0.05832   0.00000  Uiso   1.00
H494   H     0.59790   0.85833   0.44081   0.00000  Uiso   1.00
H495   H     0.56740   0.67234   0.26055   0.00000  Uiso   1.00
H496   H     0.43260   0.99433   0.23945   0.00000  Uiso   1.00
H497   H     0.34025   0.87956   0.26872   0.00000  Uiso   1.00
H498   H     0.65977   0.78682   0.23170   0.00000  Uiso   1.00
N499   N     0.64839   0.84735   0.26212   0.00000  Uiso   1.00
N500   N     0.35161   0.81932   0.23788   0.00000  Uiso   1.00
O501   O     0.46148   0.90476   0.24686   0.00000  Uiso   1.00
O502   O     0.53852   0.76191   0.25314   0.00000  Uiso   1.00
O503   O     0.56163   0.91420   0.25503   0.00000  Uiso   1.00
O504   O     0.43837   0.75247   0.24498   0.00000  Uiso   1.00
O505   O     0.42185   0.82597   0.30855   0.00000  Uiso   1.00
O506   O     0.57815   0.84070   0.19146   0.00000  Uiso   1.00
O507   O     0.52199   0.83540   0.31671   0.00000  Uiso   1.00
O508   O     0.47801   0.83126   0.18329   0.00000  Uiso   1.00
O509   O     0.33970   0.84868   0.13203   0.00000  Uiso   1.00
C510   C     0.34780   0.88123   0.15956   0.00000  Uiso   1.00
H511   H     0.34021   0.85133   0.18036   0.00000  Uiso   1.00
H512   H     0.64613   0.90729   0.15836   0.00000  Uiso   1.00
H513   H     0.39513   0.90025   0.16633   0.00000  Uiso   1.00
O514   O     0.66161   0.81772   0.36691   0.00000  Uiso   1.00
C515   C     0.65313   0.78162   0.34186   0.00000  Uiso   1.00
H516   H     0.35719   0.75701   0.34360   0.00000  Uiso   1.00
H517   H     0.65883   0.80925   0.31915   0.00000  Uiso   1.00
H518   H     0.60621   0.76042   0.33476   0.00000  Uiso   1.00
O519   O     0.62373   0.78339   0.44369   0.00000  Uiso   1.00
C520   C     0.56778   0.76747   0.42226   0.00000  Uiso   1.00
H521   H     0.55182   0.73169   0.43822   0.00000  Uiso   1.00
H522   H     0.58537   0.77016   0.39466   0.00000  Uiso   1.00
H523   H     0.54545   0.75560   0.39685   0.00000  Uiso   1.00
O524   O     0.37389   0.87826   0.05597   0.00000  Uiso   1.00
C525   C     0.42974   0.89970   0.07453   0.00000  Uiso   1.00
H526   H     0.41293   0.91290   0.10219   0.00000  Uiso   1.00
H527   H     0.44189   0.93429   0.05678   0.00000  Uiso   1.00
H528   H     0.46253   0.90675   0.09960   0.00000  Uiso   1.00
C529   C     0.84729   0.93299   0.25143   0.00000  Uiso   1.00
C530   C     0.81937   0.73368   0.24857   0.00000  Uiso   1.00
C531   C     0.75825   0.81843   0.02809   0.00000  Uiso   1.00
C532   C     0.91078   0.84748   0.47102   0.00000  Uiso   1.00
C533   C     0.71577   0.80521   0.00104   0.00000  Uiso   1.00
C534   C     0.95260   0.86006   0.49863   0.00000  Uiso   1.00
C535   C     0.85573   0.98710   0.25326   0.00000  Uiso   1.00
C536   C     0.81094   0.67956   0.24674   0.00000  Uiso   1.00
C537   C     0.79621   0.83054   0.33205   0.00000  Uiso   1.00
C538   C     0.87055   0.83661   0.16789   0.00000  Uiso   1.00
C539   C     0.77146   0.82853   0.37638   0.00000  Uiso   1.00
C540   C     0.89552   0.83916   0.12354   0.00000  Uiso   1.00
C541   C     0.68821   0.79987   0.43138   0.00000  Uiso   1.00
C542   C     0.97772   0.86663   0.06848   0.00000  Uiso   1.00
C543   C     0.70714   0.81380   0.39147   0.00000  Uiso   1.00
C544   C     0.95973   0.85404   0.10853   0.00000  Uiso   1.00
C545   C     0.81549   0.83802   0.40637   0.00000  Uiso   1.00
C546   C     0.85170   0.82972   0.09332   0.00000  Uiso   1.00
C547   C     0.79923   0.82693   0.44872   0.00000  Uiso   1.00
C548   C     0.86837   0.83959   0.05072   0.00000  Uiso   1.00
C549   C     0.73433   0.80857   0.46043   0.00000  Uiso   1.00
C550   C     0.93291   0.85741   0.03911   0.00000  Uiso   1.00
C551   C     0.84537   0.83418   0.47927   0.00000  Uiso   1.00
C552   C     0.82318   0.83193   0.01991   0.00000  Uiso   1.00
Cu553  Cu    0.77404   0.82775   0.24517   0.00000  Uiso   1.00
Cu554  Cu    0.89263   0.83892   0.25484   0.00000  Uiso   1.00
H555   H     0.66918   0.79287   0.01301   0.00000  Uiso   1.00
H556   H     0.99926   0.87213   0.48698   0.00000  Uiso   1.00
H557   H     0.80328   0.81387   0.10222   0.00000  Uiso   1.00
H558   H     0.86390   0.85447   0.39771   0.00000  Uiso   1.00
H559   H     0.73848   0.80686   0.05832   0.00000  Uiso   1.00
H560   H     0.93123   0.85833   0.44081   0.00000  Uiso   1.00
H561   H     0.90074   0.67234   0.26055   0.00000  Uiso   1.00
H562   H     0.76593   0.99433   0.23945   0.00000  Uiso   1.00
H563   H     0.67359   0.87956   0.26872   0.00000  Uiso   1.00
H564   H     0.99311   0.78682   0.23170   0.00000  Uiso   1.00
N565   N     0.98173   0.84735   0.26212   0.00000  Uiso   1.00
N566   N     0.68494   0.81932   0.23788   0.00000  Uiso   1.00
O567   O     0.79482   0.90476   0.24686   0.00000  Uiso   1.00
O568   O     0.87185   0.76191   0.25314   0.00000  Uiso   1.00
O569   O     0.89496   0.91420   0.25503   0.00000  Uiso   1.00
O570   O     0.77171   0.75247   0.24498   0.00000  Uiso   1.00
O571   O     0.75518   0.82597   0.30855   0.00000  Uiso   1.00
O572   O     0.91149   0.84070   0.19146   0.00000  Uiso   1.00
O573   O     0.85532   0.83540   0.31671   0.00000  Uiso   1.00
O574   O     0.81134   0.83126   0.18329   0.00000  Uiso   1.00
O575   O     0.67304   0.84868   0.13203   0.00000  Uiso   1.00
C576   C     0.68113   0.88123   0.15956   0.00000  Uiso   1.00
H577   H     0.67354   0.85133   0.18036   0.00000  Uiso   1.00
H578   H     0.97946   0.90729   0.15836   0.00000  Uiso   1.00
H579   H     0.72846   0.90025   0.16633   0.00000  Uiso   1.00
O580   O     0.99495   0.81772   0.36691   0.00000  Uiso   1.00
C581   C     0.98647   0.78162   0.34186   0.00000  Uiso   1.00
H582   H     0.69052   0.75701   0.34360   0.00000  Uiso   1.00
H583   H     0.99217   0.80925   0.31915   0.00000  Uiso   1.00
H584   H     0.93954   0.76042   0.33476   0.00000  Uiso   1.00
O585   O     0.95707   0.78339   0.44369   0.00000  Uiso   1.00
C586   C     0.90111   0.76747   0.42226   0.00000  Uiso   1.00
H587   H     0.88516   0.73169   0.43822   0.00000  Uiso   1.00
H588   H     0.91870   0.77016   0.39466   0.00000  Uiso   1.00
H589   H     0.87878   0.75560   0.39685   0.00000  Uiso   1.00
O590   O     0.70723   0.87826   0.05597   0.00000  Uiso   1.00
C591   C     0.76307   0.89970   0.07453   0.00000  Uiso   1.00
H592   H     0.74627   0.91290   0.10219   0.00000  Uiso   1.00
H593   H     0.77522   0.93429   0.05678   0.00000  Uiso   1.00
H594   H     0.79586   0.90675   0.09960   0.00000  Uiso   1.00
C595   C     0.18063   0.26632   0.75143   0.00000  Uiso   1.00
C596   C     0.15271   0.06701   0.74857   0.00000  Uiso   1.00
C597   C     0.09158   0.15177   0.52809   0.00000  Uiso   1.00
C598   C     0.24412   0.18082   0.97102   0.00000  Uiso   1.00
C599   C     0.04910   0.13854   0.50104   0.00000  Uiso   1.00
C600   C     0.28593   0.19339   0.99863   0.00000  Uiso   1.00
C601   C     0.18906   0.32044   0.75326   0.00000  Uiso   1.00
C602   C     0.14427   0.01290   0.74674   0.00000  Uiso   1.00
C603   C     0.12955   0.16387   0.83205   0.00000  Uiso   1.00
C604   C     0.20388   0.16994   0.66789   0.00000  Uiso   1.00
C605   C     0.10479   0.16187   0.87638   0.00000  Uiso   1.00
C606   C     0.22885   0.17250   0.62354   0.00000  Uiso   1.00
C607   C     0.02154   0.13320   0.93138   0.00000  Uiso   1.00
C608   C     0.31106   0.19996   0.56848   0.00000  Uiso   1.00
C609   C     0.04048   0.14714   0.89147   0.00000  Uiso   1.00
C610   C     0.29307   0.18737   0.60853   0.00000  Uiso   1.00
C611   C     0.14882   0.17135   0.90637   0.00000  Uiso   1.00
C612   C     0.18503   0.16305   0.59332   0.00000  Uiso   1.00
C613   C     0.13257   0.16026   0.94872   0.00000  Uiso   1.00
C614   C     0.20171   0.17292   0.55072   0.00000  Uiso   1.00
C615   C     0.06767   0.14190   0.96043   0.00000  Uiso   1.00
C616   C     0.26625   0.19074   0.53911   0.00000  Uiso   1.00
C617   C     0.17871   0.16752   0.97927   0.00000  Uiso   1.00
C618   C     0.15651   0.16526   0.51991   0.00000  Uiso   1.00
Cu619  Cu    0.10737   0.16108   0.74517   0.00000  Uiso   1.00
Cu620  Cu    0.22596   0.17225   0.75484   0.00000  Uiso   1.00
H621   H     0.00251   0.12621   0.51301   0.00000  Uiso   1.00
H622   H     0.33259   0.20546   0.98698   0.00000  Uiso   1.00
H623   H     0.13662   0.14721   0.60222   0.00000  Uiso   1.00
H624   H     0.19724   0.18781   0.89771   0.00000  Uiso   1.00
H625   H     0.07181   0.14019   0.55832   0.00000  Uiso   1.00
H626   H     0.26456   0.19166   0.94081   0.00000  Uiso   1.00
H627   H     0.23407   0.00567   0.76055   0.00000  Uiso   1.00
H628   H     0.09927   0.32766   0.73945   0.00000  Uiso   1.00
H629   H     0.00692   0.21289   0.76872   0.00000  Uiso   1.00
H630   H     0.32644   0.12016   0.73170   0.00000  Uiso   1.00
N631   N     0.31506   0.18068   0.76212   0.00000  Uiso   1.00
N632   N     0.01827   0.15265   0.73788   0.00000  Uiso   1.00
O633   O     0.12815   0.23809   0.74686   0.00000  Uiso   1.00
O634   O     0.20518   0.09524   0.75314   0.00000  Uiso   1.00
O635   O     0.22829   0.24753   0.75503   0.00000  Uiso   1.00
O636   O     0.10504   0.08580   0.74498   0.00000  Uiso   1.00
O637   O     0.08851   0.15930   0.80855   0.00000  Uiso   1.00
O638   O     0.24482   0.17403   0.69146   0.00000  Uiso   1.00
O639   O     0.18866   0.16874   0.81671   0.00000  Uiso   1.00
O640   O     0.14468   0.16460   0.68329   0.00000  Uiso   1.00
O641   O     0.00637   0.18201   0.63203   0.00000  Uiso   1.00
C642   C     0.01446   0.21456   0.65956   0.00000  Uiso   1.00
H643   H     0.00688   0.18466   0.68036   0.00000  Uiso   1.00
H644   H     0.31279   0.24062   0.65836   0.00000  Uiso   1.00
H645   H     0.06179   0.23358   0.66633   0.00000  Uiso   1.00
O646   O     0.32828   0.15105   0.86691   0.00000  Uiso   1.00
C647   C     0.31980   0.11495   0.84186   0.00000  Uiso   1.00
H648   H     0.02385   0.09035   0.84360   0.00000  Uiso   1.00
H649   H     0.32550   0.14258   0.81915   0.00000  Uiso   1.00
H650   H     0.27287   0.09376   0.83476   0.00000  Uiso   1.00
O651   O     0.29040   0.11673   0.94369   0.00000  Uiso   1.00
C652   C     0.23444   0.10080   0.92226   0.00000  Uiso   1.00
H653   H     0.21849   0.06503   0.93822   0.00000  Uiso   1.00
H654   H     0.25203   0.10350   0.89466   0.00000  Uiso   1.00
H655   H     0.21211   0.08893   0.89685   0.00000  Uiso   1.00
O656   O     0.04056   0.21159   0.55597   0.00000  Uiso   1.00
C657   C     0.09640   0.23303   0.57453   0.00000  Uiso   1.00
H658   H     0.07960   0.24624   0.60219   0.00000  Uiso   1.00
H659   H     0.10855   0.26762   0.55678   0.00000  Uiso   1.00
H660   H     0.12919   0.24008   0.59960   0.00000  Uiso   1.00
C661   C     0.51396   0.26632   0.75143   0.00000  Uiso   1.00
C662   C     0.48604   0.06701   0.74857   0.00000  Uiso   1.00
C663   C     0.42491   0.15177   0.52809   0.00000  Uiso   1.00
C664   C     0.57745   0.18082   0.97102   0.00000  Uiso   1.00
C665   C     0.38244   0.13854   0.50104   0.00000  Uiso   1.00
C666   C     0.61927   0.19339   0.99863   0.00000  Uiso   1.00
C667   C     0.52239   0.32044   0.75326   0.00000  Uiso   1.00
C668   C     0.47761   0.01290   0.74674   0.00000  Uiso   1.00
C669   C     0.46288   0.16387   0.83205   0.00000  Uiso   1.00
C670   C     0.53721   0.16994   0.66789   0.00000  Uiso   1.00
C671   C     0.43812   0.16187   0.87638   0.00000  Uiso   1.00
C672   C     0.56219   0.17250   0.62354   0.00000  Uiso   1.00
C673   C     0.35488   0.13320   0.93138   0.00000  Uiso   1.00
C674   C     0.64439   0.19996   0.56848   0.00000  Uiso   1.00
C675   C     0.37381   0.14714   0.89147   0.00000  Uiso   1.00
C676   C     0.62640   0.18737   0.60853   0.00000  Uiso   1.00
C677   C     0.48215   0.17135   0.90637   0.00000  Uiso   1.00
C678   C     0.51837   0.16305   0.59332   0.00000  Uiso   1.00
C679   C     0.46590   0.16026   0.94872   0.00000  Uiso   1.00
C680   C     0.53504   0.17292   0.55072   0.00000  Uiso   1.00
C681   C     0.40100   0.14190   0.96043   0.00000  Uiso   1.00
C682   C     0.59958   0.19074   0.53911   0.00000  Uiso   1.00
C683   C     0.51204   0.16752   0.97927   0.00000  Uiso   1.00
C684   C     0.48984   0.16526   0.51991   0.00000  Uiso   1.00
Cu685  Cu    0.44071   0.16108   0.74517   0.00000  Uiso   1.00
Cu686  Cu    0.55929   0.17225   0.75484   0.00000  Uiso   1.00
H687   H     0.33585   0.12621   0.51301   0.00000  Uiso   1.00
H688   H     0.66592   0.20546   0.98698   0.00000  Uiso   1.00
H689   H     0.46995   0.14721   0.60222   0.00000  Uiso   1.00
H690   H     0.53057   0.18781   0.89771   0.00000  Uiso   1.00
H691   H     0.40515   0.14019   0.55832   0.00000  Uiso   1.00
H692   H     0.59790   0.19166   0.94081   0.00000  Uiso   1.00
H693   H     0.56740   0.00567   0.76055   0.00000  Uiso   1.00
H694   H     0.43260   0.32766   0.73945   0.00000  Uiso   1.00
H695   H     0.34025   0.21289   0.76872   0.00000  Uiso   1.00
H696   H     0.65977   0.12016   0.73170   0.00000  Uiso   1.00
N697   N     0.64839   0.18068   0.76212   0.00000  Uiso   1.00
N698   N     0.35161   0.15265   0.73788   0.00000  Uiso   1.00
O699   O     0.46148   0.23809   0.74686   0.00000  Uiso   1.00
O700   O     0.53852   0.09524   0.75314   0.00000  Uiso   1.00
O701   O     0.56163   0.24753   0.75503   0.00000  Uiso   1.00
O702   O     0.43837   0.08580   0.74498   0.00000  Uiso   1.00
O703   O     0.42185   0.15930   0.80855   0.00000  Uiso   1.00
O704   O     0.57815   0.17403   0.69146   0.00000  Uiso   1.00
O705   O     0.52199   0.16874   0.81671   0.00000  Uiso   1.00
O706   O     0.47801   0.16460   0.68329   0.00000  Uiso   1.00
O707   O     0.33970   0.18201   0.63203   0.00000  Uiso   1.00
C708   C     0.34780   0.21456   0.65956   0.00000  Uiso   1.00
H709   H     0.34021   0.18466   0.68036   0.00000  Uiso   1.00
H710   H     0.64613   0.24062   0.65836   0.00000  Uiso   1.00
H711   H     0.39513   0.23358   0.66633   0.00000  Uiso   1.00
O712   O     0.66161   0.15105   0.86691   0.00000  Uiso   1.00
C713   C     0.65313   0.11495   0.84186   0.00000  Uiso   1.00
H714   H     0.35719   0.09035   0.84360   0.00000  Uiso   1.00
H715   H     0.65883   0.14258   0.81915   0.00000  Uiso   1.00
H716   H     0.60621   0.09376   0.83476   0.00000  Uiso   1.00
O717   O     0.62373   0.11673   0.94369   0.00000  Uiso   1.00
C718   C     0.56778   0.10080   0.92226   0.00000  Uiso   1.00
H719   H     0.55182   0.06503   0.93822   0.00000  Uiso   1.00
H720   H     0.58537   0.10350   0.89466   0.00000  Uiso   1.00
H721   H     0.54545   0.08893   0.89685   0.00000  Uiso   1.00
O722   O     0.37389   0.21159   0.55597   0.00000  Uiso   1.00
C723   C     0.42974   0.23303   0.57453   0.00000  Uiso   1.00
H724   H     0.41293   0.24624   0.60219   0.00000  Uiso   1.00
H725   H     0.44189   0.26762   0.55678   0.00000  Uiso   1.00
H726   H     0.46253   0.24008   0.59960   0.00000  Uiso   1.00
C727   C     0.84729   0.26632   0.75143   0.00000  Uiso   1.00
C728   C     0.81937   0.06701   0.74857   0.00000  Uiso   1.00
C729   C     0.75825   0.15177   0.52809   0.00000  Uiso   1.00
C730   C     0.91078   0.18082   0.97102   0.00000  Uiso   1.00
C731   C     0.71577   0.13854   0.50104   0.00000  Uiso   1.00
C732   C     0.95260   0.19339   0.99863   0.00000  Uiso   1.00
C733   C     0.85573   0.32044   0.75326   0.00000  Uiso   1.00
C734   C     0.81094   0.01290   0.74674   0.00000  Uiso   1.00
C735   C     0.79621   0.16387   0.83205   0.00000  Uiso   1.00
C736   C     0.87055   0.16994   0.66789   0.00000  Uiso   1.00
C737   C     0.77146   0.16187   0.87638   0.00000  Uiso   1.00
C738   C     0.89552   0.17250   0.62354   0.00000  Uiso   1.00
C739   C     0.68821   0.13320   0.93138   0.00000  Uiso   1.00
C740   C     0.97772   0.19996   0.56848   0.00000  Uiso   1.00
C741   C     0.70714   0.14714   0.89147   0.00000  Uiso   1.00
C742   C     0.95973   0.18737   0.60853   0.00000  Uiso   1.00
C743   C     0.81549   0.17135   0.90637   0.00000  Uiso   1.00
C744   C     0.85170   0.16305   0.59332   0.00000  Uiso   1.00
C745   C     0.79923   0.16026   0.94872   0.00000  Uiso   1.00
C746   C     0.86837   0.17292   0.55072   0.00000  Uiso   1.00
C747   C     0.73433   0.14190   0.96043   0.00000  Uiso   1.00
C748   C     0.93291   0.19074   0.53911   0.00000  Uiso   1.00
C749   C     0.84537   0.16752   0.97927   0.00000  Uiso   1.00
C750   C     0.82318   0.16526   0.51991   0.00000  Uiso   1.00
Cu751  Cu    0.77404   0.16108   0.74517   0.00000  Uiso   1.00
Cu752  Cu    0.89263   0.17225   0.75484   0.00000  Uiso   1.00
H753   H     0.66918   0.12621   0.51301   0.00000  Uiso   1.00
H754   H     0.99926   0.20546   0.98698   0.00000  Uiso   1.00
H755   H     0.80328   0.14721   0.60222   0.00000  Uiso   1.00
H756   H     0.86390   0.18781   0.89771   0.00000  Uiso   1.00
H757   H     0.73848   0.14019   0.55832   0.00000  Uiso   1.00
H758   H     0.93123   0.19166   0.94081   0.00000  Uiso   1.00
H759   H     0.90074   0.00567   0.76055   0.00000  Uiso   1.00
H760   H     0.76593   0.32766   0.73945   0.00000  Uiso   1.00
H761   H     0.67359   0.21289   0.76872   0.00000  Uiso   1.00
H762   H     0.99311   0.12016   0.73170   0.00000  Uiso   1.00
N763   N     0.98173   0.18068   0.76212   0.00000  Uiso   1.00
N764   N     0.68494   0.15265   0.73788   0.00000  Uiso   1.00
O765   O     0.79482   0.23809   0.74686   0.00000  Uiso   1.00
O766   O     0.87185   0.09524   0.75314   0.00000  Uiso   1.00
O767   O     0.89496   0.24753   0.75503   0.00000  Uiso   1.00
O768   O     0.77171   0.08580   0.74498   0.00000  Uiso   1.00
O769   O     0.75518   0.15930   0.80855   0.00000  Uiso   1.00
O770   O     0.91149   0.17403   0.69146   0.00000  Uiso   1.00
O771   O     0.85532   0.16874   0.81671   0.00000  Uiso   1.00
O772   O     0.81134   0.16460   0.68329   0.00000  Uiso   1.00
O773   O     0.67304   0.18201   0.63203   0.00000  Uiso   1.00
C774   C     0.68113   0.21456   0.65956   0.00000  Uiso   1.00
H775   H     0.67354   0.18466   0.68036   0.00000  Uiso   1.00
H776   H     0.97946   0.24062   0.65836   0.00000  Uiso   1.00
H777   H     0.72846   0.23358   0.66633   0.00000  Uiso   1.00
O778   O     0.99495   0.15105   0.86691   0.00000  Uiso   1.00
C779   C     0.98647   0.11495   0.84186   0.00000  Uiso   1.00
H780   H     0.69052   0.09035   0.84360   0.00000  Uiso   1.00
H781   H     0.99217   0.14258   0.81915   0.00000  Uiso   1.00
H782   H     0.93954   0.09376   0.83476   0.00000  Uiso   1.00
O783   O     0.95707   0.11673   0.94369   0.00000  Uiso   1.00
C784   C     0.90111   0.10080   0.92226   0.00000  Uiso   1.00
H785   H     0.88516   0.06503   0.93822   0.00000  Uiso   1.00
H786   H     0.91870   0.10350   0.89466   0.00000  Uiso   1.00
H787   H     0.87878   0.08893   0.89685   0.00000  Uiso   1.00
O788   O     0.70723   0.21159   0.55597   0.00000  Uiso   1.00
C789   C     0.76307   0.23303   0.57453   0.00000  Uiso   1.00
H790   H     0.74627   0.24624   0.60219   0.00000  Uiso   1.00
H791   H     0.77522   0.26762   0.55678   0.00000  Uiso   1.00
H792   H     0.79586   0.24008   0.59960   0.00000  Uiso   1.00
C793   C     0.18063   0.59966   0.75143   0.00000  Uiso   1.00
C794   C     0.15271   0.40034   0.74857   0.00000  Uiso   1.00
C795   C     0.09158   0.48510   0.52809   0.00000  Uiso   1.00
C796   C     0.24412   0.51415   0.97102   0.00000  Uiso   1.00
C797   C     0.04910   0.47187   0.50104   0.00000  Uiso   1.00
C798   C     0.28593   0.52673   0.99863   0.00000  Uiso   1.00
C799   C     0.18906   0.65377   0.75326   0.00000  Uiso   1.00
C800   C     0.14427   0.34623   0.74674   0.00000  Uiso   1.00
C801   C     0.12955   0.49721   0.83205   0.00000  Uiso   1.00
C802   C     0.20388   0.50327   0.66789   0.00000  Uiso   1.00
C803   C     0.10479   0.49520   0.87638   0.00000  Uiso   1.00
C804   C     0.22885   0.50583   0.62354   0.00000  Uiso   1.00
C805   C     0.02154   0.46654   0.93138   0.00000  Uiso   1.00
C806   C     0.31106   0.53330   0.56848   0.00000  Uiso   1.00
C807   C     0.04048   0.48047   0.89147   0.00000  Uiso   1.00
C808   C     0.29307   0.52070   0.60853   0.00000  Uiso   1.00
C809   C     0.14882   0.50468   0.90637   0.00000  Uiso   1.00
C810   C     0.18503   0.49638   0.59332   0.00000  Uiso   1.00
C811   C     0.13257   0.49360   0.94872   0.00000  Uiso   1.00
C812   C     0.20171   0.50625   0.55072   0.00000  Uiso   1.00
C813   C     0.06767   0.47524   0.96043   0.00000  Uiso   1.00
C814   C     0.26625   0.52407   0.53911   0.00000  Uiso   1.00
C815   C     0.17871   0.50085   0.97927   0.00000  Uiso   1.00
C816   C     0.15651   0.49860   0.51991   0.00000  Uiso   1.00
Cu817  Cu    0.10737   0.49441   0.74517   0.00000  Uiso   1.00
Cu818  Cu    0.22596   0.50559   0.75484   0.00000  Uiso   1.00
H819   H     0.00251   0.45954   0.51301   0.00000  Uiso   1.00
H820   H     0.33259   0.53879   0.98698   0.00000  Uiso   1.00
H821   H     0.13662   0.48054   0.60222   0.00000  Uiso   1.00
H822   H     0.19724   0.52114   0.89771   0.00000  Uiso   1.00
H823   H     0.07181   0.47352   0.55832   0.00000  Uiso   1.00
H824   H     0.26456   0.52500   0.94081   0.00000  Uiso   1.00
H825   H     0.23407   0.33901   0.76055   0.00000  Uiso   1.00
H826   H     0.09927   0.66100   0.73945   0.00000  Uiso   1.00
H827   H     0.00692   0.54622   0.76872   0.00000  Uiso   1.00
H828   H     0.32644   0.45349   0.73170   0.00000  Uiso   1.00
N829   N     0.31506   0.51401   0.76212   0.00000  Uiso   1.00
N830   N     0.01827   0.48599   0.73788   0.00000  Uiso   1.00
O831   O     0.12815   0.57142   0.74686   0.00000  Uiso   1.00
O832   O     0.20518   0.42858   0.75314   0.00000  Uiso   1.00
O833   O     0.22829   0.58086   0.75503   0.00000  Uiso   1.00
O834   O     0.10504   0.41914   0.74498   0.00000  Uiso   1.00
O835   O     0.08851   0.49263   0.80855   0.00000  Uiso   1.00
O836   O     0.24482   0.50737   0.69146   0.00000  Uiso   1.00
O837   O     0.18866   0.50207   0.81671   0.00000  Uiso   1.00
O838   O     0.14468   0.49793   0.68329   0.00000  Uiso   1.00
O839   O     0.00637   0.51535   0.63203   0.00000  Uiso   1.00
C840   C     0.01446   0.54789   0.65956   0.00000  Uiso   1.00
H841   H     0.00688   0.51800   0.68036   0.00000  Uiso   1.00
H842   H     0.31279   0.57396   0.65836   0.00000  Uiso   1.00
H843   H     0.06179   0.56692   0.66633   0.00000  Uiso   1.00
O844   O     0.32828   0.48438   0.86691   0.00000  Uiso   1.00
C845   C     0.31980   0.44828   0.84186   0.00000  Uiso   1.00
H846   H     0.02385   0.42368   0.84360   0.00000  Uiso   1.00
H847   H     0.32550   0.47592   0.81915   0.00000  Uiso   1.00
H848   H     0.27287   0.42709   0.83476   0.00000  Uiso   1.00
O849   O     0.29040   0.45006   0.94369   0.00000  Uiso   1.00
C850   C     0.23444   0.43413   0.92226   0.00000  Uiso   1.00
H851   H     0.21849   0.39836   0.93822   0.00000  Uiso   1.00
H852   H     0.25203   0.43683   0.89466   0.00000  Uiso   1.00
H853   H     0.21211   0.42227   0.89685   0.00000  Uiso   1.00
O854   O     0.04056   0.54492   0.55597   0.00000  Uiso   1.00
C855   C     0.09640   0.56637   0.57453   0.00000  Uiso   1.00
H856   H     0.07960   0.57957   0.60219   0.00000  Uiso   1.00
H857   H     0.10855   0.60096   0.55678   0.00000  Uiso   1.00
H858   H     0.12919   0.57341   0.59960   0.00000  Uiso   1.00
C859   C     0.51396   0.59966   0.75143   0.00000  Uiso   1.00
C860   C     0.48604   0.40034   0.74857   0.00000  Uiso   1.00
C861   C     0.42491   0.48510   0.52809   0.00000  Uiso   1.00
C862   C     0.57745   0.51415   0.97102   0.00000  Uiso   1.00
C863   C     0.38244   0.47187   0.50104   0.00000  Uiso   1.00
C864   C     0.61927   0.52673   0.99863   0.00000  Uiso   1.00
C865   C     0.52239   0.65377   0.75326   0.00000  Uiso   1.00
C866   C     0.47761   0.34623   0.74674   0.00000  Uiso   1.00
C867   C     0.46288   0.49721   0.83205   0.00000  Uiso   1.00
C868   C     0.53721   0.50327   0.66789   0.00000  Uiso   1.00
C869   C     0.43812   0.49520   0.87638   0.00000  Uiso   1.00
C870   C     0.56219   0.50583   0.62354   0.00000  Uiso   1.00
C871   C     0.35488   0.46654   0.93138   0.00000  Uiso   1.00
C872   C     0.64439   0.53330   0.56848   0.00000  Uiso   1.00
C873   C     0.37381   0.48047   0.89147   0.00000  Uiso   1.00
C874   C     0.62640   0.52070   0.60853   0.00000  Uiso   1.00
C875   C     0.48215   0.50468   0.90637   0.00000  Uiso   1.00
C876   C     0.51837   0.49638   0.59332   0.00000  Uiso   1.00
C877   C     0.46590   0.49360   0.94872   0.00000  Uiso   1.00
C878   C     0.53504   0.50625   0.55072   0.00000  Uiso   1.00
C879   C     0.40100   0.47524   0.96043   0.00000  Uiso   1.00
C880   C     0.59958   0.52407   0.53911   0.00000  Uiso   1.00
C881   C     0.51204   0.50085   0.97927   0.00000  Uiso   1.00
C882   C     0.48984   0.49860   0.51991   0.00000  Uiso   1.00
Cu883  Cu    0.44071   0.49441   0.74517   0.00000  Uiso   1.00
Cu884  Cu    0.55929   0.50559   0.75484   0.00000  Uiso   1.00
H885   H     0.33585   0.45954   0.51301   0.00000  Uiso   1.00
H886   H     0.66592   0.53879   0.98698   0.00000  Uiso   1.00
H887   H     0.46995   0.48054   0.60222   0.00000  Uiso   1.00
H888   H     0.53057   0.52114   0.89771   0.00000  Uiso   1.00
H889   H     0.40515   0.47352   0.55832   0.00000  Uiso   1.00
H890   H     0.59790   0.52500   0.94081   0.00000  Uiso   1.00
H891   H     0.56740   0.33901   0.76055   0.00000  Uiso   1.00
H892   H     0.43260   0.66100   0.73945   0.00000  Uiso   1.00
H893   H     0.34025   0.54622   0.76872   0.00000  Uiso   1.00
H894   H     0.65977   0.45349   0.73170   0.00000  Uiso   1.00
N895   N     0.64839   0.51401   0.76212   0.00000  Uiso   1.00
N896   N     0.35161   0.48599   0.73788   0.00000  Uiso   1.00
O897   O     0.46148   0.57142   0.74686   0.00000  Uiso   1.00
O898   O     0.53852   0.42858   0.75314   0.00000  Uiso   1.00
O899   O     0.56163   0.58086   0.75503   0.00000  Uiso   1.00
O900   O     0.43837   0.41914   0.74498   0.00000  Uiso   1.00
O901   O     0.42185   0.49263   0.80855   0.00000  Uiso   1.00
O902   O     0.57815   0.50737   0.69146   0.00000  Uiso   1.00
O903   O     0.52199   0.50207   0.81671   0.00000  Uiso   1.00
O904   O     0.47801   0.49793   0.68329   0.00000  Uiso   1.00
O905   O     0.33970   0.51535   0.63203   0.00000  Uiso   1.00
C906   C     0.34780   0.54789   0.65956   0.00000  Uiso   1.00
H907   H     0.34021   0.51800   0.68036   0.00000  Uiso   1.00
H908   H     0.64613   0.57396   0.65836   0.00000  Uiso   1.00
H909   H     0.39513   0.56692   0.66633   0.00000  Uiso   1.00
O910   O     0.66161   0.48438   0.86691   0.00000  Uiso   1.00
C911   C     0.65313   0.44828   0.84186   0.00000  Uiso   1.00
H912   H     0.35719   0.42368   0.84360   0.00000  Uiso   1.00
H913   H     0.65883   0.47592   0.81915   0.00000  Uiso   1.00
H914   H     0.60621   0.42709   0.83476   0.00000  Uiso   1.00
O915   O     0.62373   0.45006   0.94369   0.00000  Uiso   1.00
C916   C     0.56778   0.43413   0.92226   0.00000  Uiso   1.00
H917   H     0.55182   0.39836   0.93822   0.00000  Uiso   1.00
H918   H     0.58537   0.43683   0.89466   0.00000  Uiso   1.00
H919   H     0.54545   0.42227   0.89685   0.00000  Uiso   1.00
O920   O     0.37389   0.54492   0.55597   0.00000  Uiso   1.00
C921   C     0.42974   0.56637   0.57453   0.00000  Uiso   1.00
H922   H     0.41293   0.57957   0.60219   0.00000  Uiso   1.00
H923   H     0.44189   0.60096   0.55678   0.00000  Uiso   1.00
H924   H     0.46253   0.57341   0.59960   0.00000  Uiso   1.00
C925   C     0.84729   0.59966   0.75143   0.00000  Uiso   1.00
C926   C     0.81937   0.40034   0.74857   0.00000  Uiso   1.00
C927   C     0.75825   0.48510   0.52809   0.00000  Uiso   1.00
C928   C     0.91078   0.51415   0.97102   0.00000  Uiso   1.00
C929   C     0.71577   0.47187   0.50104   0.00000  Uiso   1.00
C930   C     0.95260   0.52673   0.99863   0.00000  Uiso   1.00
C931   C     0.85573   0.65377   0.75326   0.00000  Uiso   1.00
C932   C     0.81094   0.34623   0.74674   0.00000  Uiso   1.00
C933   C     0.79621   0.49721   0.83205   0.00000  Uiso   1.00
C934   C     0.87055   0.50327   0.66789   0.00000  Uiso   1.00
C935   C     0.77146   0.49520   0.87638   0.00000  Uiso   1.00
C936   C     0.89552   0.50583   0.62354   0.00000  Uiso   1.00
C937   C     0.68821   0.46654   0.93138   0.00000  Uiso   1.00
C938   C     0.97772   0.53330   0.56848   0.00000  Uiso   1.00
C939   C     0.70714   0.48047   0.89147   0.00000  Uiso   1.00
C940   C     0.95973   0.52070   0.60853   0.00000  Uiso   1.00
C941   C     0.81549   0.50468   0.90637   0.00000  Uiso   1.00
C942   C     0.85170   0.49638   0.59332   0.00000  Uiso   1.00
C943   C     0.79923   0.49360   0.94872   0.00000  Uiso   1.00
C944   C     0.86837   0.50625   0.55072   0.00000  Uiso   1.00
C945   C     0.73433   0.47524   0.96043   0.00000  Uiso   1.00
C946   C     0.93291   0.52407   0.53911   0.00000  Uiso   1.00
C947   C     0.84537   0.50085   0.97927   0.00000  Uiso   1.00
C948   C     0.82318   0.49860   0.51991   0.00000  Uiso   1.00
Cu949  Cu    0.77404   0.49441   0.74517   0.00000  Uiso   1.00
Cu950  Cu    0.89263   0.50559   0.75484   0.00000  Uiso   1.00
H951   H     0.66918   0.45954   0.51301   0.00000  Uiso   1.00
H952   H     0.99926   0.53879   0.98698   0.00000  Uiso   1.00
H953   H     0.80328   0.48054   0.60222   0.00000  Uiso   1.00
H954   H     0.86390   0.52114   0.89771   0.00000  Uiso   1.00
H955   H     0.73848   0.47352   0.55832   0.00000  Uiso   1.00
H956   H     0.93123   0.52500   0.94081   0.00000  Uiso   1.00
H957   H     0.90074   0.33901   0.76055   0.00000  Uiso   1.00
H958   H     0.76593   0.66100   0.73945   0.00000  Uiso   1.00
H959   H     0.67359   0.54622   0.76872   0.00000  Uiso   1.00
H960   H     0.99311   0.45349   0.73170   0.00000  Uiso   1.00
N961   N     0.98173   0.51401   0.76212   0.00000  Uiso   1.00
N962   N     0.68494   0.48599   0.73788   0.00000  Uiso   1.00
O963   O     0.79482   0.57142   0.74686   0.00000  Uiso   1.00
O964   O     0.87185   0.42858   0.75314   0.00000  Uiso   1.00
O965   O     0.89496   0.58086   0.75503   0.00000  Uiso   1.00
O966   O     0.77171   0.41914   0.74498   0.00000  Uiso   1.00
O967   O     0.75518   0.49263   0.80855   0.00000  Uiso   1.00
O968   O     0.91149   0.50737   0.69146   0.00000  Uiso   1.00
O969   O     0.85532   0.50207   0.81671   0.00000  Uiso   1.00
O970   O     0.81134   0.49793   0.68329   0.00000  Uiso   1.00
O971   O     0.67304   0.51535   0.63203   0.00000  Uiso   1.00
C972   C     0.68113   0.54789   0.65956   0.00000  Uiso   1.00
H973   H     0.67354   0.51800   0.68036   0.00000  Uiso   1.00
H974   H     0.97946   0.57396   0.65836   0.00000  Uiso   1.00
H975   H     0.72846   0.56692   0.66633   0.00000  Uiso   1.00
O976   O     0.99495   0.48438   0.86691   0.00000  Uiso   1.00
C977   C     0.98647   0.44828   0.84186   0.00000  Uiso   1.00
H978   H     0.69052   0.42368   0.84360   0.00000  Uiso   1.00
H979   H     0.99217   0.47592   0.81915   0.00000  Uiso   1.00
H980   H     0.93954   0.42709   0.83476   0.00000  Uiso   1.00
O981   O     0.95707   0.45006   0.94369   0.00000  Uiso   1.00
C982   C     0.90111   0.43413   0.92226   0.00000  Uiso   1.00
H983   H     0.88516   0.39836   0.93822   0.00000  Uiso   1.00
H984   H     0.91870   0.43683   0.89466   0.00000  Uiso   1.00
H985   H     0.87878   0.42227   0.89685   0.00000  Uiso   1.00
O986   O     0.70723   0.54492   0.55597   0.00000  Uiso   1.00
C987   C     0.76307   0.56637   0.57453   0.00000  Uiso   1.00
H988   H     0.74627   0.57957   0.60219   0.00000  Uiso   1.00
H989   H     0.77522   0.60096   0.55678   0.00000  Uiso   1.00
H990   H     0.79586   0.57341   0.59960   0.00000  Uiso   1.00
C991   C     0.18063   0.93299   0.75143   0.00000  Uiso   1.00
C992   C     0.15271   0.73368   0.74857   0.00000  Uiso   1.00
C993   C     0.09158   0.81843   0.52809   0.00000  Uiso   1.00
C994   C     0.24412   0.84748   0.97102   0.00000  Uiso   1.00
C995   C     0.04910   0.80521   0.50104   0.00000  Uiso   1.00
C996   C     0.28593   0.86006   0.99863   0.00000  Uiso   1.00
C997   C     0.18906   0.98710   0.75326   0.00000  Uiso   1.00
C998   C     0.14427   0.67956   0.74674   0.00000  Uiso   1.00
C999   C     0.12955   0.83054   0.83205   0.00000  Uiso   1.00
C1000  C     0.20388   0.83661   0.66789   0.00000  Uiso   1.00
C1001  C     0.10479   0.82853   0.87638   0.00000  Uiso   1.00
C1002  C     0.22885   0.83916   0.62354   0.00000  Uiso   1.00
C1003  C     0.02154   0.79987   0.93138   0.00000  Uiso   1.00
C1004  C     0.31106   0.86663   0.56848   0.00000  Uiso   1.00
C1005  C     0.04048   0.81380   0.89147   0.00000  Uiso   1.00
C1006  C     0.29307   0.85404   0.60853   0.00000  Uiso   1.00
C1007  C     0.14882   0.83802   0.90637   0.00000  Uiso   1.00
C1008  C     0.18503   0.82972   0.59332   0.00000  Uiso   1.00
C1009  C     0.13257   0.82693   0.94872   0.00000  Uiso   1.00
C1010  C     0.20171   0.83959   0.55072   0.00000  Uiso   1.00
C1011  C     0.06767   0.80857   0.96043   0.00000  Uiso   1.00
C1012  C     0.26625   0.85741   0.53911   0.00000  Uiso   1.00
C1013  C     0.17871   0.83418   0.97927   0.00000  Uiso   1.00
C1014  C     0.15651   0.83193   0.51991   0.00000  Uiso   1.00
Cu1015 Cu    0.10737   0.82775   0.74517   0.00000  Uiso   1.00
Cu1016 Cu    0.22596   0.83892   0.75484   0.00000  Uiso   1.00
H1017  H     0.00251   0.79287   0.51301   0.00000  Uiso   1.00
H1018  H     0.33259   0.87213   0.98698   0.00000  Uiso   1.00
H1019  H     0.13662   0.81387   0.60222   0.00000  Uiso   1.00
H1020  H     0.19724   0.85447   0.89771   0.00000  Uiso   1.00
H1021  H     0.07181   0.80686   0.55832   0.00000  Uiso   1.00
H1022  H     0.26456   0.85833   0.94081   0.00000  Uiso   1.00
H1023  H     0.23407   0.67234   0.76055   0.00000  Uiso   1.00
H1024  H     0.09927   0.99433   0.73945   0.00000  Uiso   1.00
H1025  H     0.00692   0.87956   0.76872   0.00000  Uiso   1.00
H1026  H     0.32644   0.78682   0.73170   0.00000  Uiso   1.00
N1027  N     0.31506   0.84735   0.76212   0.00000  Uiso   1.00
N1028  N     0.01827   0.81932   0.73788   0.00000  Uiso   1.00
O1029  O     0.12815   0.90476   0.74686   0.00000  Uiso   1.00
O1030  O     0.20518   0.76191   0.75314   0.00000  Uiso   1.00
O1031  O     0.22829   0.91420   0.75503   0.00000  Uiso   1.00
O1032  O     0.10504   0.75247   0.74498   0.00000  Uiso   1.00
O1033  O     0.08851   0.82597   0.80855   0.00000  Uiso   1.00
O1034  O     0.24482   0.84070   0.69146   0.00000  Uiso   1.00
O1035  O     0.18866   0.83540   0.81671   0.00000  Uiso   1.00
O1036  O     0.14468   0.83126   0.68329   0.00000  Uiso   1.00
O1037  O     0.00637   0.84868   0.63203   0.00000  Uiso   1.00
C1038  C     0.01446   0.88123   0.65956   0.00000  Uiso   1.00
H1039  H     0.00688   0.85133   0.68036   0.00000  Uiso   1.00
H1040  H     0.31279   0.90729   0.65836   0.00000  Uiso   1.00
H1041  H     0.06179   0.90025   0.66633   0.00000  Uiso   1.00
O1042  O     0.32828   0.81772   0.86691   0.00000  Uiso   1.00
C1043  C     0.31980   0.78162   0.84186   0.00000  Uiso   1.00
H1044  H     0.02385   0.75701   0.84360   0.00000  Uiso   1.00
H1045  H     0.32550   0.80925   0.81915   0.00000  Uiso   1.00
H1046  H     0.27287   0.76042   0.83476   0.00000  Uiso   1.00
O1047  O     0.29040   0.78339   0.94369   0.00000  Uiso   1.00
C1048  C     0.23444   0.76747   0.92226   0.00000  Uiso   1.00
H1049  H     0.21849   0.73169   0.93822   0.00000  Uiso   1.00
H1050  H     0.25203   0.77016   0.89466   0.00000  Uiso   1.00
H1051  H     0.21211   0.75560   0.89685   0.00000  Uiso   1.00
O1052  O     0.04056   0.87826   0.55597   0.00000  Uiso   1.00
C1053  C     0.09640   0.89970   0.57453   0.00000  Uiso   1.00
H1054  H     0.07960   0.91290   0.60219   0.00000  Uiso   1.00
H1055  H     0.10855   0.93429   0.55678   0.00000  Uiso   1.00
H1056  H     0.12919   0.90675   0.59960   0.00000  Uiso   1.00
C1057  C     0.51396   0.93299   0.75143   0.00000  Uiso   1.00
C1058  C     0.48604   0.73368   0.74857   0.00000  Uiso   1.00
C1059  C     0.42491   0.81843   0.52809   0.00000  Uiso   1.00
C1060  C     0.57745   0.84748   0.97102   0.00000  Uiso   1.00
C1061  C     0.38244   0.80521   0.50104   0.00000  Uiso   1.00
C1062  C     0.61927   0.86006   0.99863   0.00000  Uiso   1.00
C1063  C     0.52239   0.98710   0.75326   0.00000  Uiso   1.00
C1064  C     0.47761   0.67956   0.74674   0.00000  Uiso   1.00
C1065  C     0.46288   0.83054   0.83205   0.00000  Uiso   1.00
C1066  C     0.53721   0.83661   0.66789   0.00000  Uiso   1.00
C1067  C     0.43812   0.82853   0.87638   0.00000  Uiso   1.00
C1068  C     0.56219   0.83916   0.62354   0.00000  Uiso   1.00
C1069  C     0.35488   0.79987   0.93138   0.00000  Uiso   1.00
C1070  C     0.64439   0.86663   0.56848   0.00000  Uiso   1.00
C1071  C     0.37381   0.81380   0.89147   0.00000  Uiso   1.00
C1072  C     0.62640   0.85404   0.60853   0.00000  Uiso   1.00
C1073  C     0.48215   0.83802   0.90637   0.00000  Uiso   1.00
C1074  C     0.51837   0.82972   0.59332   0.00000  Uiso   1.00
C1075  C     0.46590   0.82693   0.94872   0.00000  Uiso   1.00
C1076  C     0.53504   0.83959   0.55072   0.00000  Uiso   1.00
C1077  C     0.40100   0.80857   0.96043   0.00000  Uiso   1.00
C1078  C     0.59958   0.85741   0.53911   0.00000  Uiso   1.00
C1079  C     0.51204   0.83418   0.97927   0.00000  Uiso   1.00
C1080  C     0.48984   0.83193   0.51991   0.00000  Uiso   1.00
Cu1081 Cu    0.44071   0.82775   0.74517   0.00000  Uiso   1.00
Cu1082 Cu    0.55929   0.83892   0.75484   0.00000  Uiso   1.00
H1083  H     0.33585   0.79287   0.51301   0.00000  Uiso   1.00
H1084  H     0.66592   0.87213   0.98698   0.00000  Uiso   1.00
H1085  H     0.46995   0.81387   0.60222   0.00000  Uiso   1.00
H1086  H     0.53057   0.85447   0.89771   0.00000  Uiso   1.00
H1087  H     0.40515   0.80686   0.55832   0.00000  Uiso   1.00
H1088  H     0.59790   0.85833   0.94081   0.00000  Uiso   1.00
H1089  H     0.56740   0.67234   0.76055   0.00000  Uiso   1.00
H1090  H     0.43260   0.99433   0.73945   0.00000  Uiso   1.00
H1091  H     0.34025   0.87956   0.76872   0.00000  Uiso   1.00
H1092  H     0.65977   0.78682   0.73170   0.00000  Uiso   1.00
N1093  N     0.64839   0.84735   0.76212   0.00000  Uiso   1.00
N1094  N     0.35161   0.81932   0.73788   0.00000  Uiso   1.00
O1095  O     0.46148   0.90476   0.74686   0.00000  Uiso   1.00
O1096  O     0.53852   0.76191   0.75314   0.00000  Uiso   1.00
O1097  O     0.56163   0.91420   0.75503   0.00000  Uiso   1.00
O1098  O     0.43837   0.75247   0.74498   0.00000  Uiso   1.00
O1099  O     0.42185   0.82597   0.80855   0.00000  Uiso   1.00
O1100  O     0.57815   0.84070   0.69146   0.00000  Uiso   1.00
O1101  O     0.52199   0.83540   0.81671   0.00000  Uiso   1.00
O1102  O     0.47801   0.83126   0.68329   0.00000  Uiso   1.00
O1103  O     0.33970   0.84868   0.63203   0.00000  Uiso   1.00
C1104  C     0.34780   0.88123   0.65956   0.00000  Uiso   1.00
H1105  H     0.34021   0.85133   0.68036   0.00000  Uiso   1.00
H1106  H     0.64613   0.90729   0.65836   0.00000  Uiso   1.00
H1107  H     0.39513   0.90025   0.66633   0.00000  Uiso   1.00
O1108  O     0.66161   0.81772   0.86691   0.00000  Uiso   1.00
C1109  C     0.65313   0.78162   0.84186   0.00000  Uiso   1.00
H1110  H     0.35719   0.75701   0.84360   0.00000  Uiso   1.00
H1111  H     0.65883   0.80925   0.81915   0.00000  Uiso   1.00
H1112  H     0.60621   0.76042   0.83476   0.00000  Uiso   1.00
O1113  O     0.62373   0.78339   0.94369   0.00000  Uiso   1.00
C1114  C     0.56778   0.76747   0.92226   0.00000  Uiso   1.00
H1115  H     0.55182   0.73169   0.93822   0.00000  Uiso   1.00
H1116  H     0.58537   0.77016   0.89466   0.00000  Uiso   1.00
H1117  H     0.54545   0.75560   0.89685   0.00000  Uiso   1.00
O1118  O     0.37389   0.87826   0.55597   0.00000  Uiso   1.00
C1119  C     0.42974   0.89970   0.57453   0.00000  Uiso   1.00
H1120  H     0.41293   0.91290   0.60219   0.00000  Uiso   1.00
H1121  H     0.44189   0.93429   0.55678   0.00000  Uiso   1.00
H1122  H     0.46253   0.90675   0.59960   0.00000  Uiso   1.00
C1123  C     0.84729   0.93299   0.75143   0.00000  Uiso   1.00
C1124  C     0.81937   0.73368   0.74857   0.00000  Uiso   1.00
C1125  C     0.75825   0.81843   0.52809   0.00000  Uiso   1.00
C1126  C     0.91078   0.84748   0.97102   0.00000  Uiso   1.00
C1127  C     0.71577   0.80521   0.50104   0.00000  Uiso   1.00
C1128  C     0.95260   0.86006   0.99863   0.00000  Uiso   1.00
C1129  C     0.85573   0.98710   0.75326   0.00000  Uiso   1.00
C1130  C     0.81094   0.67956   0.74674   0.00000  Uiso   1.00
C1131  C     0.79621   0.83054   0.83205   0.00000  Uiso   1.00
C1132  C     0.87055   0.83661   0.66789   0.00000  Uiso   1.00
C1133  C     0.77146   0.82853   0.87638   0.00000  Uiso   1.00
C1134  C     0.89552   0.83916   0.62354   0.00000  Uiso   1.00
C1135  C     0.68821   0.79987   0.93138   0.00000  Uiso   1.00
C1136  C     0.97772   0.86663   0.56848   0.00000  Uiso   1.00
C1137  C     0.70714   0.81380   0.89147   0.00000  Uiso   1.00
C1138  C     0.95973   0.85404   0.60853   0.00000  Uiso   1.00
C1139  C     0.81549   0.83802   0.90637   0.00000  Uiso   1.00
C1140  C     0.85170   0.82972   0.59332   0.00000  Uiso   1.00
C1141  C     0.79923   0.82693   0.94872   0.00000  Uiso   1.00
C1142  C     0.86837   0.83959   0.55072   0.00000  Uiso   1.00
C1143  C     0.73433   0.80857   0.96043   0.00000  Uiso   1.00
C1144  C     0.93291   0.85741   0.53911   0.00000  Uiso   1.00
C1145  C     0.84537   0.83418   0.97927   0.00000  Uiso   1.00
C1146  C     0.82318   0.83193   0.51991   0.00000  Uiso   1.00
Cu1147 Cu    0.77404   0.82775   0.74517   0.00000  Uiso   1.00
Cu1148 Cu    0.89263   0.83892   0.75484   0.00000  Uiso   1.00
H1149  H     0.66918   0.79287   0.51301   0.00000  Uiso   1.00
H1150  H     0.99926   0.87213   0.98698   0.00000  Uiso   1.00
H1151  H     0.80328   0.81387   0.60222   0.00000  Uiso   1.00
H1152  H     0.86390   0.85447   0.89771   0.00000  Uiso   1.00
H1153  H     0.73848   0.80686   0.55832   0.00000  Uiso   1.00
H1154  H     0.93123   0.85833   0.94081   0.00000  Uiso   1.00
H1155  H     0.90074   0.67234   0.76055   0.00000  Uiso   1.00
H1156  H     0.76593   0.99433   0.73945   0.00000  Uiso   1.00
H1157  H     0.67359   0.87956   0.76872   0.00000  Uiso   1.00
H1158  H     0.99311   0.78682   0.73170   0.00000  Uiso   1.00
N1159  N     0.98173   0.84735   0.76212   0.00000  Uiso   1.00
N1160  N     0.68494   0.81932   0.73788   0.00000  Uiso   1.00
O1161  O     0.79482   0.90476   0.74686   0.00000  Uiso   1.00
O1162  O     0.87185   0.76191   0.75314   0.00000  Uiso   1.00
O1163  O     0.89496   0.91420   0.75503   0.00000  Uiso   1.00
O1164  O     0.77171   0.75247   0.74498   0.00000  Uiso   1.00
O1165  O     0.75518   0.82597   0.80855   0.00000  Uiso   1.00
O1166  O     0.91149   0.84070   0.69146   0.00000  Uiso   1.00
O1167  O     0.85532   0.83540   0.81671   0.00000  Uiso   1.00
O1168  O     0.81134   0.83126   0.68329   0.00000  Uiso   1.00
O1169  O     0.67304   0.84868   0.63203   0.00000  Uiso   1.00
C1170  C     0.68113   0.88123   0.65956   0.00000  Uiso   1.00
H1171  H     0.67354   0.85133   0.68036   0.00000  Uiso   1.00
H1172  H     0.97946   0.90729   0.65836   0.00000  Uiso   1.00
H1173  H     0.72846   0.90025   0.66633   0.00000  Uiso   1.00
O1174  O     0.99495   0.81772   0.86691   0.00000  Uiso   1.00
C1175  C     0.98647   0.78162   0.84186   0.00000  Uiso   1.00
H1176  H     0.69052   0.75701   0.84360   0.00000  Uiso   1.00
H1177  H     0.99217   0.80925   0.81915   0.00000  Uiso   1.00
H1178  H     0.93954   0.76042   0.83476   0.00000  Uiso   1.00
O1179  O     0.95707   0.78339   0.94369   0.00000  Uiso   1.00
C1180  C     0.90111   0.76747   0.92226   0.00000  Uiso   1.00
H1181  H     0.88516   0.73169   0.93822   0.00000  Uiso   1.00
H1182  H     0.91870   0.77016   0.89466   0.00000  Uiso   1.00
H1183  H     0.87878   0.75560   0.89685   0.00000  Uiso   1.00
O1184  O     0.70723   0.87826   0.55597   0.00000  Uiso   1.00
C1185  C     0.76307   0.89970   0.57453   0.00000  Uiso   1.00
H1186  H     0.74627   0.91290   0.60219   0.00000  Uiso   1.00
H1187  H     0.77522   0.93429   0.55678   0.00000  Uiso   1.00
H1188  H     0.79586   0.90675   0.59960   0.00000  Uiso   1.00
loop_
_geom_bond_atom_site_label_1
_geom_bond_atom_site_label_2
_geom_bond_distance
_geom_bond_site_symmetry_2
_ccdc_geom_bond_type
C1     O39     1.274   .     A
C1     O41     1.267   .     A
C1     C7      1.468   .     S
C2     O42     1.267   .     A
C2     O40     1.274   .     A
C2     C8      1.468   .     S
C3     C24     1.409   .     A
C3     H31     1.087   .     S
C3     C5      1.349   .     A
C4     H32     1.088   .     S
C4     C6      1.350   .     A
C4     C23     1.419   .     A
C5     H27     1.062   .     S
C5     C615    1.399   1_554 S
C6     H28     1.059   .     S
C6     C616    1.403   .     S
C7     C206    1.344   .     S
C7     H231    1.064   .     S
C8     C403    1.344   1_545 S
C8     H430    1.064   1_545 S
C9     O45     1.353   .     A
C9     C11     1.558   .     S
C9     O43     1.220   .     A
C10    O46     1.354   .     A
C10    C12     1.559   .     S
C10    O44     1.220   .     A
C11    C17     1.431   .     A
C11    C15     1.446   .     A
C12    C16     1.444   .     A
C12    C18     1.434   .     A
C13    C15     1.391   .     A
C13    C21     1.437   .     A
C13    O189    1.429   1_455 S
C14    C22     1.426   .     A
C14    C16     1.386   .     A
C14    O128    1.391   .     S
C15    O184    1.343   1_455 S
C16    O113    1.349   .     S
C17    H30     1.085   .     S
C17    C19     1.449   .     A
C18    H29     1.084   .     S
C18    C20     1.455   .     A
C19    C23     1.472   .     A
C19    C21     1.439   .     A
C20    C22     1.429   .     A
C20    C24     1.465   .     A
C21    C599    1.399   .     S
C22    C600    1.403   1_554 S
C23    C618    1.424   .     S
C24    C617    1.424   1_554 S
Cu25   O42     2.062   .     S
Cu25   N38     1.954   .     S
Cu25   Cu26    2.601   .     S
Cu25   O43     2.149   .     S
Cu25   O39     2.079   .     S
Cu25   O46     2.191   .     S
Cu26   N37     1.954   .     S
Cu26   O40     2.079   .     S
Cu26   O44     2.149   .     S
Cu26   O45     2.191   .     S
Cu26   O41     2.062   .     S
H33    C403    1.064   1_545 S
H34    C206    1.064   .     S
H35    N169    0.990   1_455 S
H36    N104    0.991   .     S
N37    H101    0.990   .     S
N37    N104    1.480   .     S
N38    H168    0.991   1_455 S
N38    N169    1.480   1_455 S
O47    C48     1.327   .     S
O47    C148    1.349   1_455 S
C48    H49     1.022   .     S
C48    H51     1.106   .     S
C48    H182    1.155   1_455 S
H50    C114    1.155   .     S
O52    C53     1.338   .     S
O52    C81     1.343   .     S
C53    H55     1.023   .     S
C53    H56     1.121   .     S
C53    H120    1.168   .     S
H54    C185    1.168   1_455 S
O57    C58     1.460   .     S
O57    C79     1.429   .     S
C58    H61     1.045   .     S
C58    H60     0.982   .     S
C58    H59     1.070   .     S
O62    C63     1.439   .     S
O62    C146    1.391   1_455 S
C63    H65     1.064   .     S
C63    H66     1.136   .     S
C63    H64     1.099   .     S
C67    O105    1.274   .     A
C67    O107    1.267   .     A
C67    C73     1.468   .     S
C68    O108    1.267   .     A
C68    O106    1.274   .     A
C68    C74     1.468   .     S
C69    C90     1.409   .     A
C69    H97     1.087   .     S
C69    C71     1.349   .     A
C70    H98     1.088   .     S
C70    C72     1.350   .     A
C70    C89     1.419   .     A
C71    H93     1.062   .     S
C71    C681    1.399   1_554 S
C72    H94     1.059   .     S
C72    C682    1.403   .     S
C73    C272    1.344   .     S
C73    H297    1.064   .     S
C74    C469    1.344   1_545 S
C74    H496    1.064   1_545 S
C75    O111    1.353   .     A
C75    C77     1.558   .     S
C75    O109    1.220   .     A
C76    O112    1.354   .     A
C76    C78     1.559   .     S
C76    O110    1.220   .     A
C77    C83     1.431   .     A
C77    C81     1.446   .     A
C78    C82     1.444   .     A
C78    C84     1.434   .     A
C79    C81     1.391   .     A
C79    C87     1.437   .     A
C80    C88     1.426   .     A
C80    C82     1.386   .     A
C80    O194    1.391   .     S
C82    O179    1.349   .     S
C83    H96     1.085   .     S
C83    C85     1.449   .     A
C84    H95     1.084   .     S
C84    C86     1.455   .     A
C85    C89     1.472   .     A
C85    C87     1.439   .     A
C86    C88     1.429   .     A
C86    C90     1.465   .     A
C87    C665    1.399   .     S
C88    C666    1.403   1_554 S
C89    C684    1.424   .     S
C90    C683    1.424   1_554 S
Cu91   O108    2.062   .     S
Cu91   N104    1.954   .     S
Cu91   Cu92    2.601   .     S
Cu91   O109    2.149   .     S
Cu91   O105    2.079   .     S
Cu91   O112    2.191   .     S
Cu92   N103    1.954   .     S
Cu92   O106    2.079   .     S
Cu92   O110    2.149   .     S
Cu92   O111    2.191   .     S
Cu92   O107    2.062   .     S
H99    C469    1.064   1_545 S
H100   C272    1.064   .     S
H102   N170    0.991   .     S
N103   H167    0.990   .     S
N103   N170    1.480   .     S
O113   C114    1.327   .     S
C114   H115    1.022   .     S
C114   H117    1.106   .     S
H116   C180    1.155   .     S
O118   C119    1.338   .     S
O118   C147    1.343   .     S
C119   H121    1.023   .     S
C119   H122    1.121   .     S
C119   H186    1.168   .     S
O123   C124    1.460   .     S
O123   C145    1.429   .     S
C124   H127    1.045   .     S
C124   H126    0.982   .     S
C124   H125    1.070   .     S
O128   C129    1.439   .     S
C129   H131    1.064   .     S
C129   H132    1.136   .     S
C129   H130    1.099   .     S
C133   O171    1.274   .     A
C133   O173    1.267   .     A
C133   C139    1.468   .     S
C134   O174    1.267   .     A
C134   O172    1.274   .     A
C134   C140    1.468   .     S
C135   C156    1.409   .     A
C135   H163    1.087   .     S
C135   C137    1.349   .     A
C136   H164    1.088   .     S
C136   C138    1.350   .     A
C136   C155    1.419   .     A
C137   H159    1.062   .     S
C137   C747    1.399   1_554 S
C138   H160    1.059   .     S
C138   C748    1.403   .     S
C139   C338    1.344   .     S
C139   H363    1.064   .     S
C140   C535    1.344   1_545 S
C140   H562    1.064   1_545 S
C141   O177    1.353   .     A
C141   C143    1.558   .     S
C141   O175    1.220   .     A
C142   O178    1.354   .     A
C142   C144    1.559   .     S
C142   O176    1.220   .     A
C143   C149    1.431   .     A
C143   C147    1.446   .     A
C144   C148    1.444   .     A
C144   C150    1.434   .     A
C145   C147    1.391   .     A
C145   C153    1.437   .     A
C146   C154    1.426   .     A
C146   C148    1.386   .     A
C146   O62     1.391   1_655 S
C148   O47     1.349   1_655 S
C149   H162    1.085   .     S
C149   C151    1.449   .     A
C150   H161    1.084   .     S
C150   C152    1.455   .     A
C151   C155    1.472   .     A
C151   C153    1.439   .     A
C152   C154    1.429   .     A
C152   C156    1.465   .     A
C153   C731    1.399   .     S
C154   C732    1.403   1_554 S
C155   C750    1.424   .     S
C156   C749    1.424   1_554 S
Cu157  O174    2.062   .     S
Cu157  N170    1.954   .     S
Cu157  Cu158   2.601   .     S
Cu157  O175    2.149   .     S
Cu157  O171    2.079   .     S
Cu157  O178    2.191   .     S
Cu158  N169    1.954   .     S
Cu158  O172    2.079   .     S
Cu158  O176    2.149   .     S
Cu158  O177    2.191   .     S
Cu158  O173    2.062   .     S
H165   C535    1.064   1_545 S
H166   C338    1.064   .     S
H168   N38     0.991   1_655 S
N169   H35     0.990   1_655 S
N169   N38     1.480   1_655 S
O179   C180    1.327   .     S
C180   H181    1.022   .     S
C180   H183    1.106   .     S
H182   C48     1.155   1_655 S
O184   C185    1.338   .     S
O184   C15     1.343   1_655 S
C185   H187    1.023   .     S
C185   H188    1.121   .     S
C185   H54     1.168   1_655 S
O189   C190    1.460   .     S
O189   C13     1.429   1_655 S
C190   H193    1.045   .     S
C190   H192    0.982   .     S
C190   H191    1.070   .     S
O194   C195    1.439   .     S
C195   H197    1.064   .     S
C195   H198    1.136   .     S
C195   H196    1.099   .     S
C199   O237    1.274   .     A
C199   O239    1.267   .     A
C199   C205    1.468   .     S
C200   O240    1.267   .     A
C200   O238    1.274   .     A
C200   C206    1.468   .     S
C201   C222    1.409   .     A
C201   H229    1.087   .     S
C201   C203    1.349   .     A
C202   H230    1.088   .     S
C202   C204    1.350   .     A
C202   C221    1.419   .     A
C203   H225    1.062   .     S
C203   C813    1.399   1_554 S
C204   H226    1.059   .     S
C204   C814    1.403   .     S
C205   C404    1.344   .     S
C205   H429    1.064   .     S
C207   O243    1.353   .     A
C207   C209    1.558   .     S
C207   O241    1.220   .     A
C208   O244    1.354   .     A
C208   C210    1.559   .     S
C208   O242    1.220   .     A
C209   C215    1.431   .     A
C209   C213    1.446   .     A
C210   C214    1.444   .     A
C210   C216    1.434   .     A
C211   C213    1.391   .     A
C211   C219    1.437   .     A
C211   O387    1.429   1_455 S
C212   C220    1.426   .     A
C212   C214    1.386   .     A
C212   O326    1.391   .     S
C213   O382    1.343   1_455 S
C214   O311    1.349   .     S
C215   H228    1.085   .     S
C215   C217    1.449   .     A
C216   H227    1.084   .     S
C216   C218    1.455   .     A
C217   C221    1.472   .     A
C217   C219    1.439   .     A
C218   C220    1.429   .     A
C218   C222    1.465   .     A
C219   C797    1.399   .     S
C220   C798    1.403   1_554 S
C221   C816    1.424   .     S
C222   C815    1.424   1_554 S
Cu223  O240    2.062   .     S
Cu223  N236    1.954   .     S
Cu223  Cu224   2.601   .     S
Cu223  O241    2.149   .     S
Cu223  O237    2.079   .     S
Cu223  O244    2.191   .     S
Cu224  N235    1.954   .     S
Cu224  O238    2.079   .     S
Cu224  O242    2.149   .     S
Cu224  O243    2.191   .     S
Cu224  O239    2.062   .     S
H232   C404    1.064   .     S
H233   N367    0.990   1_455 S
H234   N302    0.991   .     S
N235   H299    0.990   .     S
N235   N302    1.480   .     S
N236   H366    0.991   1_455 S
N236   N367    1.480   1_455 S
O245   C246    1.327   .     S
O245   C346    1.349   1_455 S
C246   H247    1.022   .     S
C246   H249    1.106   .     S
C246   H380    1.155   1_455 S
H248   C312    1.155   .     S
O250   C251    1.338   .     S
O250   C279    1.343   .     S
C251   H253    1.023   .     S
C251   H254    1.121   .     S
C251   H318    1.168   .     S
H252   C383    1.168   1_455 S
O255   C256    1.460   .     S
O255   C277    1.429   .     S
C256   H259    1.045   .     S
C256   H258    0.982   .     S
C256   H257    1.070   .     S
O260   C261    1.439   .     S
O260   C344    1.391   1_455 S
C261   H263    1.064   .     S
C261   H264    1.136   .     S
C261   H262    1.099   .     S
C265   O303    1.274   .     A
C265   O305    1.267   .     A
C265   C271    1.468   .     S
C266   O306    1.267   .     A
C266   O304    1.274   .     A
C266   C272    1.468   .     S
C267   C288    1.409   .     A
C267   H295    1.087   .     S
C267   C269    1.349   .     A
C268   H296    1.088   .     S
C268   C270    1.350   .     A
C268   C287    1.419   .     A
C269   H291    1.062   .     S
C269   C879    1.399   1_554 S
C270   H292    1.059   .     S
C270   C880    1.403   .     S
C271   C470    1.344   .     S
C271   H495    1.064   .     S
C273   O309    1.353   .     A
C273   C275    1.558   .     S
C273   O307    1.220   .     A
C274   O310    1.354   .     A
C274   C276    1.559   .     S
C274   O308    1.220   .     A
C275   C281    1.431   .     A
C275   C279    1.446   .     A
C276   C280    1.444   .     A
C276   C282    1.434   .     A
C277   C279    1.391   .     A
C277   C285    1.437   .     A
C278   C286    1.426   .     A
C278   C280    1.386   .     A
C278   O392    1.391   .     S
C280   O377    1.349   .     S
C281   H294    1.085   .     S
C281   C283    1.449   .     A
C282   H293    1.084   .     S
C282   C284    1.455   .     A
C283   C287    1.472   .     A
C283   C285    1.439   .     A
C284   C286    1.429   .     A
C284   C288    1.465   .     A
C285   C863    1.399   .     S
C286   C864    1.403   1_554 S
C287   C882    1.424   .     S
C288   C881    1.424   1_554 S
Cu289  O306    2.062   .     S
Cu289  N302    1.954   .     S
Cu289  Cu290   2.601   .     S
Cu289  O307    2.149   .     S
Cu289  O303    2.079   .     S
Cu289  O310    2.191   .     S
Cu290  N301    1.954   .     S
Cu290  O304    2.079   .     S
Cu290  O308    2.149   .     S
Cu290  O309    2.191   .     S
Cu290  O305    2.062   .     S
H298   C470    1.064   .     S
H300   N368    0.991   .     S
N301   H365    0.990   .     S
N301   N368    1.480   .     S
O311   C312    1.327   .     S
C312   H313    1.022   .     S
C312   H315    1.106   .     S
H314   C378    1.155   .     S
O316   C317    1.338   .     S
O316   C345    1.343   .     S
C317   H319    1.023   .     S
C317   H320    1.121   .     S
C317   H384    1.168   .     S
O321   C322    1.460   .     S
O321   C343    1.429   .     S
C322   H325    1.045   .     S
C322   H324    0.982   .     S
C322   H323    1.070   .     S
O326   C327    1.439   .     S
C327   H329    1.064   .     S
C327   H330    1.136   .     S
C327   H328    1.099   .     S
C331   O369    1.274   .     A
C331   O371    1.267   .     A
C331   C337    1.468   .     S
C332   O372    1.267   .     A
C332   O370    1.274   .     A
C332   C338    1.468   .     S
C333   C354    1.409   .     A
C333   H361    1.087   .     S
C333   C335    1.349   .     A
C334   H362    1.088   .     S
C334   C336    1.350   .     A
C334   C353    1.419   .     A
C335   H357    1.062   .     S
C335   C945    1.399   1_554 S
C336   H358    1.059   .     S
C336   C946    1.403   .     S
C337   C536    1.344   .     S
C337   H561    1.064   .     S
C339   O375    1.353   .     A
C339   C341    1.558   .     S
C339   O373    1.220   .     A
C340   O376    1.354   .     A
C340   C342    1.559   .     S
C340   O374    1.220   .     A
C341   C347    1.431   .     A
C341   C345    1.446   .     A
C342   C346    1.444   .     A
C342   C348    1.434   .     A
C343   C345    1.391   .     A
C343   C351    1.437   .     A
C344   C352    1.426   .     A
C344   C346    1.386   .     A
C344   O260    1.391   1_655 S
C346   O245    1.349   1_655 S
C347   H360    1.085   .     S
C347   C349    1.449   .     A
C348   H359    1.084   .     S
C348   C350    1.455   .     A
C349   C353    1.472   .     A
C349   C351    1.439   .     A
C350   C352    1.429   .     A
C350   C354    1.465   .     A
C351   C929    1.399   .     S
C352   C930    1.403   1_554 S
C353   C948    1.424   .     S
C354   C947    1.424   1_554 S
Cu355  O372    2.062   .     S
Cu355  N368    1.954   .     S
Cu355  Cu356   2.601   .     S
Cu355  O373    2.149   .     S
Cu355  O369    2.079   .     S
Cu355  O376    2.191   .     S
Cu356  N367    1.954   .     S
Cu356  O370    2.079   .     S
Cu356  O374    2.149   .     S
Cu356  O375    2.191   .     S
Cu356  O371    2.062   .     S
H364   C536    1.064   .     S
H366   N236    0.991   1_655 S
N367   H233    0.990   1_655 S
N367   N236    1.480   1_655 S
O377   C378    1.327   .     S
C378   H379    1.022   .     S
C378   H381    1.106   .     S
H380   C246    1.155   1_655 S
O382   C383    1.338   .     S
O382   C213    1.343   1_655 S
C383   H385    1.023   .     S
C383   H386    1.121   .     S
C383   H252    1.168   1_655 S
O387   C388    1.460   .     S
O387   C211    1.429   1_655 S
C388   H391    1.045   .     S
C388   H390    0.982   .     S
C388   H389    1.070   .     S
O392   C393    1.439   .     S
C393   H395    1.064   .     S
C393   H396    1.136   .     S
C393   H394    1.099   .     S
C397   O435    1.274   .     A
C397   O437    1.267   .     A
C397   C403    1.468   .     S
C398   O438    1.267   .     A
C398   O436    1.274   .     A
C398   C404    1.468   .     S
C399   C420    1.409   .     A
C399   H427    1.087   .     S
C399   C401    1.349   .     A
C400   H428    1.088   .     S
C400   C402    1.350   .     A
C400   C419    1.419   .     A
C401   H423    1.062   .     S
C401   C1011   1.399   1_554 S
C402   H424    1.059   .     S
C402   C1012   1.403   .     S
C403   C8      1.344   1_565 S
C403   H33     1.064   1_565 S
C405   O441    1.353   .     A
C405   C407    1.558   .     S
C405   O439    1.220   .     A
C406   O442    1.354   .     A
C406   C408    1.559   .     S
C406   O440    1.220   .     A
C407   C413    1.431   .     A
C407   C411    1.446   .     A
C408   C412    1.444   .     A
C408   C414    1.434   .     A
C409   C411    1.391   .     A
C409   C417    1.437   .     A
C409   O585    1.429   1_455 S
C410   C418    1.426   .     A
C410   C412    1.386   .     A
C410   O524    1.391   .     S
C411   O580    1.343   1_455 S
C412   O509    1.349   .     S
C413   H426    1.085   .     S
C413   C415    1.449   .     A
C414   H425    1.084   .     S
C414   C416    1.455   .     A
C415   C419    1.472   .     A
C415   C417    1.439   .     A
C416   C418    1.429   .     A
C416   C420    1.465   .     A
C417   C995    1.399   .     S
C418   C996    1.403   1_554 S
C419   C1014   1.424   .     S
C420   C1013   1.424   1_554 S
Cu421  O438    2.062   .     S
Cu421  N434    1.954   .     S
Cu421  Cu422   2.601   .     S
Cu421  O439    2.149   .     S
Cu421  O435    2.079   .     S
Cu421  O442    2.191   .     S
Cu422  N433    1.954   .     S
Cu422  O436    2.079   .     S
Cu422  O440    2.149   .     S
Cu422  O441    2.191   .     S
Cu422  O437    2.062   .     S
H430   C8      1.064   1_565 S
H431   N565    0.990   1_455 S
H432   N500    0.991   .     S
N433   H497    0.990   .     S
N433   N500    1.480   .     S
N434   H564    0.991   1_455 S
N434   N565    1.480   1_455 S
O443   C444    1.327   .     S
O443   C544    1.349   1_455 S
C444   H445    1.022   .     S
C444   H447    1.106   .     S
C444   H578    1.155   1_455 S
H446   C510    1.155   .     S
O448   C449    1.338   .     S
O448   C477    1.343   .     S
C449   H451    1.023   .     S
C449   H452    1.121   .     S
C449   H516    1.168   .     S
H450   C581    1.168   1_455 S
O453   C454    1.460   .     S
O453   C475    1.429   .     S
C454   H457    1.045   .     S
C454   H456    0.982   .     S
C454   H455    1.070   .     S
O458   C459    1.439   .     S
O458   C542    1.391   1_455 S
C459   H461    1.064   .     S
C459   H462    1.136   .     S
C459   H460    1.099   .     S
C463   O501    1.274   .     A
C463   O503    1.267   .     A
C463   C469    1.468   .     S
C464   O504    1.267   .     A
C464   O502    1.274   .     A
C464   C470    1.468   .     S
C465   C486    1.409   .     A
C465   H493    1.087   .     S
C465   C467    1.349   .     A
C466   H494    1.088   .     S
C466   C468    1.350   .     A
C466   C485    1.419   .     A
C467   H489    1.062   .     S
C467   C1077   1.399   1_554 S
C468   H490    1.059   .     S
C468   C1078   1.403   .     S
C469   C74     1.344   1_565 S
C469   H99     1.064   1_565 S
C471   O507    1.353   .     A
C471   C473    1.558   .     S
C471   O505    1.220   .     A
C472   O508    1.354   .     A
C472   C474    1.559   .     S
C472   O506    1.220   .     A
C473   C479    1.431   .     A
C473   C477    1.446   .     A
C474   C478    1.444   .     A
C474   C480    1.434   .     A
C475   C477    1.391   .     A
C475   C483    1.437   .     A
C476   C484    1.426   .     A
C476   C478    1.386   .     A
C476   O590    1.391   .     S
C478   O575    1.349   .     S
C479   H492    1.085   .     S
C479   C481    1.449   .     A
C480   H491    1.084   .     S
C480   C482    1.455   .     A
C481   C485    1.472   .     A
C481   C483    1.439   .     A
C482   C484    1.429   .     A
C482   C486    1.465   .     A
C483   C1061   1.399   .     S
C484   C1062   1.403   1_554 S
C485   C1080   1.424   .     S
C486   C1079   1.424   1_554 S
Cu487  O504    2.062   .     S
Cu487  N500    1.954   .     S
Cu487  Cu488   2.601   .     S
Cu487  O505    2.149   .     S
Cu487  O501    2.079   .     S
Cu487  O508    2.191   .     S
Cu488  N499    1.954   .     S
Cu488  O502    2.079   .     S
Cu488  O506    2.149   .     S
Cu488  O507    2.191   .     S
Cu488  O503    2.062   .     S
H496   C74     1.064   1_565 S
H498   N566    0.991   .     S
N499   H563    0.990   .     S
N499   N566    1.480   .     S
O509   C510    1.327   .     S
C510   H511    1.022   .     S
C510   H513    1.106   .     S
H512   C576    1.155   .     S
O514   C515    1.338   .     S
O514   C543    1.343   .     S
C515   H517    1.023   .     S
C515   H518    1.121   .     S
C515   H582    1.168   .     S
O519   C520    1.460   .     S
O519   C541    1.429   .     S
C520   H523    1.045   .     S
C520   H522    0.982   .     S
C520   H521    1.070   .     S
O524   C525    1.439   .     S
C525   H527    1.064   .     S
C525   H528    1.136   .     S
C525   H526    1.099   .     S
C529   O567    1.274   .     A
C529   O569    1.267   .     A
C529   C535    1.468   .     S
C530   O570    1.267   .     A
C530   O568    1.274   .     A
C530   C536    1.468   .     S
C531   C552    1.409   .     A
C531   H559    1.087   .     S
C531   C533    1.349   .     A
C532   H560    1.088   .     S
C532   C534    1.350   .     A
C532   C551    1.419   .     A
C533   H555    1.062   .     S
C533   C1143   1.399   1_554 S
C534   H556    1.059   .     S
C534   C1144   1.403   .     S
C535   C140    1.344   1_565 S
C535   H165    1.064   1_565 S
C537   O573    1.353   .     A
C537   C539    1.558   .     S
C537   O571    1.220   .     A
C538   O574    1.354   .     A
C538   C540    1.559   .     S
C538   O572    1.220   .     A
C539   C545    1.431   .     A
C539   C543    1.446   .     A
C540   C544    1.444   .     A
C540   C546    1.434   .     A
C541   C543    1.391   .     A
C541   C549    1.437   .     A
C542   C550    1.426   .     A
C542   C544    1.386   .     A
C542   O458    1.391   1_655 S
C544   O443    1.349   1_655 S
C545   H558    1.085   .     S
C545   C547    1.449   .     A
C546   H557    1.084   .     S
C546   C548    1.455   .     A
C547   C551    1.472   .     A
C547   C549    1.439   .     A
C548   C550    1.429   .     A
C548   C552    1.465   .     A
C549   C1127   1.399   .     S
C550   C1128   1.403   1_554 S
C551   C1146   1.424   .     S
C552   C1145   1.424   1_554 S
Cu553  O570    2.062   .     S
Cu553  N566    1.954   .     S
Cu553  Cu554   2.601   .     S
Cu553  O571    2.149   .     S
Cu553  O567    2.079   .     S
Cu553  O574    2.191   .     S
Cu554  N565    1.954   .     S
Cu554  O568    2.079   .     S
Cu554  O572    2.149   .     S
Cu554  O573    2.191   .     S
Cu554  O569    2.062   .     S
H562   C140    1.064   1_565 S
H564   N434    0.991   1_655 S
N565   H431    0.990   1_655 S
N565   N434    1.480   1_655 S
O575   C576    1.327   .     S
C576   H577    1.022   .     S
C576   H579    1.106   .     S
H578   C444    1.155   1_655 S
O580   C581    1.338   .     S
O580   C411    1.343   1_655 S
C581   H583    1.023   .     S
C581   H584    1.121   .     S
C581   H450    1.168   1_655 S
O585   C586    1.460   .     S
O585   C409    1.429   1_655 S
C586   H589    1.045   .     S
C586   H588    0.982   .     S
C586   H587    1.070   .     S
O590   C591    1.439   .     S
C591   H593    1.064   .     S
C591   H594    1.136   .     S
C591   H592    1.099   .     S
C595   O633    1.274   .     A
C595   O635    1.267   .     A
C595   C601    1.468   .     S
C596   O636    1.267   .     A
C596   O634    1.274   .     A
C596   C602    1.468   .     S
C597   C618    1.409   .     A
C597   H625    1.087   .     S
C597   C599    1.349   .     A
C598   H626    1.088   .     S
C598   C600    1.350   .     A
C598   C617    1.419   .     A
C599   H621    1.062   .     S
C600   H622    1.059   .     S
C600   C22     1.403   1_556 S
C601   C800    1.344   .     S
C601   H825    1.064   .     S
C602   C997    1.344   1_545 S
C602   H1024   1.064   1_545 S
C603   O639    1.353   .     A
C603   C605    1.558   .     S
C603   O637    1.220   .     A
C604   O640    1.354   .     A
C604   C606    1.559   .     S
C604   O638    1.220   .     A
C605   C611    1.431   .     A
C605   C609    1.446   .     A
C606   C610    1.444   .     A
C606   C612    1.434   .     A
C607   C609    1.391   .     A
C607   C615    1.437   .     A
C607   O783    1.429   1_455 S
C608   C616    1.426   .     A
C608   C610    1.386   .     A
C608   O722    1.391   .     S
C609   O778    1.343   1_455 S
C610   O707    1.349   .     S
C611   H624    1.085   .     S
C611   C613    1.449   .     A
C612   H623    1.084   .     S
C612   C614    1.455   .     A
C613   C617    1.472   .     A
C613   C615    1.439   .     A
C614   C616    1.429   .     A
C614   C618    1.465   .     A
C615   C5      1.399   1_556 S
C617   C24     1.424   1_556 S
Cu619  O636    2.062   .     S
Cu619  N632    1.954   .     S
Cu619  Cu620   2.601   .     S
Cu619  O637    2.149   .     S
Cu619  O633    2.079   .     S
Cu619  O640    2.191   .     S
Cu620  N631    1.954   .     S
Cu620  O634    2.079   .     S
Cu620  O638    2.149   .     S
Cu620  O639    2.191   .     S
Cu620  O635    2.062   .     S
H627   C997    1.064   1_545 S
H628   C800    1.064   .     S
H629   N763    0.990   1_455 S
H630   N698    0.991   .     S
N631   H695    0.990   .     S
N631   N698    1.480   .     S
N632   H762    0.991   1_455 S
N632   N763    1.480   1_455 S
O641   C642    1.327   .     S
O641   C742    1.349   1_455 S
C642   H643    1.022   .     S
C642   H645    1.106   .     S
C642   H776    1.155   1_455 S
H644   C708    1.155   .     S
O646   C647    1.338   .     S
O646   C675    1.343   .     S
C647   H649    1.023   .     S
C647   H650    1.121   .     S
C647   H714    1.168   .     S
H648   C779    1.168   1_455 S
O651   C652    1.460   .     S
O651   C673    1.429   .     S
C652   H655    1.045   .     S
C652   H654    0.982   .     S
C652   H653    1.070   .     S
O656   C657    1.439   .     S
O656   C740    1.391   1_455 S
C657   H659    1.064   .     S
C657   H660    1.136   .     S
C657   H658    1.099   .     S
C661   O699    1.274   .     A
C661   O701    1.267   .     A
C661   C667    1.468   .     S
C662   O702    1.267   .     A
C662   O700    1.274   .     A
C662   C668    1.468   .     S
C663   C684    1.409   .     A
C663   H691    1.087   .     S
C663   C665    1.349   .     A
C664   H692    1.088   .     S
C664   C666    1.350   .     A
C664   C683    1.419   .     A
C665   H687    1.062   .     S
C666   H688    1.059   .     S
C666   C88     1.403   1_556 S
C667   C866    1.344   .     S
C667   H891    1.064   .     S
C668   C1063   1.344   1_545 S
C668   H1090   1.064   1_545 S
C669   O705    1.353   .     A
C669   C671    1.558   .     S
C669   O703    1.220   .     A
C670   O706    1.354   .     A
C670   C672    1.559   .     S
C670   O704    1.220   .     A
C671   C677    1.431   .     A
C671   C675    1.446   .     A
C672   C676    1.444   .     A
C672   C678    1.434   .     A
C673   C675    1.391   .     A
C673   C681    1.437   .     A
C674   C682    1.426   .     A
C674   C676    1.386   .     A
C674   O788    1.391   .     S
C676   O773    1.349   .     S
C677   H690    1.085   .     S
C677   C679    1.449   .     A
C678   H689    1.084   .     S
C678   C680    1.455   .     A
C679   C683    1.472   .     A
C679   C681    1.439   .     A
C680   C682    1.429   .     A
C680   C684    1.465   .     A
C681   C71     1.399   1_556 S
C683   C90     1.424   1_556 S
Cu685  O702    2.062   .     S
Cu685  N698    1.954   .     S
Cu685  Cu686   2.601   .     S
Cu685  O703    2.149   .     S
Cu685  O699    2.079   .     S
Cu685  O706    2.191   .     S
Cu686  N697    1.954   .     S
Cu686  O700    2.079   .     S
Cu686  O704    2.149   .     S
Cu686  O705    2.191   .     S
Cu686  O701    2.062   .     S
H693   C1063   1.064   1_545 S
H694   C866    1.064   .     S
H696   N764    0.991   .     S
N697   H761    0.990   .     S
N697   N764    1.480   .     S
O707   C708    1.327   .     S
C708   H709    1.022   .     S
C708   H711    1.106   .     S
H710   C774    1.155   .     S
O712   C713    1.338   .     S
O712   C741    1.343   .     S
C713   H715    1.023   .     S
C713   H716    1.121   .     S
C713   H780    1.168   .     S
O717   C718    1.460   .     S
O717   C739    1.429   .     S
C718   H721    1.045   .     S
C718   H720    0.982   .     S
C718   H719    1.070   .     S
O722   C723    1.439   .     S
C723   H725    1.064   .     S
C723   H726    1.136   .     S
C723   H724    1.099   .     S
C727   O765    1.274   .     A
C727   O767    1.267   .     A
C727   C733    1.468   .     S
C728   O768    1.267   .     A
C728   O766    1.274   .     A
C728   C734    1.468   .     S
C729   C750    1.409   .     A
C729   H757    1.087   .     S
C729   C731    1.349   .     A
C730   H758    1.088   .     S
C730   C732    1.350   .     A
C730   C749    1.419   .     A
C731   H753    1.062   .     S
C732   H754    1.059   .     S
C732   C154    1.403   1_556 S
C733   C932    1.344   .     S
C733   H957    1.064   .     S
C734   C1129   1.344   1_545 S
C734   H1156   1.064   1_545 S
C735   O771    1.353   .     A
C735   C737    1.558   .     S
C735   O769    1.220   .     A
C736   O772    1.354   .     A
C736   C738    1.559   .     S
C736   O770    1.220   .     A
C737   C743    1.431   .     A
C737   C741    1.446   .     A
C738   C742    1.444   .     A
C738   C744    1.434   .     A
C739   C741    1.391   .     A
C739   C747    1.437   .     A
C740   C748    1.426   .     A
C740   C742    1.386   .     A
C740   O656    1.391   1_655 S
C742   O641    1.349   1_655 S
C743   H756    1.085   .     S
C743   C745    1.449   .     A
C744   H755    1.084   .     S
C744   C746    1.455   .     A
C745   C749    1.472   .     A
C745   C747    1.439   .     A
C746   C748    1.429   .     A
C746   C750    1.465   .     A
C747   C137    1.399   1_556 S
C749   C156    1.424   1_556 S
Cu751  O768    2.062   .     S
Cu751  N764    1.954   .     S
Cu751  Cu752   2.601   .     S
Cu751  O769    2.149   .     S
Cu751  O765    2.079   .     S
Cu751  O772    2.191   .     S
Cu752  N763    1.954   .     S
Cu752  O766    2.079   .     S
Cu752  O770    2.149   .     S
Cu752  O771    2.191   .     S
Cu752  O767    2.062   .     S
H759   C1129   1.064   1_545 S
H760   C932    1.064   .     S
H762   N632    0.991   1_655 S
N763   H629    0.990   1_655 S
N763   N632    1.480   1_655 S
O773   C774    1.327   .     S
C774   H775    1.022   .     S
C774   H777    1.106   .     S
H776   C642    1.155   1_655 S
O778   C779    1.338   .     S
O778   C609    1.343   1_655 S
C779   H781    1.023   .     S
C779   H782    1.121   .     S
C779   H648    1.168   1_655 S
O783   C784    1.460   .     S
O783   C607    1.429   1_655 S
C784   H787    1.045   .     S
C784   H786    0.982   .     S
C784   H785    1.070   .     S
O788   C789    1.439   .     S
C789   H791    1.064   .     S
C789   H792    1.136   .     S
C789   H790    1.099   .     S
C793   O831    1.274   .     A
C793   O833    1.267   .     A
C793   C799    1.468   .     S
C794   O834    1.267   .     A
C794   O832    1.274   .     A
C794   C800    1.468   .     S
C795   C816    1.409   .     A
C795   H823    1.087   .     S
C795   C797    1.349   .     A
C796   H824    1.088   .     S
C796   C798    1.350   .     A
C796   C815    1.419   .     A
C797   H819    1.062   .     S
C798   H820    1.059   .     S
C798   C220    1.403   1_556 S
C799   C998    1.344   .     S
C799   H1023   1.064   .     S
C801   O837    1.353   .     A
C801   C803    1.558   .     S
C801   O835    1.220   .     A
C802   O838    1.354   .     A
C802   C804    1.559   .     S
C802   O836    1.220   .     A
C803   C809    1.431   .     A
C803   C807    1.446   .     A
C804   C808    1.444   .     A
C804   C810    1.434   .     A
C805   C807    1.391   .     A
C805   C813    1.437   .     A
C805   O981    1.429   1_455 S
C806   C814    1.426   .     A
C806   C808    1.386   .     A
C806   O920    1.391   .     S
C807   O976    1.343   1_455 S
C808   O905    1.349   .     S
C809   H822    1.085   .     S
C809   C811    1.449   .     A
C810   H821    1.084   .     S
C810   C812    1.455   .     A
C811   C815    1.472   .     A
C811   C813    1.439   .     A
C812   C814    1.429   .     A
C812   C816    1.465   .     A
C813   C203    1.399   1_556 S
C815   C222    1.424   1_556 S
Cu817  O834    2.062   .     S
Cu817  N830    1.954   .     S
Cu817  Cu818   2.601   .     S
Cu817  O835    2.149   .     S
Cu817  O831    2.079   .     S
Cu817  O838    2.191   .     S
Cu818  N829    1.954   .     S
Cu818  O832    2.079   .     S
Cu818  O836    2.149   .     S
Cu818  O837    2.191   .     S
Cu818  O833    2.062   .     S
H826   C998    1.064   .     S
H827   N961    0.990   1_455 S
H828   N896    0.991   .     S
N829   H893    0.990   .     S
N829   N896    1.480   .     S
N830   H960    0.991   1_455 S
N830   N961    1.480   1_455 S
O839   C840    1.327   .     S
O839   C940    1.349   1_455 S
C840   H841    1.022   .     S
C840   H843    1.106   .     S
C840   H974    1.155   1_455 S
H842   C906    1.155   .     S
O844   C845    1.338   .     S
O844   C873    1.343   .     S
C845   H847    1.023   .     S
C845   H848    1.121   .     S
C845   H912    1.168   .     S
H846   C977    1.168   1_455 S
O849   C850    1.460   .     S
O849   C871    1.429   .     S
C850   H853    1.045   .     S
C850   H852    0.982   .     S
C850   H851    1.070   .     S
O854   C855    1.439   .     S
O854   C938    1.391   1_455 S
C855   H857    1.064   .     S
C855   H858    1.136   .     S
C855   H856    1.099   .     S
C859   O897    1.274   .     A
C859   O899    1.267   .     A
C859   C865    1.468   .     S
C860   O900    1.267   .     A
C860   O898    1.274   .     A
C860   C866    1.468   .     S
C861   C882    1.409   .     A
C861   H889    1.087   .     S
C861   C863    1.349   .     A
C862   H890    1.088   .     S
C862   C864    1.350   .     A
C862   C881    1.419   .     A
C863   H885    1.062   .     S
C864   H886    1.059   .     S
C864   C286    1.403   1_556 S
C865   C1064   1.344   .     S
C865   H1089   1.064   .     S
C867   O903    1.353   .     A
C867   C869    1.558   .     S
C867   O901    1.220   .     A
C868   O904    1.354   .     A
C868   C870    1.559   .     S
C868   O902    1.220   .     A
C869   C875    1.431   .     A
C869   C873    1.446   .     A
C870   C874    1.444   .     A
C870   C876    1.434   .     A
C871   C873    1.391   .     A
C871   C879    1.437   .     A
C872   C880    1.426   .     A
C872   C874    1.386   .     A
C872   O986    1.391   .     S
C874   O971    1.349   .     S
C875   H888    1.085   .     S
C875   C877    1.449   .     A
C876   H887    1.084   .     S
C876   C878    1.455   .     A
C877   C881    1.472   .     A
C877   C879    1.439   .     A
C878   C880    1.429   .     A
C878   C882    1.465   .     A
C879   C269    1.399   1_556 S
C881   C288    1.424   1_556 S
Cu883  O900    2.062   .     S
Cu883  N896    1.954   .     S
Cu883  Cu884   2.601   .     S
Cu883  O901    2.149   .     S
Cu883  O897    2.079   .     S
Cu883  O904    2.191   .     S
Cu884  N895    1.954   .     S
Cu884  O898    2.079   .     S
Cu884  O902    2.149   .     S
Cu884  O903    2.191   .     S
Cu884  O899    2.062   .     S
H892   C1064   1.064   .     S
H894   N962    0.991   .     S
N895   H959    0.990   .     S
N895   N962    1.480   .     S
O905   C906    1.327   .     S
C906   H907    1.022   .     S
C906   H909    1.106   .     S
H908   C972    1.155   .     S
O910   C911    1.338   .     S
O910   C939    1.343   .     S
C911   H913    1.023   .     S
C911   H914    1.121   .     S
C911   H978    1.168   .     S
O915   C916    1.460   .     S
O915   C937    1.429   .     S
C916   H919    1.045   .     S
C916   H918    0.982   .     S
C916   H917    1.070   .     S
O920   C921    1.439   .     S
C921   H923    1.064   .     S
C921   H924    1.136   .     S
C921   H922    1.099   .     S
C925   O963    1.274   .     A
C925   O965    1.267   .     A
C925   C931    1.468   .     S
C926   O966    1.267   .     A
C926   O964    1.274   .     A
C926   C932    1.468   .     S
C927   C948    1.409   .     A
C927   H955    1.087   .     S
C927   C929    1.349   .     A
C928   H956    1.088   .     S
C928   C930    1.350   .     A
C928   C947    1.419   .     A
C929   H951    1.062   .     S
C930   H952    1.059   .     S
C930   C352    1.403   1_556 S
C931   C1130   1.344   .     S
C931   H1155   1.064   .     S
C933   O969    1.353   .     A
C933   C935    1.558   .     S
C933   O967    1.220   .     A
C934   O970    1.354   .     A
C934   C936    1.559   .     S
C934   O968    1.220   .     A
C935   C941    1.431   .     A
C935   C939    1.446   .     A
C936   C940    1.444   .     A
C936   C942    1.434   .     A
C937   C939    1.391   .     A
C937   C945    1.437   .     A
C938   C946    1.426   .     A
C938   C940    1.386   .     A
C938   O854    1.391   1_655 S
C940   O839    1.349   1_655 S
C941   H954    1.085   .     S
C941   C943    1.449   .     A
C942   H953    1.084   .     S
C942   C944    1.455   .     A
C943   C947    1.472   .     A
C943   C945    1.439   .     A
C944   C946    1.429   .     A
C944   C948    1.465   .     A
C945   C335    1.399   1_556 S
C947   C354    1.424   1_556 S
Cu949  O966    2.062   .     S
Cu949  N962    1.954   .     S
Cu949  Cu950   2.601   .     S
Cu949  O967    2.149   .     S
Cu949  O963    2.079   .     S
Cu949  O970    2.191   .     S
Cu950  N961    1.954   .     S
Cu950  O964    2.079   .     S
Cu950  O968    2.149   .     S
Cu950  O969    2.191   .     S
Cu950  O965    2.062   .     S
H958   C1130   1.064   .     S
H960   N830    0.991   1_655 S
N961   H827    0.990   1_655 S
N961   N830    1.480   1_655 S
O971   C972    1.327   .     S
C972   H973    1.022   .     S
C972   H975    1.106   .     S
H974   C840    1.155   1_655 S
O976   C977    1.338   .     S
O976   C807    1.343   1_655 S
C977   H979    1.023   .     S
C977   H980    1.121   .     S
C977   H846    1.168   1_655 S
O981   C982    1.460   .     S
O981   C805    1.429   1_655 S
C982   H985    1.045   .     S
C982   H984    0.982   .     S
C982   H983    1.070   .     S
O986   C987    1.439   .     S
C987   H989    1.064   .     S
C987   H990    1.136   .     S
C987   H988    1.099   .     S
C991   O1029   1.274   .     A
C991   O1031   1.267   .     A
C991   C997    1.468   .     S
C992   O1032   1.267   .     A
C992   O1030   1.274   .     A
C992   C998    1.468   .     S
C993   C1014   1.409   .     A
C993   H1021   1.087   .     S
C993   C995    1.349   .     A
C994   H1022   1.088   .     S
C994   C996    1.350   .     A
C994   C1013   1.419   .     A
C995   H1017   1.062   .     S
C996   H1018   1.059   .     S
C996   C418    1.403   1_556 S
C997   C602    1.344   1_565 S
C997   H627    1.064   1_565 S
C999   O1035   1.353   .     A
C999   C1001   1.558   .     S
C999   O1033   1.220   .     A
C1000  O1036   1.354   .     A
C1000  C1002   1.559   .     S
C1000  O1034   1.220   .     A
C1001  C1007   1.431   .     A
C1001  C1005   1.446   .     A
C1002  C1006   1.444   .     A
C1002  C1008   1.434   .     A
C1003  C1005   1.391   .     A
C1003  C1011   1.437   .     A
C1003  O1179   1.429   1_455 S
C1004  C1012   1.426   .     A
C1004  C1006   1.386   .     A
C1004  O1118   1.391   .     S
C1005  O1174   1.343   1_455 S
C1006  O1103   1.349   .     S
C1007  H1020   1.085   .     S
C1007  C1009   1.449   .     A
C1008  H1019   1.084   .     S
C1008  C1010   1.455   .     A
C1009  C1013   1.472   .     A
C1009  C1011   1.439   .     A
C1010  C1012   1.429   .     A
C1010  C1014   1.465   .     A
C1011  C401    1.399   1_556 S
C1013  C420    1.424   1_556 S
Cu1015 O1032   2.062   .     S
Cu1015 N1028   1.954   .     S
Cu1015 Cu1016  2.601   .     S
Cu1015 O1033   2.149   .     S
Cu1015 O1029   2.079   .     S
Cu1015 O1036   2.191   .     S
Cu1016 N1027   1.954   .     S
Cu1016 O1030   2.079   .     S
Cu1016 O1034   2.149   .     S
Cu1016 O1035   2.191   .     S
Cu1016 O1031   2.062   .     S
H1024  C602    1.064   1_565 S
H1025  N1159   0.990   1_455 S
H1026  N1094   0.991   .     S
N1027  H1091   0.990   .     S
N1027  N1094   1.480   .     S
N1028  H1158   0.991   1_455 S
N1028  N1159   1.480   1_455 S
O1037  C1038   1.327   .     S
O1037  C1138   1.349   1_455 S
C1038  H1039   1.022   .     S
C1038  H1041   1.106   .     S
C1038  H1172   1.155   1_455 S
H1040  C1104   1.155   .     S
O1042  C1043   1.338   .     S
O1042  C1071   1.343   .     S
C1043  H1045   1.023   .     S
C1043  H1046   1.121   .     S
C1043  H1110   1.168   .     S
H1044  C1175   1.168   1_455 S
O1047  C1048   1.460   .     S
O1047  C1069   1.429   .     S
C1048  H1051   1.045   .     S
C1048  H1050   0.982   .     S
C1048  H1049   1.070   .     S
O1052  C1053   1.439   .     S
O1052  C1136   1.391   1_455 S
C1053  H1055   1.064   .     S
C1053  H1056   1.136   .     S
C1053  H1054   1.099   .     S
C1057  O1095   1.274   .     A
C1057  O1097   1.267   .     A
C1057  C1063   1.468   .     S
C1058  O1098   1.267   .     A
C1058  O1096   1.274   .     A
C1058  C1064   1.468   .     S
C1059  C1080   1.409   .     A
C1059  H1087   1.087   .     S
C1059  C1061   1.349   .     A
C1060  H1088   1.088   .     S
C1060  C1062   1.350   .     A
C1060  C1079   1.419   .     A
C1061  H1083   1.062   .     S
C1062  H1084   1.059   .     S
C1062  C484    1.403   1_556 S
C1063  C668    1.344   1_565 S
C1063  H693    1.064   1_565 S
C1065  O1101   1.353   .     A
C1065  C1067   1.558   .     S
C1065  O1099   1.220   .     A
C1066  O1102   1.354   .     A
C1066  C1068   1.559   .     S
C1066  O1100   1.220   .     A
C1067  C1073   1.431   .     A
C1067  C1071   1.446   .     A
C1068  C1072   1.444   .     A
C1068  C1074   1.434   .     A
C1069  C1071   1.391   .     A
C1069  C1077   1.437   .     A
C1070  C1078   1.426   .     A
C1070  C1072   1.386   .     A
C1070  O1184   1.391   .     S
C1072  O1169   1.349   .     S
C1073  H1086   1.085   .     S
C1073  C1075   1.449   .     A
C1074  H1085   1.084   .     S
C1074  C1076   1.455   .     A
C1075  C1079   1.472   .     A
C1075  C1077   1.439   .     A
C1076  C1078   1.429   .     A
C1076  C1080   1.465   .     A
C1077  C467    1.399   1_556 S
C1079  C486    1.424   1_556 S
Cu1081 O1098   2.062   .     S
Cu1081 N1094   1.954   .     S
Cu1081 Cu1082  2.601   .     S
Cu1081 O1099   2.149   .     S
Cu1081 O1095   2.079   .     S
Cu1081 O1102   2.191   .     S
Cu1082 N1093   1.954   .     S
Cu1082 O1096   2.079   .     S
Cu1082 O1100   2.149   .     S
Cu1082 O1101   2.191   .     S
Cu1082 O1097   2.062   .     S
H1090  C668    1.064   1_565 S
H1092  N1160   0.991   .     S
N1093  H1157   0.990   .     S
N1093  N1160   1.480   .     S
O1103  C1104   1.327   .     S
C1104  H1105   1.022   .     S
C1104  H1107   1.106   .     S
H1106  C1170   1.155   .     S
O1108  C1109   1.338   .     S
O1108  C1137   1.343   .     S
C1109  H1111   1.023   .     S
C1109  H1112   1.121   .     S
C1109  H1176   1.168   .     S
O1113  C1114   1.460   .     S
O1113  C1135   1.429   .     S
C1114  H1117   1.045   .     S
C1114  H1116   0.982   .     S
C1114  H1115   1.070   .     S
O1118  C1119   1.439   .     S
C1119  H1121   1.064   .     S
C1119  H1122   1.136   .     S
C1119  H1120   1.099   .     S
C1123  O1161   1.274   .     A
C1123  O1163   1.267   .     A
C1123  C1129   1.468   .     S
C1124  O1164   1.267   .     A
C1124  O1162   1.274   .     A
C1124  C1130   1.468   .     S
C1125  C1146   1.409   .     A
C1125  H1153   1.087   .     S
C1125  C1127   1.349   .     A
C1126  H1154   1.088   .     S
C1126  C1128   1.350   .     A
C1126  C1145   1.419   .     A
C1127  H1149   1.062   .     S
C1128  H1150   1.059   .     S
C1128  C550    1.403   1_556 S
C1129  C734    1.344   1_565 S
C1129  H759    1.064   1_565 S
C1131  O1167   1.353   .     A
C1131  C1133   1.558   .     S
C1131  O1165   1.220   .     A
C1132  O1168   1.354   .     A
C1132  C1134   1.559   .     S
C1132  O1166   1.220   .     A
C1133  C1139   1.431   .     A
C1133  C1137   1.446   .     A
C1134  C1138   1.444   .     A
C1134  C1140   1.434   .     A
C1135  C1137   1.391   .     A
C1135  C1143   1.437   .     A
C1136  C1144   1.426   .     A
C1136  C1138   1.386   .     A
C1136  O1052   1.391   1_655 S
C1138  O1037   1.349   1_655 S
C1139  H1152   1.085   .     S
C1139  C1141   1.449   .     A
C1140  H1151   1.084   .     S
C1140  C1142   1.455   .     A
C1141  C1145   1.472   .     A
C1141  C1143   1.439   .     A
C1142  C1144   1.429   .     A
C1142  C1146   1.465   .     A
C1143  C533    1.399   1_556 S
C1145  C552    1.424   1_556 S
Cu1147 O1164   2.062   .     S
Cu1147 N1160   1.954   .     S
Cu1147 Cu1148  2.601   .     S
Cu1147 O1165   2.149   .     S
Cu1147 O1161   2.079   .     S
Cu1147 O1168   2.191   .     S
Cu1148 N1159   1.954   .     S
Cu1148 O1162   2.079   .     S
Cu1148 O1166   2.149   .     S
Cu1148 O1167   2.191   .     S
Cu1148 O1163   2.062   .     S
H1156  C734    1.064   1_565 S
H1158  N1028   0.991   1_655 S
N1159  H1025   0.990   1_655 S
N1159  N1028   1.480   1_655 S
O1169  C1170   1.327   .     S
C1170  H1171   1.022   .     S
C1170  H1173   1.106   .     S
H1172  C1038   1.155   1_655 S
O1174  C1175   1.338   .     S
O1174  C1005   1.343   1_655 S
C1175  H1177   1.023   .     S
C1175  H1178   1.121   .     S
C1175  H1044   1.168   1_655 S
O1179  C1180   1.460   .     S
O1179  C1003   1.429   1_655 S
C1180  H1183   1.045   .     S
C1180  H1182   0.982   .     S
C1180  H1181   1.070   .     S
O1184  C1185   1.439   .     S
C1185  H1187   1.064   .     S
C1185  H1188   1.136   .     S
C1185  H1186   1.099   .     S
