data_str_m2_o1_o17_pcu_sym.197
_audit_creation_date              2020-01-03
_audit_creation_method            'Materials Studio'
_symmetry_space_group_name_H-M    'P1'
_symmetry_Int_Tables_number       1
_symmetry_cell_setting            triclinic
loop_
_symmetry_equiv_pos_as_xyz
  x,y,z
_cell_length_a                    32.5086
_cell_length_b                    28.5857
_cell_length_c                    30.0836
_cell_angle_alpha                 90.3891
_cell_angle_beta                  90.3388
_cell_angle_gamma                 90.1565
loop_
_atom_site_label
_atom_site_type_symbol
_atom_site_fract_x
_atom_site_fract_y
_atom_site_fract_z
_atom_site_U_iso_or_equiv
_atom_site_adp_type
_atom_site_occupancy
C1     C     0.08736   0.16665   0.25036   0.00000  Uiso   1.00
C2     C     0.24597   0.16672   0.24970   0.00000  Uiso   1.00
C3     C     0.08987   0.16908   0.01946   0.00000  Uiso   1.00
C4     C     0.23947   0.18875   0.48009   0.00000  Uiso   1.00
C5     C     0.02117   0.12434   0.25347   0.00000  Uiso   1.00
C6     C     0.31215   0.20910   0.24711   0.00000  Uiso   1.00
C7     C     0.31195   0.12436   0.25306   0.00000  Uiso   1.00
C8     C     0.02138   0.20906   0.24736   0.00000  Uiso   1.00
C9     C     0.29059   0.16674   0.24987   0.00000  Uiso   1.00
C10    C     0.04274   0.16667   0.25046   0.00000  Uiso   1.00
C11    C     0.13690   0.02441   0.22783   0.00000  Uiso   1.00
C12    C     0.19630   0.30878   0.27250   0.00000  Uiso   1.00
C13    C     0.19637   0.02501   0.27237   0.00000  Uiso   1.00
C14    C     0.13700   0.30823   0.22762   0.00000  Uiso   1.00
C15    C     0.16399   0.16655   0.16448   0.00000  Uiso   1.00
C16    C     0.16835   0.16684   0.33550   0.00000  Uiso   1.00
C17    C     0.20640   0.17019   0.40807   0.00000  Uiso   1.00
C18    C     0.12566   0.15982   0.09157   0.00000  Uiso   1.00
C19    C     0.16914   0.16763   0.38376   0.00000  Uiso   1.00
C20    C     0.16257   0.16682   0.11604   0.00000  Uiso   1.00
C21    C     0.13127   0.16873   0.40511   0.00000  Uiso   1.00
C22    C     0.19910   0.17806   0.09455   0.00000  Uiso   1.00
C23    C     0.12914   0.17097   0.45136   0.00000  Uiso   1.00
C24    C     0.20089   0.17987   0.04826   0.00000  Uiso   1.00
C25    C     0.16596   0.17421   0.47637   0.00000  Uiso   1.00
C26    C     0.16436   0.17378   0.02325   0.00000  Uiso   1.00
C27    C     0.20442   0.17749   0.45461   0.00000  Uiso   1.00
C28    C     0.12625   0.16716   0.04499   0.00000  Uiso   1.00
C29    C     0.09092   0.17078   0.47314   0.00000  Uiso   1.00
C30    C     0.23820   0.18927   0.02646   0.00000  Uiso   1.00
Cu31   Cu    0.16667   0.21355   0.25000   0.00000  Uiso   1.00
Cu32   Cu    0.16667   0.11978   0.25000   0.00000  Uiso   1.00
H33    H     0.10340   0.16681   0.38517   0.00000  Uiso   1.00
H34    H     0.22646   0.18448   0.11450   0.00000  Uiso   1.00
H35    H     0.06007   0.17111   0.03491   0.00000  Uiso   1.00
H36    H     0.26812   0.19823   0.46461   0.00000  Uiso   1.00
H37    H     0.03710   0.09123   0.25606   0.00000  Uiso   1.00
H38    H     0.29622   0.24222   0.24465   0.00000  Uiso   1.00
H39    H     0.29586   0.09124   0.25542   0.00000  Uiso   1.00
H40    H     0.03748   0.24217   0.24496   0.00000  Uiso   1.00
H41    H     0.11284   0.04249   0.21031   0.00000  Uiso   1.00
H42    H     0.22001   0.29036   0.29063   0.00000  Uiso   1.00
H43    H     0.22024   0.04375   0.29023   0.00000  Uiso   1.00
H44    H     0.11324   0.28941   0.20957   0.00000  Uiso   1.00
N45    N     0.16667   0.28402   0.25000   0.00000  Uiso   1.00
N46    N     0.16667   0.04931   0.25000   0.00000  Uiso   1.00
O47    O     0.10655   0.20625   0.24999   0.00000  Uiso   1.00
O48    O     0.22679   0.12709   0.25000   0.00000  Uiso   1.00
O49    O     0.22679   0.20625   0.25000   0.00000  Uiso   1.00
O50    O     0.10655   0.12709   0.24999   0.00000  Uiso   1.00
O51    O     0.16666   0.20627   0.18513   0.00000  Uiso   1.00
O52    O     0.16668   0.12707   0.31487   0.00000  Uiso   1.00
O53    O     0.16668   0.20627   0.31487   0.00000  Uiso   1.00
O54    O     0.16666   0.12707   0.18513   0.00000  Uiso   1.00
S55    S     0.25418   0.15971   0.38049   0.00000  Uiso   1.00
O56    O     0.26847   0.20431   0.35935   0.00000  Uiso   1.00
O57    O     0.28702   0.14242   0.41164   0.00000  Uiso   1.00
O58    O     0.24807   0.11868   0.34086   0.00000  Uiso   1.00
H59    H     0.24099   0.08980   0.35717   0.00000  Uiso   1.00
S60    S     0.07968   0.14089   0.11846   0.00000  Uiso   1.00
O61    O     0.05577   0.18320   0.13287   0.00000  Uiso   1.00
O62    O     0.05383   0.11134   0.08753   0.00000  Uiso   1.00
O63    O     0.08980   0.10804   0.16294   0.00000  Uiso   1.00
H64    H     0.06291   0.09446   0.17135   0.00000  Uiso   1.00
N65    N     0.05324   0.17168   0.44874   0.00000  Uiso   1.00
H66    H     0.02990   0.15273   0.46327   0.00000  Uiso   1.00
C67    C     0.03997   0.21815   0.43659   0.00000  Uiso   1.00
H68    H     0.03258   0.23889   0.46689   0.00000  Uiso   1.00
H69    H     0.01198   0.21567   0.41539   0.00000  Uiso   1.00
H70    H     0.06428   0.23640   0.41748   0.00000  Uiso   1.00
N71    N     0.27478   0.19925   0.05094   0.00000  Uiso   1.00
H72    H     0.29305   0.22448   0.03655   0.00000  Uiso   1.00
C73    C     0.29809   0.15816   0.06272   0.00000  Uiso   1.00
H74    H     0.31127   0.14164   0.03245   0.00000  Uiso   1.00
H75    H     0.27845   0.13236   0.08019   0.00000  Uiso   1.00
H76    H     0.32343   0.16860   0.08543   0.00000  Uiso   1.00
C77    C     0.42069   0.16665   0.25036   0.00000  Uiso   1.00
C78    C     0.57930   0.16672   0.24970   0.00000  Uiso   1.00
C79    C     0.42321   0.16908   0.01946   0.00000  Uiso   1.00
C80    C     0.57280   0.18875   0.48009   0.00000  Uiso   1.00
C81    C     0.35450   0.12434   0.25347   0.00000  Uiso   1.00
C82    C     0.64548   0.20910   0.24711   0.00000  Uiso   1.00
C83    C     0.64528   0.12436   0.25306   0.00000  Uiso   1.00
C84    C     0.35472   0.20906   0.24736   0.00000  Uiso   1.00
C85    C     0.62393   0.16674   0.24987   0.00000  Uiso   1.00
C86    C     0.37607   0.16667   0.25046   0.00000  Uiso   1.00
C87    C     0.47024   0.02441   0.22783   0.00000  Uiso   1.00
C88    C     0.52964   0.30878   0.27250   0.00000  Uiso   1.00
C89    C     0.52971   0.02501   0.27237   0.00000  Uiso   1.00
C90    C     0.47033   0.30823   0.22762   0.00000  Uiso   1.00
C91    C     0.49732   0.16655   0.16448   0.00000  Uiso   1.00
C92    C     0.50168   0.16684   0.33550   0.00000  Uiso   1.00
C93    C     0.53974   0.17019   0.40807   0.00000  Uiso   1.00
C94    C     0.45899   0.15982   0.09157   0.00000  Uiso   1.00
C95    C     0.50247   0.16763   0.38376   0.00000  Uiso   1.00
C96    C     0.49590   0.16682   0.11604   0.00000  Uiso   1.00
C97    C     0.46460   0.16873   0.40511   0.00000  Uiso   1.00
C98    C     0.53244   0.17806   0.09455   0.00000  Uiso   1.00
C99    C     0.46247   0.17097   0.45136   0.00000  Uiso   1.00
C100   C     0.53422   0.17987   0.04826   0.00000  Uiso   1.00
C101   C     0.49929   0.17421   0.47637   0.00000  Uiso   1.00
C102   C     0.49770   0.17378   0.02325   0.00000  Uiso   1.00
C103   C     0.53776   0.17749   0.45461   0.00000  Uiso   1.00
C104   C     0.45959   0.16716   0.04499   0.00000  Uiso   1.00
C105   C     0.42425   0.17078   0.47314   0.00000  Uiso   1.00
C106   C     0.57154   0.18927   0.02646   0.00000  Uiso   1.00
Cu107  Cu    0.50000   0.21355   0.25000   0.00000  Uiso   1.00
Cu108  Cu    0.50000   0.11978   0.25000   0.00000  Uiso   1.00
H109   H     0.43674   0.16681   0.38517   0.00000  Uiso   1.00
H110   H     0.55979   0.18448   0.11450   0.00000  Uiso   1.00
H111   H     0.39340   0.17111   0.03491   0.00000  Uiso   1.00
H112   H     0.60146   0.19823   0.46461   0.00000  Uiso   1.00
H113   H     0.37043   0.09123   0.25606   0.00000  Uiso   1.00
H114   H     0.62955   0.24222   0.24465   0.00000  Uiso   1.00
H115   H     0.62919   0.09124   0.25542   0.00000  Uiso   1.00
H116   H     0.37081   0.24217   0.24496   0.00000  Uiso   1.00
H117   H     0.44617   0.04249   0.21031   0.00000  Uiso   1.00
H118   H     0.55334   0.29036   0.29063   0.00000  Uiso   1.00
H119   H     0.55357   0.04375   0.29023   0.00000  Uiso   1.00
H120   H     0.44657   0.28941   0.20957   0.00000  Uiso   1.00
N121   N     0.50000   0.28402   0.25000   0.00000  Uiso   1.00
N122   N     0.50000   0.04931   0.25000   0.00000  Uiso   1.00
O123   O     0.43988   0.20625   0.24999   0.00000  Uiso   1.00
O124   O     0.56012   0.12709   0.25000   0.00000  Uiso   1.00
O125   O     0.56012   0.20625   0.25000   0.00000  Uiso   1.00
O126   O     0.43988   0.12709   0.24999   0.00000  Uiso   1.00
O127   O     0.49999   0.20627   0.18513   0.00000  Uiso   1.00
O128   O     0.50001   0.12707   0.31487   0.00000  Uiso   1.00
O129   O     0.50001   0.20627   0.31487   0.00000  Uiso   1.00
O130   O     0.49999   0.12707   0.18513   0.00000  Uiso   1.00
S131   S     0.58751   0.15971   0.38049   0.00000  Uiso   1.00
O132   O     0.60181   0.20431   0.35935   0.00000  Uiso   1.00
O133   O     0.62035   0.14242   0.41164   0.00000  Uiso   1.00
O134   O     0.58140   0.11868   0.34086   0.00000  Uiso   1.00
H135   H     0.57433   0.08980   0.35717   0.00000  Uiso   1.00
S136   S     0.41301   0.14089   0.11846   0.00000  Uiso   1.00
O137   O     0.38910   0.18320   0.13287   0.00000  Uiso   1.00
O138   O     0.38717   0.11134   0.08753   0.00000  Uiso   1.00
O139   O     0.42314   0.10804   0.16294   0.00000  Uiso   1.00
H140   H     0.39625   0.09446   0.17135   0.00000  Uiso   1.00
N141   N     0.38657   0.17168   0.44874   0.00000  Uiso   1.00
H142   H     0.36323   0.15273   0.46327   0.00000  Uiso   1.00
C143   C     0.37331   0.21815   0.43659   0.00000  Uiso   1.00
H144   H     0.36591   0.23889   0.46689   0.00000  Uiso   1.00
H145   H     0.34532   0.21567   0.41539   0.00000  Uiso   1.00
H146   H     0.39761   0.23640   0.41748   0.00000  Uiso   1.00
N147   N     0.60811   0.19925   0.05094   0.00000  Uiso   1.00
H148   H     0.62638   0.22448   0.03655   0.00000  Uiso   1.00
C149   C     0.63142   0.15816   0.06272   0.00000  Uiso   1.00
H150   H     0.64460   0.14164   0.03245   0.00000  Uiso   1.00
H151   H     0.61178   0.13236   0.08019   0.00000  Uiso   1.00
H152   H     0.65676   0.16860   0.08543   0.00000  Uiso   1.00
C153   C     0.75403   0.16665   0.25036   0.00000  Uiso   1.00
C154   C     0.91264   0.16672   0.24970   0.00000  Uiso   1.00
C155   C     0.75654   0.16908   0.01946   0.00000  Uiso   1.00
C156   C     0.90613   0.18875   0.48009   0.00000  Uiso   1.00
C157   C     0.68784   0.12434   0.25347   0.00000  Uiso   1.00
C158   C     0.97882   0.20910   0.24711   0.00000  Uiso   1.00
C159   C     0.97861   0.12436   0.25306   0.00000  Uiso   1.00
C160   C     0.68805   0.20906   0.24736   0.00000  Uiso   1.00
C161   C     0.95726   0.16674   0.24987   0.00000  Uiso   1.00
C162   C     0.70940   0.16667   0.25046   0.00000  Uiso   1.00
C163   C     0.80357   0.02441   0.22783   0.00000  Uiso   1.00
C164   C     0.86297   0.30878   0.27250   0.00000  Uiso   1.00
C165   C     0.86304   0.02501   0.27237   0.00000  Uiso   1.00
C166   C     0.80367   0.30823   0.22762   0.00000  Uiso   1.00
C167   C     0.83065   0.16655   0.16448   0.00000  Uiso   1.00
C168   C     0.83502   0.16684   0.33550   0.00000  Uiso   1.00
C169   C     0.87307   0.17019   0.40807   0.00000  Uiso   1.00
C170   C     0.79233   0.15982   0.09157   0.00000  Uiso   1.00
C171   C     0.83581   0.16763   0.38376   0.00000  Uiso   1.00
C172   C     0.82923   0.16682   0.11604   0.00000  Uiso   1.00
C173   C     0.79794   0.16873   0.40511   0.00000  Uiso   1.00
C174   C     0.86577   0.17806   0.09455   0.00000  Uiso   1.00
C175   C     0.79581   0.17097   0.45136   0.00000  Uiso   1.00
C176   C     0.86755   0.17987   0.04826   0.00000  Uiso   1.00
C177   C     0.83262   0.17421   0.47637   0.00000  Uiso   1.00
C178   C     0.83103   0.17378   0.02325   0.00000  Uiso   1.00
C179   C     0.87109   0.17749   0.45461   0.00000  Uiso   1.00
C180   C     0.79292   0.16716   0.04499   0.00000  Uiso   1.00
C181   C     0.75759   0.17078   0.47314   0.00000  Uiso   1.00
C182   C     0.90487   0.18927   0.02646   0.00000  Uiso   1.00
Cu183  Cu    0.83333   0.21355   0.25000   0.00000  Uiso   1.00
Cu184  Cu    0.83333   0.11978   0.25000   0.00000  Uiso   1.00
H185   H     0.77007   0.16681   0.38517   0.00000  Uiso   1.00
H186   H     0.89312   0.18448   0.11450   0.00000  Uiso   1.00
H187   H     0.72674   0.17111   0.03491   0.00000  Uiso   1.00
H188   H     0.93479   0.19823   0.46461   0.00000  Uiso   1.00
H189   H     0.70377   0.09123   0.25606   0.00000  Uiso   1.00
H190   H     0.96288   0.24222   0.24465   0.00000  Uiso   1.00
H191   H     0.96253   0.09124   0.25542   0.00000  Uiso   1.00
H192   H     0.70414   0.24217   0.24496   0.00000  Uiso   1.00
H193   H     0.77950   0.04249   0.21031   0.00000  Uiso   1.00
H194   H     0.88668   0.29036   0.29063   0.00000  Uiso   1.00
H195   H     0.88690   0.04375   0.29023   0.00000  Uiso   1.00
H196   H     0.77990   0.28941   0.20957   0.00000  Uiso   1.00
N197   N     0.83333   0.28402   0.25000   0.00000  Uiso   1.00
N198   N     0.83333   0.04931   0.25000   0.00000  Uiso   1.00
O199   O     0.77321   0.20625   0.24999   0.00000  Uiso   1.00
O200   O     0.89345   0.12709   0.25000   0.00000  Uiso   1.00
O201   O     0.89345   0.20625   0.25000   0.00000  Uiso   1.00
O202   O     0.77321   0.12709   0.24999   0.00000  Uiso   1.00
O203   O     0.83332   0.20627   0.18513   0.00000  Uiso   1.00
O204   O     0.83334   0.12707   0.31487   0.00000  Uiso   1.00
O205   O     0.83334   0.20627   0.31487   0.00000  Uiso   1.00
O206   O     0.83332   0.12707   0.18513   0.00000  Uiso   1.00
S207   S     0.92085   0.15971   0.38049   0.00000  Uiso   1.00
O208   O     0.93514   0.20431   0.35935   0.00000  Uiso   1.00
O209   O     0.95369   0.14242   0.41164   0.00000  Uiso   1.00
O210   O     0.91473   0.11868   0.34086   0.00000  Uiso   1.00
H211   H     0.90766   0.08980   0.35717   0.00000  Uiso   1.00
S212   S     0.74634   0.14089   0.11846   0.00000  Uiso   1.00
O213   O     0.72243   0.18320   0.13287   0.00000  Uiso   1.00
O214   O     0.72050   0.11134   0.08753   0.00000  Uiso   1.00
O215   O     0.75647   0.10804   0.16294   0.00000  Uiso   1.00
H216   H     0.72958   0.09446   0.17135   0.00000  Uiso   1.00
N217   N     0.71991   0.17168   0.44874   0.00000  Uiso   1.00
H218   H     0.69657   0.15273   0.46327   0.00000  Uiso   1.00
C219   C     0.70664   0.21815   0.43659   0.00000  Uiso   1.00
H220   H     0.69925   0.23889   0.46689   0.00000  Uiso   1.00
H221   H     0.67865   0.21567   0.41539   0.00000  Uiso   1.00
H222   H     0.73095   0.23640   0.41748   0.00000  Uiso   1.00
N223   N     0.94144   0.19925   0.05094   0.00000  Uiso   1.00
H224   H     0.95972   0.22448   0.03655   0.00000  Uiso   1.00
C225   C     0.96476   0.15816   0.06272   0.00000  Uiso   1.00
H226   H     0.97794   0.14164   0.03245   0.00000  Uiso   1.00
H227   H     0.94512   0.13236   0.08019   0.00000  Uiso   1.00
H228   H     0.99010   0.16860   0.08543   0.00000  Uiso   1.00
C229   C     0.08736   0.49998   0.25036   0.00000  Uiso   1.00
C230   C     0.24597   0.50005   0.24970   0.00000  Uiso   1.00
C231   C     0.08987   0.50241   0.01946   0.00000  Uiso   1.00
C232   C     0.23947   0.52208   0.48009   0.00000  Uiso   1.00
C233   C     0.02117   0.45768   0.25347   0.00000  Uiso   1.00
C234   C     0.31215   0.54243   0.24711   0.00000  Uiso   1.00
C235   C     0.31195   0.45769   0.25306   0.00000  Uiso   1.00
C236   C     0.02138   0.54239   0.24736   0.00000  Uiso   1.00
C237   C     0.29059   0.50007   0.24987   0.00000  Uiso   1.00
C238   C     0.04274   0.50001   0.25046   0.00000  Uiso   1.00
C239   C     0.13690   0.35774   0.22783   0.00000  Uiso   1.00
C240   C     0.19630   0.64212   0.27250   0.00000  Uiso   1.00
C241   C     0.19637   0.35835   0.27237   0.00000  Uiso   1.00
C242   C     0.13700   0.64157   0.22762   0.00000  Uiso   1.00
C243   C     0.16399   0.49988   0.16448   0.00000  Uiso   1.00
C244   C     0.16835   0.50018   0.33550   0.00000  Uiso   1.00
C245   C     0.20640   0.50353   0.40807   0.00000  Uiso   1.00
C246   C     0.12566   0.49316   0.09157   0.00000  Uiso   1.00
C247   C     0.16914   0.50096   0.38376   0.00000  Uiso   1.00
C248   C     0.16257   0.50015   0.11604   0.00000  Uiso   1.00
C249   C     0.13127   0.50206   0.40511   0.00000  Uiso   1.00
C250   C     0.19910   0.51139   0.09455   0.00000  Uiso   1.00
C251   C     0.12914   0.50431   0.45136   0.00000  Uiso   1.00
C252   C     0.20089   0.51321   0.04826   0.00000  Uiso   1.00
C253   C     0.16596   0.50754   0.47637   0.00000  Uiso   1.00
C254   C     0.16436   0.50711   0.02325   0.00000  Uiso   1.00
C255   C     0.20442   0.51083   0.45461   0.00000  Uiso   1.00
C256   C     0.12625   0.50050   0.04499   0.00000  Uiso   1.00
C257   C     0.09092   0.50412   0.47314   0.00000  Uiso   1.00
C258   C     0.23820   0.52260   0.02646   0.00000  Uiso   1.00
Cu259  Cu    0.16667   0.54689   0.25000   0.00000  Uiso   1.00
Cu260  Cu    0.16667   0.45311   0.25000   0.00000  Uiso   1.00
H261   H     0.10340   0.50015   0.38517   0.00000  Uiso   1.00
H262   H     0.22646   0.51782   0.11450   0.00000  Uiso   1.00
H263   H     0.06007   0.50444   0.03491   0.00000  Uiso   1.00
H264   H     0.26812   0.53157   0.46461   0.00000  Uiso   1.00
H265   H     0.03710   0.42456   0.25606   0.00000  Uiso   1.00
H266   H     0.29622   0.57555   0.24465   0.00000  Uiso   1.00
H267   H     0.29586   0.42458   0.25542   0.00000  Uiso   1.00
H268   H     0.03748   0.57550   0.24496   0.00000  Uiso   1.00
H269   H     0.11284   0.37582   0.21031   0.00000  Uiso   1.00
H270   H     0.22001   0.62369   0.29063   0.00000  Uiso   1.00
H271   H     0.22024   0.37709   0.29023   0.00000  Uiso   1.00
H272   H     0.11324   0.62274   0.20957   0.00000  Uiso   1.00
N273   N     0.16667   0.61736   0.25000   0.00000  Uiso   1.00
N274   N     0.16667   0.38264   0.25000   0.00000  Uiso   1.00
O275   O     0.10655   0.53958   0.24999   0.00000  Uiso   1.00
O276   O     0.22679   0.46042   0.25000   0.00000  Uiso   1.00
O277   O     0.22679   0.53958   0.25000   0.00000  Uiso   1.00
O278   O     0.10655   0.46042   0.24999   0.00000  Uiso   1.00
O279   O     0.16666   0.53960   0.18513   0.00000  Uiso   1.00
O280   O     0.16668   0.46040   0.31487   0.00000  Uiso   1.00
O281   O     0.16668   0.53960   0.31487   0.00000  Uiso   1.00
O282   O     0.16666   0.46040   0.18513   0.00000  Uiso   1.00
S283   S     0.25418   0.49304   0.38049   0.00000  Uiso   1.00
O284   O     0.26847   0.53765   0.35935   0.00000  Uiso   1.00
O285   O     0.28702   0.47576   0.41164   0.00000  Uiso   1.00
O286   O     0.24807   0.45202   0.34086   0.00000  Uiso   1.00
H287   H     0.24099   0.42313   0.35717   0.00000  Uiso   1.00
S288   S     0.07968   0.47422   0.11846   0.00000  Uiso   1.00
O289   O     0.05577   0.51654   0.13287   0.00000  Uiso   1.00
O290   O     0.05383   0.44467   0.08753   0.00000  Uiso   1.00
O291   O     0.08980   0.44138   0.16294   0.00000  Uiso   1.00
H292   H     0.06291   0.42779   0.17135   0.00000  Uiso   1.00
N293   N     0.05324   0.50501   0.44874   0.00000  Uiso   1.00
H294   H     0.02990   0.48607   0.46327   0.00000  Uiso   1.00
C295   C     0.03997   0.55148   0.43659   0.00000  Uiso   1.00
H296   H     0.03258   0.57222   0.46689   0.00000  Uiso   1.00
H297   H     0.01198   0.54901   0.41539   0.00000  Uiso   1.00
H298   H     0.06428   0.56974   0.41748   0.00000  Uiso   1.00
N299   N     0.27478   0.53259   0.05094   0.00000  Uiso   1.00
H300   H     0.29305   0.55781   0.03655   0.00000  Uiso   1.00
C301   C     0.29809   0.49149   0.06272   0.00000  Uiso   1.00
H302   H     0.31127   0.47497   0.03245   0.00000  Uiso   1.00
H303   H     0.27845   0.46569   0.08019   0.00000  Uiso   1.00
H304   H     0.32343   0.50193   0.08543   0.00000  Uiso   1.00
C305   C     0.42069   0.49998   0.25036   0.00000  Uiso   1.00
C306   C     0.57930   0.50005   0.24970   0.00000  Uiso   1.00
C307   C     0.42321   0.50241   0.01946   0.00000  Uiso   1.00
C308   C     0.57280   0.52208   0.48009   0.00000  Uiso   1.00
C309   C     0.35450   0.45768   0.25347   0.00000  Uiso   1.00
C310   C     0.64548   0.54243   0.24711   0.00000  Uiso   1.00
C311   C     0.64528   0.45769   0.25306   0.00000  Uiso   1.00
C312   C     0.35472   0.54239   0.24736   0.00000  Uiso   1.00
C313   C     0.62393   0.50007   0.24987   0.00000  Uiso   1.00
C314   C     0.37607   0.50001   0.25046   0.00000  Uiso   1.00
C315   C     0.47024   0.35774   0.22783   0.00000  Uiso   1.00
C316   C     0.52964   0.64212   0.27250   0.00000  Uiso   1.00
C317   C     0.52971   0.35835   0.27237   0.00000  Uiso   1.00
C318   C     0.47033   0.64157   0.22762   0.00000  Uiso   1.00
C319   C     0.49732   0.49988   0.16448   0.00000  Uiso   1.00
C320   C     0.50168   0.50018   0.33550   0.00000  Uiso   1.00
C321   C     0.53974   0.50353   0.40807   0.00000  Uiso   1.00
C322   C     0.45899   0.49316   0.09157   0.00000  Uiso   1.00
C323   C     0.50247   0.50096   0.38376   0.00000  Uiso   1.00
C324   C     0.49590   0.50015   0.11604   0.00000  Uiso   1.00
C325   C     0.46460   0.50206   0.40511   0.00000  Uiso   1.00
C326   C     0.53244   0.51139   0.09455   0.00000  Uiso   1.00
C327   C     0.46247   0.50431   0.45136   0.00000  Uiso   1.00
C328   C     0.53422   0.51321   0.04826   0.00000  Uiso   1.00
C329   C     0.49929   0.50754   0.47637   0.00000  Uiso   1.00
C330   C     0.49770   0.50711   0.02325   0.00000  Uiso   1.00
C331   C     0.53776   0.51083   0.45461   0.00000  Uiso   1.00
C332   C     0.45959   0.50050   0.04499   0.00000  Uiso   1.00
C333   C     0.42425   0.50412   0.47314   0.00000  Uiso   1.00
C334   C     0.57154   0.52260   0.02646   0.00000  Uiso   1.00
Cu335  Cu    0.50000   0.54689   0.25000   0.00000  Uiso   1.00
Cu336  Cu    0.50000   0.45311   0.25000   0.00000  Uiso   1.00
H337   H     0.43674   0.50015   0.38517   0.00000  Uiso   1.00
H338   H     0.55979   0.51782   0.11450   0.00000  Uiso   1.00
H339   H     0.39340   0.50444   0.03491   0.00000  Uiso   1.00
H340   H     0.60146   0.53157   0.46461   0.00000  Uiso   1.00
H341   H     0.37043   0.42456   0.25606   0.00000  Uiso   1.00
H342   H     0.62955   0.57555   0.24465   0.00000  Uiso   1.00
H343   H     0.62919   0.42458   0.25542   0.00000  Uiso   1.00
H344   H     0.37081   0.57550   0.24496   0.00000  Uiso   1.00
H345   H     0.44617   0.37582   0.21031   0.00000  Uiso   1.00
H346   H     0.55334   0.62369   0.29063   0.00000  Uiso   1.00
H347   H     0.55357   0.37709   0.29023   0.00000  Uiso   1.00
H348   H     0.44657   0.62274   0.20957   0.00000  Uiso   1.00
N349   N     0.50000   0.61736   0.25000   0.00000  Uiso   1.00
N350   N     0.50000   0.38264   0.25000   0.00000  Uiso   1.00
O351   O     0.43988   0.53958   0.24999   0.00000  Uiso   1.00
O352   O     0.56012   0.46042   0.25000   0.00000  Uiso   1.00
O353   O     0.56012   0.53958   0.25000   0.00000  Uiso   1.00
O354   O     0.43988   0.46042   0.24999   0.00000  Uiso   1.00
O355   O     0.49999   0.53960   0.18513   0.00000  Uiso   1.00
O356   O     0.50001   0.46040   0.31487   0.00000  Uiso   1.00
O357   O     0.50001   0.53960   0.31487   0.00000  Uiso   1.00
O358   O     0.49999   0.46040   0.18513   0.00000  Uiso   1.00
S359   S     0.58751   0.49304   0.38049   0.00000  Uiso   1.00
O360   O     0.60181   0.53765   0.35935   0.00000  Uiso   1.00
O361   O     0.62035   0.47576   0.41164   0.00000  Uiso   1.00
O362   O     0.58140   0.45202   0.34086   0.00000  Uiso   1.00
H363   H     0.57433   0.42313   0.35717   0.00000  Uiso   1.00
S364   S     0.41301   0.47422   0.11846   0.00000  Uiso   1.00
O365   O     0.38910   0.51654   0.13287   0.00000  Uiso   1.00
O366   O     0.38717   0.44467   0.08753   0.00000  Uiso   1.00
O367   O     0.42314   0.44138   0.16294   0.00000  Uiso   1.00
H368   H     0.39625   0.42779   0.17135   0.00000  Uiso   1.00
N369   N     0.38657   0.50501   0.44874   0.00000  Uiso   1.00
H370   H     0.36323   0.48607   0.46327   0.00000  Uiso   1.00
C371   C     0.37331   0.55148   0.43659   0.00000  Uiso   1.00
H372   H     0.36591   0.57222   0.46689   0.00000  Uiso   1.00
H373   H     0.34532   0.54901   0.41539   0.00000  Uiso   1.00
H374   H     0.39761   0.56974   0.41748   0.00000  Uiso   1.00
N375   N     0.60811   0.53259   0.05094   0.00000  Uiso   1.00
H376   H     0.62638   0.55781   0.03655   0.00000  Uiso   1.00
C377   C     0.63142   0.49149   0.06272   0.00000  Uiso   1.00
H378   H     0.64460   0.47497   0.03245   0.00000  Uiso   1.00
H379   H     0.61178   0.46569   0.08019   0.00000  Uiso   1.00
H380   H     0.65676   0.50193   0.08543   0.00000  Uiso   1.00
C381   C     0.75403   0.49998   0.25036   0.00000  Uiso   1.00
C382   C     0.91264   0.50005   0.24970   0.00000  Uiso   1.00
C383   C     0.75654   0.50241   0.01946   0.00000  Uiso   1.00
C384   C     0.90613   0.52208   0.48009   0.00000  Uiso   1.00
C385   C     0.68784   0.45768   0.25347   0.00000  Uiso   1.00
C386   C     0.97882   0.54243   0.24711   0.00000  Uiso   1.00
C387   C     0.97861   0.45769   0.25306   0.00000  Uiso   1.00
C388   C     0.68805   0.54239   0.24736   0.00000  Uiso   1.00
C389   C     0.95726   0.50007   0.24987   0.00000  Uiso   1.00
C390   C     0.70940   0.50001   0.25046   0.00000  Uiso   1.00
C391   C     0.80357   0.35774   0.22783   0.00000  Uiso   1.00
C392   C     0.86297   0.64212   0.27250   0.00000  Uiso   1.00
C393   C     0.86304   0.35835   0.27237   0.00000  Uiso   1.00
C394   C     0.80367   0.64157   0.22762   0.00000  Uiso   1.00
C395   C     0.83065   0.49988   0.16448   0.00000  Uiso   1.00
C396   C     0.83502   0.50018   0.33550   0.00000  Uiso   1.00
C397   C     0.87307   0.50353   0.40807   0.00000  Uiso   1.00
C398   C     0.79233   0.49316   0.09157   0.00000  Uiso   1.00
C399   C     0.83581   0.50096   0.38376   0.00000  Uiso   1.00
C400   C     0.82923   0.50015   0.11604   0.00000  Uiso   1.00
C401   C     0.79794   0.50206   0.40511   0.00000  Uiso   1.00
C402   C     0.86577   0.51139   0.09455   0.00000  Uiso   1.00
C403   C     0.79581   0.50431   0.45136   0.00000  Uiso   1.00
C404   C     0.86755   0.51321   0.04826   0.00000  Uiso   1.00
C405   C     0.83262   0.50754   0.47637   0.00000  Uiso   1.00
C406   C     0.83103   0.50711   0.02325   0.00000  Uiso   1.00
C407   C     0.87109   0.51083   0.45461   0.00000  Uiso   1.00
C408   C     0.79292   0.50050   0.04499   0.00000  Uiso   1.00
C409   C     0.75759   0.50412   0.47314   0.00000  Uiso   1.00
C410   C     0.90487   0.52260   0.02646   0.00000  Uiso   1.00
Cu411  Cu    0.83333   0.54689   0.25000   0.00000  Uiso   1.00
Cu412  Cu    0.83333   0.45311   0.25000   0.00000  Uiso   1.00
H413   H     0.77007   0.50015   0.38517   0.00000  Uiso   1.00
H414   H     0.89312   0.51782   0.11450   0.00000  Uiso   1.00
H415   H     0.72674   0.50444   0.03491   0.00000  Uiso   1.00
H416   H     0.93479   0.53157   0.46461   0.00000  Uiso   1.00
H417   H     0.70377   0.42456   0.25606   0.00000  Uiso   1.00
H418   H     0.96288   0.57555   0.24465   0.00000  Uiso   1.00
H419   H     0.96253   0.42458   0.25542   0.00000  Uiso   1.00
H420   H     0.70414   0.57550   0.24496   0.00000  Uiso   1.00
H421   H     0.77950   0.37582   0.21031   0.00000  Uiso   1.00
H422   H     0.88668   0.62369   0.29063   0.00000  Uiso   1.00
H423   H     0.88690   0.37709   0.29023   0.00000  Uiso   1.00
H424   H     0.77990   0.62274   0.20957   0.00000  Uiso   1.00
N425   N     0.83333   0.61736   0.25000   0.00000  Uiso   1.00
N426   N     0.83333   0.38264   0.25000   0.00000  Uiso   1.00
O427   O     0.77321   0.53958   0.24999   0.00000  Uiso   1.00
O428   O     0.89345   0.46042   0.25000   0.00000  Uiso   1.00
O429   O     0.89345   0.53958   0.25000   0.00000  Uiso   1.00
O430   O     0.77321   0.46042   0.24999   0.00000  Uiso   1.00
O431   O     0.83332   0.53960   0.18513   0.00000  Uiso   1.00
O432   O     0.83334   0.46040   0.31487   0.00000  Uiso   1.00
O433   O     0.83334   0.53960   0.31487   0.00000  Uiso   1.00
O434   O     0.83332   0.46040   0.18513   0.00000  Uiso   1.00
S435   S     0.92085   0.49304   0.38049   0.00000  Uiso   1.00
O436   O     0.93514   0.53765   0.35935   0.00000  Uiso   1.00
O437   O     0.95369   0.47576   0.41164   0.00000  Uiso   1.00
O438   O     0.91473   0.45202   0.34086   0.00000  Uiso   1.00
H439   H     0.90766   0.42313   0.35717   0.00000  Uiso   1.00
S440   S     0.74634   0.47422   0.11846   0.00000  Uiso   1.00
O441   O     0.72243   0.51654   0.13287   0.00000  Uiso   1.00
O442   O     0.72050   0.44467   0.08753   0.00000  Uiso   1.00
O443   O     0.75647   0.44138   0.16294   0.00000  Uiso   1.00
H444   H     0.72958   0.42779   0.17135   0.00000  Uiso   1.00
N445   N     0.71991   0.50501   0.44874   0.00000  Uiso   1.00
H446   H     0.69657   0.48607   0.46327   0.00000  Uiso   1.00
C447   C     0.70664   0.55148   0.43659   0.00000  Uiso   1.00
H448   H     0.69925   0.57222   0.46689   0.00000  Uiso   1.00
H449   H     0.67865   0.54901   0.41539   0.00000  Uiso   1.00
H450   H     0.73095   0.56974   0.41748   0.00000  Uiso   1.00
N451   N     0.94144   0.53259   0.05094   0.00000  Uiso   1.00
H452   H     0.95972   0.55781   0.03655   0.00000  Uiso   1.00
C453   C     0.96476   0.49149   0.06272   0.00000  Uiso   1.00
H454   H     0.97794   0.47497   0.03245   0.00000  Uiso   1.00
H455   H     0.94512   0.46569   0.08019   0.00000  Uiso   1.00
H456   H     0.99010   0.50193   0.08543   0.00000  Uiso   1.00
C457   C     0.08736   0.83332   0.25036   0.00000  Uiso   1.00
C458   C     0.24597   0.83338   0.24970   0.00000  Uiso   1.00
C459   C     0.08987   0.83574   0.01946   0.00000  Uiso   1.00
C460   C     0.23947   0.85542   0.48009   0.00000  Uiso   1.00
C461   C     0.02117   0.79101   0.25347   0.00000  Uiso   1.00
C462   C     0.31215   0.87576   0.24711   0.00000  Uiso   1.00
C463   C     0.31195   0.79103   0.25306   0.00000  Uiso   1.00
C464   C     0.02138   0.87573   0.24736   0.00000  Uiso   1.00
C465   C     0.29059   0.83340   0.24987   0.00000  Uiso   1.00
C466   C     0.04274   0.83334   0.25046   0.00000  Uiso   1.00
C467   C     0.13690   0.69107   0.22783   0.00000  Uiso   1.00
C468   C     0.19630   0.97545   0.27250   0.00000  Uiso   1.00
C469   C     0.19637   0.69168   0.27237   0.00000  Uiso   1.00
C470   C     0.13700   0.97490   0.22762   0.00000  Uiso   1.00
C471   C     0.16399   0.83322   0.16448   0.00000  Uiso   1.00
C472   C     0.16835   0.83351   0.33550   0.00000  Uiso   1.00
C473   C     0.20640   0.83686   0.40807   0.00000  Uiso   1.00
C474   C     0.12566   0.82649   0.09157   0.00000  Uiso   1.00
C475   C     0.16914   0.83429   0.38376   0.00000  Uiso   1.00
C476   C     0.16257   0.83348   0.11604   0.00000  Uiso   1.00
C477   C     0.13127   0.83540   0.40511   0.00000  Uiso   1.00
C478   C     0.19910   0.84472   0.09455   0.00000  Uiso   1.00
C479   C     0.12914   0.83764   0.45136   0.00000  Uiso   1.00
C480   C     0.20089   0.84654   0.04826   0.00000  Uiso   1.00
C481   C     0.16596   0.84088   0.47637   0.00000  Uiso   1.00
C482   C     0.16436   0.84044   0.02325   0.00000  Uiso   1.00
C483   C     0.20442   0.84416   0.45461   0.00000  Uiso   1.00
C484   C     0.12625   0.83383   0.04499   0.00000  Uiso   1.00
C485   C     0.09092   0.83745   0.47314   0.00000  Uiso   1.00
C486   C     0.23820   0.85594   0.02646   0.00000  Uiso   1.00
Cu487  Cu    0.16667   0.88022   0.25000   0.00000  Uiso   1.00
Cu488  Cu    0.16667   0.78645   0.25000   0.00000  Uiso   1.00
H489   H     0.10340   0.83348   0.38517   0.00000  Uiso   1.00
H490   H     0.22646   0.85115   0.11450   0.00000  Uiso   1.00
H491   H     0.06007   0.83778   0.03491   0.00000  Uiso   1.00
H492   H     0.26812   0.86490   0.46461   0.00000  Uiso   1.00
H493   H     0.03710   0.75790   0.25606   0.00000  Uiso   1.00
H494   H     0.29622   0.90888   0.24465   0.00000  Uiso   1.00
H495   H     0.29586   0.75791   0.25542   0.00000  Uiso   1.00
H496   H     0.03748   0.90884   0.24496   0.00000  Uiso   1.00
H497   H     0.11284   0.70916   0.21031   0.00000  Uiso   1.00
H498   H     0.22001   0.95702   0.29063   0.00000  Uiso   1.00
H499   H     0.22024   0.71042   0.29023   0.00000  Uiso   1.00
H500   H     0.11324   0.95608   0.20957   0.00000  Uiso   1.00
N501   N     0.16667   0.95069   0.25000   0.00000  Uiso   1.00
N502   N     0.16667   0.71598   0.25000   0.00000  Uiso   1.00
O503   O     0.10655   0.87291   0.24999   0.00000  Uiso   1.00
O504   O     0.22679   0.79375   0.25000   0.00000  Uiso   1.00
O505   O     0.22679   0.87291   0.25000   0.00000  Uiso   1.00
O506   O     0.10655   0.79375   0.24999   0.00000  Uiso   1.00
O507   O     0.16666   0.87293   0.18513   0.00000  Uiso   1.00
O508   O     0.16668   0.79373   0.31487   0.00000  Uiso   1.00
O509   O     0.16668   0.87293   0.31487   0.00000  Uiso   1.00
O510   O     0.16666   0.79373   0.18513   0.00000  Uiso   1.00
S511   S     0.25418   0.82638   0.38049   0.00000  Uiso   1.00
O512   O     0.26847   0.87098   0.35935   0.00000  Uiso   1.00
O513   O     0.28702   0.80909   0.41164   0.00000  Uiso   1.00
O514   O     0.24807   0.78535   0.34086   0.00000  Uiso   1.00
H515   H     0.24099   0.75647   0.35717   0.00000  Uiso   1.00
S516   S     0.07968   0.80755   0.11846   0.00000  Uiso   1.00
O517   O     0.05577   0.84987   0.13287   0.00000  Uiso   1.00
O518   O     0.05383   0.77801   0.08753   0.00000  Uiso   1.00
O519   O     0.08980   0.77471   0.16294   0.00000  Uiso   1.00
H520   H     0.06291   0.76112   0.17135   0.00000  Uiso   1.00
N521   N     0.05324   0.83834   0.44874   0.00000  Uiso   1.00
H522   H     0.02990   0.81940   0.46327   0.00000  Uiso   1.00
C523   C     0.03997   0.88482   0.43659   0.00000  Uiso   1.00
H524   H     0.03258   0.90555   0.46689   0.00000  Uiso   1.00
H525   H     0.01198   0.88234   0.41539   0.00000  Uiso   1.00
H526   H     0.06428   0.90307   0.41748   0.00000  Uiso   1.00
N527   N     0.27478   0.86592   0.05094   0.00000  Uiso   1.00
H528   H     0.29305   0.89115   0.03655   0.00000  Uiso   1.00
C529   C     0.29809   0.82483   0.06272   0.00000  Uiso   1.00
H530   H     0.31127   0.80830   0.03245   0.00000  Uiso   1.00
H531   H     0.27845   0.79902   0.08019   0.00000  Uiso   1.00
H532   H     0.32343   0.83526   0.08543   0.00000  Uiso   1.00
C533   C     0.42069   0.83332   0.25036   0.00000  Uiso   1.00
C534   C     0.57930   0.83338   0.24970   0.00000  Uiso   1.00
C535   C     0.42321   0.83574   0.01946   0.00000  Uiso   1.00
C536   C     0.57280   0.85542   0.48009   0.00000  Uiso   1.00
C537   C     0.35450   0.79101   0.25347   0.00000  Uiso   1.00
C538   C     0.64548   0.87576   0.24711   0.00000  Uiso   1.00
C539   C     0.64528   0.79103   0.25306   0.00000  Uiso   1.00
C540   C     0.35472   0.87573   0.24736   0.00000  Uiso   1.00
C541   C     0.62393   0.83340   0.24987   0.00000  Uiso   1.00
C542   C     0.37607   0.83334   0.25046   0.00000  Uiso   1.00
C543   C     0.47024   0.69107   0.22783   0.00000  Uiso   1.00
C544   C     0.52964   0.97545   0.27250   0.00000  Uiso   1.00
C545   C     0.52971   0.69168   0.27237   0.00000  Uiso   1.00
C546   C     0.47033   0.97490   0.22762   0.00000  Uiso   1.00
C547   C     0.49732   0.83322   0.16448   0.00000  Uiso   1.00
C548   C     0.50168   0.83351   0.33550   0.00000  Uiso   1.00
C549   C     0.53974   0.83686   0.40807   0.00000  Uiso   1.00
C550   C     0.45899   0.82649   0.09157   0.00000  Uiso   1.00
C551   C     0.50247   0.83429   0.38376   0.00000  Uiso   1.00
C552   C     0.49590   0.83348   0.11604   0.00000  Uiso   1.00
C553   C     0.46460   0.83540   0.40511   0.00000  Uiso   1.00
C554   C     0.53244   0.84472   0.09455   0.00000  Uiso   1.00
C555   C     0.46247   0.83764   0.45136   0.00000  Uiso   1.00
C556   C     0.53422   0.84654   0.04826   0.00000  Uiso   1.00
C557   C     0.49929   0.84088   0.47637   0.00000  Uiso   1.00
C558   C     0.49770   0.84044   0.02325   0.00000  Uiso   1.00
C559   C     0.53776   0.84416   0.45461   0.00000  Uiso   1.00
C560   C     0.45959   0.83383   0.04499   0.00000  Uiso   1.00
C561   C     0.42425   0.83745   0.47314   0.00000  Uiso   1.00
C562   C     0.57154   0.85594   0.02646   0.00000  Uiso   1.00
Cu563  Cu    0.50000   0.88022   0.25000   0.00000  Uiso   1.00
Cu564  Cu    0.50000   0.78645   0.25000   0.00000  Uiso   1.00
H565   H     0.43674   0.83348   0.38517   0.00000  Uiso   1.00
H566   H     0.55979   0.85115   0.11450   0.00000  Uiso   1.00
H567   H     0.39340   0.83778   0.03491   0.00000  Uiso   1.00
H568   H     0.60146   0.86490   0.46461   0.00000  Uiso   1.00
H569   H     0.37043   0.75790   0.25606   0.00000  Uiso   1.00
H570   H     0.62955   0.90888   0.24465   0.00000  Uiso   1.00
H571   H     0.62919   0.75791   0.25542   0.00000  Uiso   1.00
H572   H     0.37081   0.90884   0.24496   0.00000  Uiso   1.00
H573   H     0.44617   0.70916   0.21031   0.00000  Uiso   1.00
H574   H     0.55334   0.95702   0.29063   0.00000  Uiso   1.00
H575   H     0.55357   0.71042   0.29023   0.00000  Uiso   1.00
H576   H     0.44657   0.95608   0.20957   0.00000  Uiso   1.00
N577   N     0.50000   0.95069   0.25000   0.00000  Uiso   1.00
N578   N     0.50000   0.71598   0.25000   0.00000  Uiso   1.00
O579   O     0.43988   0.87291   0.24999   0.00000  Uiso   1.00
O580   O     0.56012   0.79375   0.25000   0.00000  Uiso   1.00
O581   O     0.56012   0.87291   0.25000   0.00000  Uiso   1.00
O582   O     0.43988   0.79375   0.24999   0.00000  Uiso   1.00
O583   O     0.49999   0.87293   0.18513   0.00000  Uiso   1.00
O584   O     0.50001   0.79373   0.31487   0.00000  Uiso   1.00
O585   O     0.50001   0.87293   0.31487   0.00000  Uiso   1.00
O586   O     0.49999   0.79373   0.18513   0.00000  Uiso   1.00
S587   S     0.58751   0.82638   0.38049   0.00000  Uiso   1.00
O588   O     0.60181   0.87098   0.35935   0.00000  Uiso   1.00
O589   O     0.62035   0.80909   0.41164   0.00000  Uiso   1.00
O590   O     0.58140   0.78535   0.34086   0.00000  Uiso   1.00
H591   H     0.57433   0.75647   0.35717   0.00000  Uiso   1.00
S592   S     0.41301   0.80755   0.11846   0.00000  Uiso   1.00
O593   O     0.38910   0.84987   0.13287   0.00000  Uiso   1.00
O594   O     0.38717   0.77801   0.08753   0.00000  Uiso   1.00
O595   O     0.42314   0.77471   0.16294   0.00000  Uiso   1.00
H596   H     0.39625   0.76112   0.17135   0.00000  Uiso   1.00
N597   N     0.38657   0.83834   0.44874   0.00000  Uiso   1.00
H598   H     0.36323   0.81940   0.46327   0.00000  Uiso   1.00
C599   C     0.37331   0.88482   0.43659   0.00000  Uiso   1.00
H600   H     0.36591   0.90555   0.46689   0.00000  Uiso   1.00
H601   H     0.34532   0.88234   0.41539   0.00000  Uiso   1.00
H602   H     0.39761   0.90307   0.41748   0.00000  Uiso   1.00
N603   N     0.60811   0.86592   0.05094   0.00000  Uiso   1.00
H604   H     0.62638   0.89115   0.03655   0.00000  Uiso   1.00
C605   C     0.63142   0.82483   0.06272   0.00000  Uiso   1.00
H606   H     0.64460   0.80830   0.03245   0.00000  Uiso   1.00
H607   H     0.61178   0.79902   0.08019   0.00000  Uiso   1.00
H608   H     0.65676   0.83526   0.08543   0.00000  Uiso   1.00
C609   C     0.75403   0.83332   0.25036   0.00000  Uiso   1.00
C610   C     0.91264   0.83338   0.24970   0.00000  Uiso   1.00
C611   C     0.75654   0.83574   0.01946   0.00000  Uiso   1.00
C612   C     0.90613   0.85542   0.48009   0.00000  Uiso   1.00
C613   C     0.68784   0.79101   0.25347   0.00000  Uiso   1.00
C614   C     0.97882   0.87576   0.24711   0.00000  Uiso   1.00
C615   C     0.97861   0.79103   0.25306   0.00000  Uiso   1.00
C616   C     0.68805   0.87573   0.24736   0.00000  Uiso   1.00
C617   C     0.95726   0.83340   0.24987   0.00000  Uiso   1.00
C618   C     0.70940   0.83334   0.25046   0.00000  Uiso   1.00
C619   C     0.80357   0.69107   0.22783   0.00000  Uiso   1.00
C620   C     0.86297   0.97545   0.27250   0.00000  Uiso   1.00
C621   C     0.86304   0.69168   0.27237   0.00000  Uiso   1.00
C622   C     0.80367   0.97490   0.22762   0.00000  Uiso   1.00
C623   C     0.83065   0.83322   0.16448   0.00000  Uiso   1.00
C624   C     0.83502   0.83351   0.33550   0.00000  Uiso   1.00
C625   C     0.87307   0.83686   0.40807   0.00000  Uiso   1.00
C626   C     0.79233   0.82649   0.09157   0.00000  Uiso   1.00
C627   C     0.83581   0.83429   0.38376   0.00000  Uiso   1.00
C628   C     0.82923   0.83348   0.11604   0.00000  Uiso   1.00
C629   C     0.79794   0.83540   0.40511   0.00000  Uiso   1.00
C630   C     0.86577   0.84472   0.09455   0.00000  Uiso   1.00
C631   C     0.79581   0.83764   0.45136   0.00000  Uiso   1.00
C632   C     0.86755   0.84654   0.04826   0.00000  Uiso   1.00
C633   C     0.83262   0.84088   0.47637   0.00000  Uiso   1.00
C634   C     0.83103   0.84044   0.02325   0.00000  Uiso   1.00
C635   C     0.87109   0.84416   0.45461   0.00000  Uiso   1.00
C636   C     0.79292   0.83383   0.04499   0.00000  Uiso   1.00
C637   C     0.75759   0.83745   0.47314   0.00000  Uiso   1.00
C638   C     0.90487   0.85594   0.02646   0.00000  Uiso   1.00
Cu639  Cu    0.83333   0.88022   0.25000   0.00000  Uiso   1.00
Cu640  Cu    0.83333   0.78645   0.25000   0.00000  Uiso   1.00
H641   H     0.77007   0.83348   0.38517   0.00000  Uiso   1.00
H642   H     0.89312   0.85115   0.11450   0.00000  Uiso   1.00
H643   H     0.72674   0.83778   0.03491   0.00000  Uiso   1.00
H644   H     0.93479   0.86490   0.46461   0.00000  Uiso   1.00
H645   H     0.70377   0.75790   0.25606   0.00000  Uiso   1.00
H646   H     0.96288   0.90888   0.24465   0.00000  Uiso   1.00
H647   H     0.96253   0.75791   0.25542   0.00000  Uiso   1.00
H648   H     0.70414   0.90884   0.24496   0.00000  Uiso   1.00
H649   H     0.77950   0.70916   0.21031   0.00000  Uiso   1.00
H650   H     0.88668   0.95702   0.29063   0.00000  Uiso   1.00
H651   H     0.88690   0.71042   0.29023   0.00000  Uiso   1.00
H652   H     0.77990   0.95608   0.20957   0.00000  Uiso   1.00
N653   N     0.83333   0.95069   0.25000   0.00000  Uiso   1.00
N654   N     0.83333   0.71598   0.25000   0.00000  Uiso   1.00
O655   O     0.77321   0.87291   0.24999   0.00000  Uiso   1.00
O656   O     0.89345   0.79375   0.25000   0.00000  Uiso   1.00
O657   O     0.89345   0.87291   0.25000   0.00000  Uiso   1.00
O658   O     0.77321   0.79375   0.24999   0.00000  Uiso   1.00
O659   O     0.83332   0.87293   0.18513   0.00000  Uiso   1.00
O660   O     0.83334   0.79373   0.31487   0.00000  Uiso   1.00
O661   O     0.83334   0.87293   0.31487   0.00000  Uiso   1.00
O662   O     0.83332   0.79373   0.18513   0.00000  Uiso   1.00
S663   S     0.92085   0.82638   0.38049   0.00000  Uiso   1.00
O664   O     0.93514   0.87098   0.35935   0.00000  Uiso   1.00
O665   O     0.95369   0.80909   0.41164   0.00000  Uiso   1.00
O666   O     0.91473   0.78535   0.34086   0.00000  Uiso   1.00
H667   H     0.90766   0.75647   0.35717   0.00000  Uiso   1.00
S668   S     0.74634   0.80755   0.11846   0.00000  Uiso   1.00
O669   O     0.72243   0.84987   0.13287   0.00000  Uiso   1.00
O670   O     0.72050   0.77801   0.08753   0.00000  Uiso   1.00
O671   O     0.75647   0.77471   0.16294   0.00000  Uiso   1.00
H672   H     0.72958   0.76112   0.17135   0.00000  Uiso   1.00
N673   N     0.71991   0.83834   0.44874   0.00000  Uiso   1.00
H674   H     0.69657   0.81940   0.46327   0.00000  Uiso   1.00
C675   C     0.70664   0.88482   0.43659   0.00000  Uiso   1.00
H676   H     0.69925   0.90555   0.46689   0.00000  Uiso   1.00
H677   H     0.67865   0.88234   0.41539   0.00000  Uiso   1.00
H678   H     0.73095   0.90307   0.41748   0.00000  Uiso   1.00
N679   N     0.94144   0.86592   0.05094   0.00000  Uiso   1.00
H680   H     0.95972   0.89115   0.03655   0.00000  Uiso   1.00
C681   C     0.96476   0.82483   0.06272   0.00000  Uiso   1.00
H682   H     0.97794   0.80830   0.03245   0.00000  Uiso   1.00
H683   H     0.94512   0.79902   0.08019   0.00000  Uiso   1.00
H684   H     0.99010   0.83526   0.08543   0.00000  Uiso   1.00
C685   C     0.08736   0.16665   0.75036   0.00000  Uiso   1.00
C686   C     0.24597   0.16672   0.74970   0.00000  Uiso   1.00
C687   C     0.08987   0.16908   0.51946   0.00000  Uiso   1.00
C688   C     0.23947   0.18875   0.98009   0.00000  Uiso   1.00
C689   C     0.02117   0.12434   0.75347   0.00000  Uiso   1.00
C690   C     0.31215   0.20910   0.74711   0.00000  Uiso   1.00
C691   C     0.31195   0.12436   0.75306   0.00000  Uiso   1.00
C692   C     0.02138   0.20906   0.74736   0.00000  Uiso   1.00
C693   C     0.29059   0.16674   0.74987   0.00000  Uiso   1.00
C694   C     0.04274   0.16667   0.75046   0.00000  Uiso   1.00
C695   C     0.13690   0.02441   0.72783   0.00000  Uiso   1.00
C696   C     0.19630   0.30878   0.77250   0.00000  Uiso   1.00
C697   C     0.19637   0.02501   0.77237   0.00000  Uiso   1.00
C698   C     0.13700   0.30823   0.72762   0.00000  Uiso   1.00
C699   C     0.16399   0.16655   0.66448   0.00000  Uiso   1.00
C700   C     0.16835   0.16684   0.83550   0.00000  Uiso   1.00
C701   C     0.20640   0.17019   0.90807   0.00000  Uiso   1.00
C702   C     0.12566   0.15982   0.59157   0.00000  Uiso   1.00
C703   C     0.16914   0.16763   0.88376   0.00000  Uiso   1.00
C704   C     0.16257   0.16682   0.61604   0.00000  Uiso   1.00
C705   C     0.13127   0.16873   0.90511   0.00000  Uiso   1.00
C706   C     0.19910   0.17806   0.59455   0.00000  Uiso   1.00
C707   C     0.12914   0.17097   0.95136   0.00000  Uiso   1.00
C708   C     0.20089   0.17987   0.54826   0.00000  Uiso   1.00
C709   C     0.16596   0.17421   0.97637   0.00000  Uiso   1.00
C710   C     0.16436   0.17378   0.52325   0.00000  Uiso   1.00
C711   C     0.20442   0.17749   0.95461   0.00000  Uiso   1.00
C712   C     0.12625   0.16716   0.54499   0.00000  Uiso   1.00
C713   C     0.09092   0.17078   0.97314   0.00000  Uiso   1.00
C714   C     0.23820   0.18927   0.52646   0.00000  Uiso   1.00
Cu715  Cu    0.16667   0.21355   0.75000   0.00000  Uiso   1.00
Cu716  Cu    0.16667   0.11978   0.75000   0.00000  Uiso   1.00
H717   H     0.10340   0.16681   0.88517   0.00000  Uiso   1.00
H718   H     0.22646   0.18448   0.61450   0.00000  Uiso   1.00
H719   H     0.06007   0.17111   0.53491   0.00000  Uiso   1.00
H720   H     0.26812   0.19823   0.96461   0.00000  Uiso   1.00
H721   H     0.03710   0.09123   0.75606   0.00000  Uiso   1.00
H722   H     0.29622   0.24222   0.74465   0.00000  Uiso   1.00
H723   H     0.29586   0.09124   0.75542   0.00000  Uiso   1.00
H724   H     0.03748   0.24217   0.74496   0.00000  Uiso   1.00
H725   H     0.11284   0.04249   0.71031   0.00000  Uiso   1.00
H726   H     0.22001   0.29036   0.79063   0.00000  Uiso   1.00
H727   H     0.22024   0.04375   0.79023   0.00000  Uiso   1.00
H728   H     0.11324   0.28941   0.70957   0.00000  Uiso   1.00
N729   N     0.16667   0.28402   0.75000   0.00000  Uiso   1.00
N730   N     0.16667   0.04931   0.75000   0.00000  Uiso   1.00
O731   O     0.10655   0.20625   0.74999   0.00000  Uiso   1.00
O732   O     0.22679   0.12709   0.75000   0.00000  Uiso   1.00
O733   O     0.22679   0.20625   0.75000   0.00000  Uiso   1.00
O734   O     0.10655   0.12709   0.74999   0.00000  Uiso   1.00
O735   O     0.16666   0.20627   0.68513   0.00000  Uiso   1.00
O736   O     0.16668   0.12707   0.81487   0.00000  Uiso   1.00
O737   O     0.16668   0.20627   0.81487   0.00000  Uiso   1.00
O738   O     0.16666   0.12707   0.68513   0.00000  Uiso   1.00
S739   S     0.25418   0.15971   0.88049   0.00000  Uiso   1.00
O740   O     0.26847   0.20431   0.85935   0.00000  Uiso   1.00
O741   O     0.28702   0.14242   0.91164   0.00000  Uiso   1.00
O742   O     0.24807   0.11868   0.84086   0.00000  Uiso   1.00
H743   H     0.24099   0.08980   0.85717   0.00000  Uiso   1.00
S744   S     0.07968   0.14089   0.61846   0.00000  Uiso   1.00
O745   O     0.05577   0.18320   0.63287   0.00000  Uiso   1.00
O746   O     0.05383   0.11134   0.58753   0.00000  Uiso   1.00
O747   O     0.08980   0.10804   0.66294   0.00000  Uiso   1.00
H748   H     0.06291   0.09446   0.67135   0.00000  Uiso   1.00
N749   N     0.05324   0.17168   0.94874   0.00000  Uiso   1.00
H750   H     0.02990   0.15273   0.96327   0.00000  Uiso   1.00
C751   C     0.03997   0.21815   0.93659   0.00000  Uiso   1.00
H752   H     0.03258   0.23889   0.96689   0.00000  Uiso   1.00
H753   H     0.01198   0.21567   0.91539   0.00000  Uiso   1.00
H754   H     0.06428   0.23640   0.91748   0.00000  Uiso   1.00
N755   N     0.27478   0.19925   0.55094   0.00000  Uiso   1.00
H756   H     0.29305   0.22448   0.53655   0.00000  Uiso   1.00
C757   C     0.29809   0.15816   0.56272   0.00000  Uiso   1.00
H758   H     0.31127   0.14164   0.53245   0.00000  Uiso   1.00
H759   H     0.27845   0.13236   0.58019   0.00000  Uiso   1.00
H760   H     0.32343   0.16860   0.58543   0.00000  Uiso   1.00
C761   C     0.42069   0.16665   0.75036   0.00000  Uiso   1.00
C762   C     0.57930   0.16672   0.74970   0.00000  Uiso   1.00
C763   C     0.42321   0.16908   0.51946   0.00000  Uiso   1.00
C764   C     0.57280   0.18875   0.98009   0.00000  Uiso   1.00
C765   C     0.35450   0.12434   0.75347   0.00000  Uiso   1.00
C766   C     0.64548   0.20910   0.74711   0.00000  Uiso   1.00
C767   C     0.64528   0.12436   0.75306   0.00000  Uiso   1.00
C768   C     0.35472   0.20906   0.74736   0.00000  Uiso   1.00
C769   C     0.62393   0.16674   0.74987   0.00000  Uiso   1.00
C770   C     0.37607   0.16667   0.75046   0.00000  Uiso   1.00
C771   C     0.47024   0.02441   0.72783   0.00000  Uiso   1.00
C772   C     0.52964   0.30878   0.77250   0.00000  Uiso   1.00
C773   C     0.52971   0.02501   0.77237   0.00000  Uiso   1.00
C774   C     0.47033   0.30823   0.72762   0.00000  Uiso   1.00
C775   C     0.49732   0.16655   0.66448   0.00000  Uiso   1.00
C776   C     0.50168   0.16684   0.83550   0.00000  Uiso   1.00
C777   C     0.53974   0.17019   0.90807   0.00000  Uiso   1.00
C778   C     0.45899   0.15982   0.59157   0.00000  Uiso   1.00
C779   C     0.50247   0.16763   0.88376   0.00000  Uiso   1.00
C780   C     0.49590   0.16682   0.61604   0.00000  Uiso   1.00
C781   C     0.46460   0.16873   0.90511   0.00000  Uiso   1.00
C782   C     0.53244   0.17806   0.59455   0.00000  Uiso   1.00
C783   C     0.46247   0.17097   0.95136   0.00000  Uiso   1.00
C784   C     0.53422   0.17987   0.54826   0.00000  Uiso   1.00
C785   C     0.49929   0.17421   0.97637   0.00000  Uiso   1.00
C786   C     0.49770   0.17378   0.52325   0.00000  Uiso   1.00
C787   C     0.53776   0.17749   0.95461   0.00000  Uiso   1.00
C788   C     0.45959   0.16716   0.54499   0.00000  Uiso   1.00
C789   C     0.42425   0.17078   0.97314   0.00000  Uiso   1.00
C790   C     0.57154   0.18927   0.52646   0.00000  Uiso   1.00
Cu791  Cu    0.50000   0.21355   0.75000   0.00000  Uiso   1.00
Cu792  Cu    0.50000   0.11978   0.75000   0.00000  Uiso   1.00
H793   H     0.43674   0.16681   0.88517   0.00000  Uiso   1.00
H794   H     0.55979   0.18448   0.61450   0.00000  Uiso   1.00
H795   H     0.39340   0.17111   0.53491   0.00000  Uiso   1.00
H796   H     0.60146   0.19823   0.96461   0.00000  Uiso   1.00
H797   H     0.37043   0.09123   0.75606   0.00000  Uiso   1.00
H798   H     0.62955   0.24222   0.74465   0.00000  Uiso   1.00
H799   H     0.62919   0.09124   0.75542   0.00000  Uiso   1.00
H800   H     0.37081   0.24217   0.74496   0.00000  Uiso   1.00
H801   H     0.44617   0.04249   0.71031   0.00000  Uiso   1.00
H802   H     0.55334   0.29036   0.79063   0.00000  Uiso   1.00
H803   H     0.55357   0.04375   0.79023   0.00000  Uiso   1.00
H804   H     0.44657   0.28941   0.70957   0.00000  Uiso   1.00
N805   N     0.50000   0.28402   0.75000   0.00000  Uiso   1.00
N806   N     0.50000   0.04931   0.75000   0.00000  Uiso   1.00
O807   O     0.43988   0.20625   0.74999   0.00000  Uiso   1.00
O808   O     0.56012   0.12709   0.75000   0.00000  Uiso   1.00
O809   O     0.56012   0.20625   0.75000   0.00000  Uiso   1.00
O810   O     0.43988   0.12709   0.74999   0.00000  Uiso   1.00
O811   O     0.49999   0.20627   0.68513   0.00000  Uiso   1.00
O812   O     0.50001   0.12707   0.81487   0.00000  Uiso   1.00
O813   O     0.50001   0.20627   0.81487   0.00000  Uiso   1.00
O814   O     0.49999   0.12707   0.68513   0.00000  Uiso   1.00
S815   S     0.58751   0.15971   0.88049   0.00000  Uiso   1.00
O816   O     0.60181   0.20431   0.85935   0.00000  Uiso   1.00
O817   O     0.62035   0.14242   0.91164   0.00000  Uiso   1.00
O818   O     0.58140   0.11868   0.84086   0.00000  Uiso   1.00
H819   H     0.57433   0.08980   0.85717   0.00000  Uiso   1.00
S820   S     0.41301   0.14089   0.61846   0.00000  Uiso   1.00
O821   O     0.38910   0.18320   0.63287   0.00000  Uiso   1.00
O822   O     0.38717   0.11134   0.58753   0.00000  Uiso   1.00
O823   O     0.42314   0.10804   0.66294   0.00000  Uiso   1.00
H824   H     0.39625   0.09446   0.67135   0.00000  Uiso   1.00
N825   N     0.38657   0.17168   0.94874   0.00000  Uiso   1.00
H826   H     0.36323   0.15273   0.96327   0.00000  Uiso   1.00
C827   C     0.37331   0.21815   0.93659   0.00000  Uiso   1.00
H828   H     0.36591   0.23889   0.96689   0.00000  Uiso   1.00
H829   H     0.34532   0.21567   0.91539   0.00000  Uiso   1.00
H830   H     0.39761   0.23640   0.91748   0.00000  Uiso   1.00
N831   N     0.60811   0.19925   0.55094   0.00000  Uiso   1.00
H832   H     0.62638   0.22448   0.53655   0.00000  Uiso   1.00
C833   C     0.63142   0.15816   0.56272   0.00000  Uiso   1.00
H834   H     0.64460   0.14164   0.53245   0.00000  Uiso   1.00
H835   H     0.61178   0.13236   0.58019   0.00000  Uiso   1.00
H836   H     0.65676   0.16860   0.58543   0.00000  Uiso   1.00
C837   C     0.75403   0.16665   0.75036   0.00000  Uiso   1.00
C838   C     0.91264   0.16672   0.74970   0.00000  Uiso   1.00
C839   C     0.75654   0.16908   0.51946   0.00000  Uiso   1.00
C840   C     0.90613   0.18875   0.98009   0.00000  Uiso   1.00
C841   C     0.68784   0.12434   0.75347   0.00000  Uiso   1.00
C842   C     0.97882   0.20910   0.74711   0.00000  Uiso   1.00
C843   C     0.97861   0.12436   0.75306   0.00000  Uiso   1.00
C844   C     0.68805   0.20906   0.74736   0.00000  Uiso   1.00
C845   C     0.95726   0.16674   0.74987   0.00000  Uiso   1.00
C846   C     0.70940   0.16667   0.75046   0.00000  Uiso   1.00
C847   C     0.80357   0.02441   0.72783   0.00000  Uiso   1.00
C848   C     0.86297   0.30878   0.77250   0.00000  Uiso   1.00
C849   C     0.86304   0.02501   0.77237   0.00000  Uiso   1.00
C850   C     0.80367   0.30823   0.72762   0.00000  Uiso   1.00
C851   C     0.83065   0.16655   0.66448   0.00000  Uiso   1.00
C852   C     0.83502   0.16684   0.83550   0.00000  Uiso   1.00
C853   C     0.87307   0.17019   0.90807   0.00000  Uiso   1.00
C854   C     0.79233   0.15982   0.59157   0.00000  Uiso   1.00
C855   C     0.83581   0.16763   0.88376   0.00000  Uiso   1.00
C856   C     0.82923   0.16682   0.61604   0.00000  Uiso   1.00
C857   C     0.79794   0.16873   0.90511   0.00000  Uiso   1.00
C858   C     0.86577   0.17806   0.59455   0.00000  Uiso   1.00
C859   C     0.79581   0.17097   0.95136   0.00000  Uiso   1.00
C860   C     0.86755   0.17987   0.54826   0.00000  Uiso   1.00
C861   C     0.83262   0.17421   0.97637   0.00000  Uiso   1.00
C862   C     0.83103   0.17378   0.52325   0.00000  Uiso   1.00
C863   C     0.87109   0.17749   0.95461   0.00000  Uiso   1.00
C864   C     0.79292   0.16716   0.54499   0.00000  Uiso   1.00
C865   C     0.75759   0.17078   0.97314   0.00000  Uiso   1.00
C866   C     0.90487   0.18927   0.52646   0.00000  Uiso   1.00
Cu867  Cu    0.83333   0.21355   0.75000   0.00000  Uiso   1.00
Cu868  Cu    0.83333   0.11978   0.75000   0.00000  Uiso   1.00
H869   H     0.77007   0.16681   0.88517   0.00000  Uiso   1.00
H870   H     0.89312   0.18448   0.61450   0.00000  Uiso   1.00
H871   H     0.72674   0.17111   0.53491   0.00000  Uiso   1.00
H872   H     0.93479   0.19823   0.96461   0.00000  Uiso   1.00
H873   H     0.70377   0.09123   0.75606   0.00000  Uiso   1.00
H874   H     0.96288   0.24222   0.74465   0.00000  Uiso   1.00
H875   H     0.96253   0.09124   0.75542   0.00000  Uiso   1.00
H876   H     0.70414   0.24217   0.74496   0.00000  Uiso   1.00
H877   H     0.77950   0.04249   0.71031   0.00000  Uiso   1.00
H878   H     0.88668   0.29036   0.79063   0.00000  Uiso   1.00
H879   H     0.88690   0.04375   0.79023   0.00000  Uiso   1.00
H880   H     0.77990   0.28941   0.70957   0.00000  Uiso   1.00
N881   N     0.83333   0.28402   0.75000   0.00000  Uiso   1.00
N882   N     0.83333   0.04931   0.75000   0.00000  Uiso   1.00
O883   O     0.77321   0.20625   0.74999   0.00000  Uiso   1.00
O884   O     0.89345   0.12709   0.75000   0.00000  Uiso   1.00
O885   O     0.89345   0.20625   0.75000   0.00000  Uiso   1.00
O886   O     0.77321   0.12709   0.74999   0.00000  Uiso   1.00
O887   O     0.83332   0.20627   0.68513   0.00000  Uiso   1.00
O888   O     0.83334   0.12707   0.81487   0.00000  Uiso   1.00
O889   O     0.83334   0.20627   0.81487   0.00000  Uiso   1.00
O890   O     0.83332   0.12707   0.68513   0.00000  Uiso   1.00
S891   S     0.92085   0.15971   0.88049   0.00000  Uiso   1.00
O892   O     0.93514   0.20431   0.85935   0.00000  Uiso   1.00
O893   O     0.95369   0.14242   0.91164   0.00000  Uiso   1.00
O894   O     0.91473   0.11868   0.84086   0.00000  Uiso   1.00
H895   H     0.90766   0.08980   0.85717   0.00000  Uiso   1.00
S896   S     0.74634   0.14089   0.61846   0.00000  Uiso   1.00
O897   O     0.72243   0.18320   0.63287   0.00000  Uiso   1.00
O898   O     0.72050   0.11134   0.58753   0.00000  Uiso   1.00
O899   O     0.75647   0.10804   0.66294   0.00000  Uiso   1.00
H900   H     0.72958   0.09446   0.67135   0.00000  Uiso   1.00
N901   N     0.71991   0.17168   0.94874   0.00000  Uiso   1.00
H902   H     0.69657   0.15273   0.96327   0.00000  Uiso   1.00
C903   C     0.70664   0.21815   0.93659   0.00000  Uiso   1.00
H904   H     0.69925   0.23889   0.96689   0.00000  Uiso   1.00
H905   H     0.67865   0.21567   0.91539   0.00000  Uiso   1.00
H906   H     0.73095   0.23640   0.91748   0.00000  Uiso   1.00
N907   N     0.94144   0.19925   0.55094   0.00000  Uiso   1.00
H908   H     0.95972   0.22448   0.53655   0.00000  Uiso   1.00
C909   C     0.96476   0.15816   0.56272   0.00000  Uiso   1.00
H910   H     0.97794   0.14164   0.53245   0.00000  Uiso   1.00
H911   H     0.94512   0.13236   0.58019   0.00000  Uiso   1.00
H912   H     0.99010   0.16860   0.58543   0.00000  Uiso   1.00
C913   C     0.08736   0.49998   0.75036   0.00000  Uiso   1.00
C914   C     0.24597   0.50005   0.74970   0.00000  Uiso   1.00
C915   C     0.08987   0.50241   0.51946   0.00000  Uiso   1.00
C916   C     0.23947   0.52208   0.98009   0.00000  Uiso   1.00
C917   C     0.02117   0.45768   0.75347   0.00000  Uiso   1.00
C918   C     0.31215   0.54243   0.74711   0.00000  Uiso   1.00
C919   C     0.31195   0.45769   0.75306   0.00000  Uiso   1.00
C920   C     0.02138   0.54239   0.74736   0.00000  Uiso   1.00
C921   C     0.29059   0.50007   0.74987   0.00000  Uiso   1.00
C922   C     0.04274   0.50001   0.75046   0.00000  Uiso   1.00
C923   C     0.13690   0.35774   0.72783   0.00000  Uiso   1.00
C924   C     0.19630   0.64212   0.77250   0.00000  Uiso   1.00
C925   C     0.19637   0.35835   0.77237   0.00000  Uiso   1.00
C926   C     0.13700   0.64157   0.72762   0.00000  Uiso   1.00
C927   C     0.16399   0.49988   0.66448   0.00000  Uiso   1.00
C928   C     0.16835   0.50018   0.83550   0.00000  Uiso   1.00
C929   C     0.20640   0.50353   0.90807   0.00000  Uiso   1.00
C930   C     0.12566   0.49316   0.59157   0.00000  Uiso   1.00
C931   C     0.16914   0.50096   0.88376   0.00000  Uiso   1.00
C932   C     0.16257   0.50015   0.61604   0.00000  Uiso   1.00
C933   C     0.13127   0.50206   0.90511   0.00000  Uiso   1.00
C934   C     0.19910   0.51139   0.59455   0.00000  Uiso   1.00
C935   C     0.12914   0.50431   0.95136   0.00000  Uiso   1.00
C936   C     0.20089   0.51321   0.54826   0.00000  Uiso   1.00
C937   C     0.16596   0.50754   0.97637   0.00000  Uiso   1.00
C938   C     0.16436   0.50711   0.52325   0.00000  Uiso   1.00
C939   C     0.20442   0.51083   0.95461   0.00000  Uiso   1.00
C940   C     0.12625   0.50050   0.54499   0.00000  Uiso   1.00
C941   C     0.09092   0.50412   0.97314   0.00000  Uiso   1.00
C942   C     0.23820   0.52260   0.52646   0.00000  Uiso   1.00
Cu943  Cu    0.16667   0.54689   0.75000   0.00000  Uiso   1.00
Cu944  Cu    0.16667   0.45311   0.75000   0.00000  Uiso   1.00
H945   H     0.10340   0.50015   0.88517   0.00000  Uiso   1.00
H946   H     0.22646   0.51782   0.61450   0.00000  Uiso   1.00
H947   H     0.06007   0.50444   0.53491   0.00000  Uiso   1.00
H948   H     0.26812   0.53157   0.96461   0.00000  Uiso   1.00
H949   H     0.03710   0.42456   0.75606   0.00000  Uiso   1.00
H950   H     0.29622   0.57555   0.74465   0.00000  Uiso   1.00
H951   H     0.29586   0.42458   0.75542   0.00000  Uiso   1.00
H952   H     0.03748   0.57550   0.74496   0.00000  Uiso   1.00
H953   H     0.11284   0.37582   0.71031   0.00000  Uiso   1.00
H954   H     0.22001   0.62369   0.79063   0.00000  Uiso   1.00
H955   H     0.22024   0.37709   0.79023   0.00000  Uiso   1.00
H956   H     0.11324   0.62274   0.70957   0.00000  Uiso   1.00
N957   N     0.16667   0.61736   0.75000   0.00000  Uiso   1.00
N958   N     0.16667   0.38264   0.75000   0.00000  Uiso   1.00
O959   O     0.10655   0.53958   0.74999   0.00000  Uiso   1.00
O960   O     0.22679   0.46042   0.75000   0.00000  Uiso   1.00
O961   O     0.22679   0.53958   0.75000   0.00000  Uiso   1.00
O962   O     0.10655   0.46042   0.74999   0.00000  Uiso   1.00
O963   O     0.16666   0.53960   0.68513   0.00000  Uiso   1.00
O964   O     0.16668   0.46040   0.81487   0.00000  Uiso   1.00
O965   O     0.16668   0.53960   0.81487   0.00000  Uiso   1.00
O966   O     0.16666   0.46040   0.68513   0.00000  Uiso   1.00
S967   S     0.25418   0.49304   0.88049   0.00000  Uiso   1.00
O968   O     0.26847   0.53765   0.85935   0.00000  Uiso   1.00
O969   O     0.28702   0.47576   0.91164   0.00000  Uiso   1.00
O970   O     0.24807   0.45202   0.84086   0.00000  Uiso   1.00
H971   H     0.24099   0.42313   0.85717   0.00000  Uiso   1.00
S972   S     0.07968   0.47422   0.61846   0.00000  Uiso   1.00
O973   O     0.05577   0.51654   0.63287   0.00000  Uiso   1.00
O974   O     0.05383   0.44467   0.58753   0.00000  Uiso   1.00
O975   O     0.08980   0.44138   0.66294   0.00000  Uiso   1.00
H976   H     0.06291   0.42779   0.67135   0.00000  Uiso   1.00
N977   N     0.05324   0.50501   0.94874   0.00000  Uiso   1.00
H978   H     0.02990   0.48607   0.96327   0.00000  Uiso   1.00
C979   C     0.03997   0.55148   0.93659   0.00000  Uiso   1.00
H980   H     0.03258   0.57222   0.96689   0.00000  Uiso   1.00
H981   H     0.01198   0.54901   0.91539   0.00000  Uiso   1.00
H982   H     0.06428   0.56974   0.91748   0.00000  Uiso   1.00
N983   N     0.27478   0.53259   0.55094   0.00000  Uiso   1.00
H984   H     0.29305   0.55781   0.53655   0.00000  Uiso   1.00
C985   C     0.29809   0.49149   0.56272   0.00000  Uiso   1.00
H986   H     0.31127   0.47497   0.53245   0.00000  Uiso   1.00
H987   H     0.27845   0.46569   0.58019   0.00000  Uiso   1.00
H988   H     0.32343   0.50193   0.58543   0.00000  Uiso   1.00
C989   C     0.42069   0.49998   0.75036   0.00000  Uiso   1.00
C990   C     0.57930   0.50005   0.74970   0.00000  Uiso   1.00
C991   C     0.42321   0.50241   0.51946   0.00000  Uiso   1.00
C992   C     0.57280   0.52208   0.98009   0.00000  Uiso   1.00
C993   C     0.35450   0.45768   0.75347   0.00000  Uiso   1.00
C994   C     0.64548   0.54243   0.74711   0.00000  Uiso   1.00
C995   C     0.64528   0.45769   0.75306   0.00000  Uiso   1.00
C996   C     0.35472   0.54239   0.74736   0.00000  Uiso   1.00
C997   C     0.62393   0.50007   0.74987   0.00000  Uiso   1.00
C998   C     0.37607   0.50001   0.75046   0.00000  Uiso   1.00
C999   C     0.47024   0.35774   0.72783   0.00000  Uiso   1.00
C1000  C     0.52964   0.64212   0.77250   0.00000  Uiso   1.00
C1001  C     0.52971   0.35835   0.77237   0.00000  Uiso   1.00
C1002  C     0.47033   0.64157   0.72762   0.00000  Uiso   1.00
C1003  C     0.49732   0.49988   0.66448   0.00000  Uiso   1.00
C1004  C     0.50168   0.50018   0.83550   0.00000  Uiso   1.00
C1005  C     0.53974   0.50353   0.90807   0.00000  Uiso   1.00
C1006  C     0.45899   0.49316   0.59157   0.00000  Uiso   1.00
C1007  C     0.50247   0.50096   0.88376   0.00000  Uiso   1.00
C1008  C     0.49590   0.50015   0.61604   0.00000  Uiso   1.00
C1009  C     0.46460   0.50206   0.90511   0.00000  Uiso   1.00
C1010  C     0.53244   0.51139   0.59455   0.00000  Uiso   1.00
C1011  C     0.46247   0.50431   0.95136   0.00000  Uiso   1.00
C1012  C     0.53422   0.51321   0.54826   0.00000  Uiso   1.00
C1013  C     0.49929   0.50754   0.97637   0.00000  Uiso   1.00
C1014  C     0.49770   0.50711   0.52325   0.00000  Uiso   1.00
C1015  C     0.53776   0.51083   0.95461   0.00000  Uiso   1.00
C1016  C     0.45959   0.50050   0.54499   0.00000  Uiso   1.00
C1017  C     0.42425   0.50412   0.97314   0.00000  Uiso   1.00
C1018  C     0.57154   0.52260   0.52646   0.00000  Uiso   1.00
Cu1019 Cu    0.50000   0.54689   0.75000   0.00000  Uiso   1.00
Cu1020 Cu    0.50000   0.45311   0.75000   0.00000  Uiso   1.00
H1021  H     0.43674   0.50015   0.88517   0.00000  Uiso   1.00
H1022  H     0.55979   0.51782   0.61450   0.00000  Uiso   1.00
H1023  H     0.39340   0.50444   0.53491   0.00000  Uiso   1.00
H1024  H     0.60146   0.53157   0.96461   0.00000  Uiso   1.00
H1025  H     0.37043   0.42456   0.75606   0.00000  Uiso   1.00
H1026  H     0.62955   0.57555   0.74465   0.00000  Uiso   1.00
H1027  H     0.62919   0.42458   0.75542   0.00000  Uiso   1.00
H1028  H     0.37081   0.57550   0.74496   0.00000  Uiso   1.00
H1029  H     0.44617   0.37582   0.71031   0.00000  Uiso   1.00
H1030  H     0.55334   0.62369   0.79063   0.00000  Uiso   1.00
H1031  H     0.55357   0.37709   0.79023   0.00000  Uiso   1.00
H1032  H     0.44657   0.62274   0.70957   0.00000  Uiso   1.00
N1033  N     0.50000   0.61736   0.75000   0.00000  Uiso   1.00
N1034  N     0.50000   0.38264   0.75000   0.00000  Uiso   1.00
O1035  O     0.43988   0.53958   0.74999   0.00000  Uiso   1.00
O1036  O     0.56012   0.46042   0.75000   0.00000  Uiso   1.00
O1037  O     0.56012   0.53958   0.75000   0.00000  Uiso   1.00
O1038  O     0.43988   0.46042   0.74999   0.00000  Uiso   1.00
O1039  O     0.49999   0.53960   0.68513   0.00000  Uiso   1.00
O1040  O     0.50001   0.46040   0.81487   0.00000  Uiso   1.00
O1041  O     0.50001   0.53960   0.81487   0.00000  Uiso   1.00
O1042  O     0.49999   0.46040   0.68513   0.00000  Uiso   1.00
S1043  S     0.58751   0.49304   0.88049   0.00000  Uiso   1.00
O1044  O     0.60181   0.53765   0.85935   0.00000  Uiso   1.00
O1045  O     0.62035   0.47576   0.91164   0.00000  Uiso   1.00
O1046  O     0.58140   0.45202   0.84086   0.00000  Uiso   1.00
H1047  H     0.57433   0.42313   0.85717   0.00000  Uiso   1.00
S1048  S     0.41301   0.47422   0.61846   0.00000  Uiso   1.00
O1049  O     0.38910   0.51654   0.63287   0.00000  Uiso   1.00
O1050  O     0.38717   0.44467   0.58753   0.00000  Uiso   1.00
O1051  O     0.42314   0.44138   0.66294   0.00000  Uiso   1.00
H1052  H     0.39625   0.42779   0.67135   0.00000  Uiso   1.00
N1053  N     0.38657   0.50501   0.94874   0.00000  Uiso   1.00
H1054  H     0.36323   0.48607   0.96327   0.00000  Uiso   1.00
C1055  C     0.37331   0.55148   0.93659   0.00000  Uiso   1.00
H1056  H     0.36591   0.57222   0.96689   0.00000  Uiso   1.00
H1057  H     0.34532   0.54901   0.91539   0.00000  Uiso   1.00
H1058  H     0.39761   0.56974   0.91748   0.00000  Uiso   1.00
N1059  N     0.60811   0.53259   0.55094   0.00000  Uiso   1.00
H1060  H     0.62638   0.55781   0.53655   0.00000  Uiso   1.00
C1061  C     0.63142   0.49149   0.56272   0.00000  Uiso   1.00
H1062  H     0.64460   0.47497   0.53245   0.00000  Uiso   1.00
H1063  H     0.61178   0.46569   0.58019   0.00000  Uiso   1.00
H1064  H     0.65676   0.50193   0.58543   0.00000  Uiso   1.00
C1065  C     0.75403   0.49998   0.75036   0.00000  Uiso   1.00
C1066  C     0.91264   0.50005   0.74970   0.00000  Uiso   1.00
C1067  C     0.75654   0.50241   0.51946   0.00000  Uiso   1.00
C1068  C     0.90613   0.52208   0.98009   0.00000  Uiso   1.00
C1069  C     0.68784   0.45768   0.75347   0.00000  Uiso   1.00
C1070  C     0.97882   0.54243   0.74711   0.00000  Uiso   1.00
C1071  C     0.97861   0.45769   0.75306   0.00000  Uiso   1.00
C1072  C     0.68805   0.54239   0.74736   0.00000  Uiso   1.00
C1073  C     0.95726   0.50007   0.74987   0.00000  Uiso   1.00
C1074  C     0.70940   0.50001   0.75046   0.00000  Uiso   1.00
C1075  C     0.80357   0.35774   0.72783   0.00000  Uiso   1.00
C1076  C     0.86297   0.64212   0.77250   0.00000  Uiso   1.00
C1077  C     0.86304   0.35835   0.77237   0.00000  Uiso   1.00
C1078  C     0.80367   0.64157   0.72762   0.00000  Uiso   1.00
C1079  C     0.83065   0.49988   0.66448   0.00000  Uiso   1.00
C1080  C     0.83502   0.50018   0.83550   0.00000  Uiso   1.00
C1081  C     0.87307   0.50353   0.90807   0.00000  Uiso   1.00
C1082  C     0.79233   0.49316   0.59157   0.00000  Uiso   1.00
C1083  C     0.83581   0.50096   0.88376   0.00000  Uiso   1.00
C1084  C     0.82923   0.50015   0.61604   0.00000  Uiso   1.00
C1085  C     0.79794   0.50206   0.90511   0.00000  Uiso   1.00
C1086  C     0.86577   0.51139   0.59455   0.00000  Uiso   1.00
C1087  C     0.79581   0.50431   0.95136   0.00000  Uiso   1.00
C1088  C     0.86755   0.51321   0.54826   0.00000  Uiso   1.00
C1089  C     0.83262   0.50754   0.97637   0.00000  Uiso   1.00
C1090  C     0.83103   0.50711   0.52325   0.00000  Uiso   1.00
C1091  C     0.87109   0.51083   0.95461   0.00000  Uiso   1.00
C1092  C     0.79292   0.50050   0.54499   0.00000  Uiso   1.00
C1093  C     0.75759   0.50412   0.97314   0.00000  Uiso   1.00
C1094  C     0.90487   0.52260   0.52646   0.00000  Uiso   1.00
Cu1095 Cu    0.83333   0.54689   0.75000   0.00000  Uiso   1.00
Cu1096 Cu    0.83333   0.45311   0.75000   0.00000  Uiso   1.00
H1097  H     0.77007   0.50015   0.88517   0.00000  Uiso   1.00
H1098  H     0.89312   0.51782   0.61450   0.00000  Uiso   1.00
H1099  H     0.72674   0.50444   0.53491   0.00000  Uiso   1.00
H1100  H     0.93479   0.53157   0.96461   0.00000  Uiso   1.00
H1101  H     0.70377   0.42456   0.75606   0.00000  Uiso   1.00
H1102  H     0.96288   0.57555   0.74465   0.00000  Uiso   1.00
H1103  H     0.96253   0.42458   0.75542   0.00000  Uiso   1.00
H1104  H     0.70414   0.57550   0.74496   0.00000  Uiso   1.00
H1105  H     0.77950   0.37582   0.71031   0.00000  Uiso   1.00
H1106  H     0.88668   0.62369   0.79063   0.00000  Uiso   1.00
H1107  H     0.88690   0.37709   0.79023   0.00000  Uiso   1.00
H1108  H     0.77990   0.62274   0.70957   0.00000  Uiso   1.00
N1109  N     0.83333   0.61736   0.75000   0.00000  Uiso   1.00
N1110  N     0.83333   0.38264   0.75000   0.00000  Uiso   1.00
O1111  O     0.77321   0.53958   0.74999   0.00000  Uiso   1.00
O1112  O     0.89345   0.46042   0.75000   0.00000  Uiso   1.00
O1113  O     0.89345   0.53958   0.75000   0.00000  Uiso   1.00
O1114  O     0.77321   0.46042   0.74999   0.00000  Uiso   1.00
O1115  O     0.83332   0.53960   0.68513   0.00000  Uiso   1.00
O1116  O     0.83334   0.46040   0.81487   0.00000  Uiso   1.00
O1117  O     0.83334   0.53960   0.81487   0.00000  Uiso   1.00
O1118  O     0.83332   0.46040   0.68513   0.00000  Uiso   1.00
S1119  S     0.92085   0.49304   0.88049   0.00000  Uiso   1.00
O1120  O     0.93514   0.53765   0.85935   0.00000  Uiso   1.00
O1121  O     0.95369   0.47576   0.91164   0.00000  Uiso   1.00
O1122  O     0.91473   0.45202   0.84086   0.00000  Uiso   1.00
H1123  H     0.90766   0.42313   0.85717   0.00000  Uiso   1.00
S1124  S     0.74634   0.47422   0.61846   0.00000  Uiso   1.00
O1125  O     0.72243   0.51654   0.63287   0.00000  Uiso   1.00
O1126  O     0.72050   0.44467   0.58753   0.00000  Uiso   1.00
O1127  O     0.75647   0.44138   0.66294   0.00000  Uiso   1.00
H1128  H     0.72958   0.42779   0.67135   0.00000  Uiso   1.00
N1129  N     0.71991   0.50501   0.94874   0.00000  Uiso   1.00
H1130  H     0.69657   0.48607   0.96327   0.00000  Uiso   1.00
C1131  C     0.70664   0.55148   0.93659   0.00000  Uiso   1.00
H1132  H     0.69925   0.57222   0.96689   0.00000  Uiso   1.00
H1133  H     0.67865   0.54901   0.91539   0.00000  Uiso   1.00
H1134  H     0.73095   0.56974   0.91748   0.00000  Uiso   1.00
N1135  N     0.94144   0.53259   0.55094   0.00000  Uiso   1.00
H1136  H     0.95972   0.55781   0.53655   0.00000  Uiso   1.00
C1137  C     0.96476   0.49149   0.56272   0.00000  Uiso   1.00
H1138  H     0.97794   0.47497   0.53245   0.00000  Uiso   1.00
H1139  H     0.94512   0.46569   0.58019   0.00000  Uiso   1.00
H1140  H     0.99010   0.50193   0.58543   0.00000  Uiso   1.00
C1141  C     0.08736   0.83332   0.75036   0.00000  Uiso   1.00
C1142  C     0.24597   0.83338   0.74970   0.00000  Uiso   1.00
C1143  C     0.08987   0.83574   0.51946   0.00000  Uiso   1.00
C1144  C     0.23947   0.85542   0.98009   0.00000  Uiso   1.00
C1145  C     0.02117   0.79101   0.75347   0.00000  Uiso   1.00
C1146  C     0.31215   0.87576   0.74711   0.00000  Uiso   1.00
C1147  C     0.31195   0.79103   0.75306   0.00000  Uiso   1.00
C1148  C     0.02138   0.87573   0.74736   0.00000  Uiso   1.00
C1149  C     0.29059   0.83340   0.74987   0.00000  Uiso   1.00
C1150  C     0.04274   0.83334   0.75046   0.00000  Uiso   1.00
C1151  C     0.13690   0.69107   0.72783   0.00000  Uiso   1.00
C1152  C     0.19630   0.97545   0.77250   0.00000  Uiso   1.00
C1153  C     0.19637   0.69168   0.77237   0.00000  Uiso   1.00
C1154  C     0.13700   0.97490   0.72762   0.00000  Uiso   1.00
C1155  C     0.16399   0.83322   0.66448   0.00000  Uiso   1.00
C1156  C     0.16835   0.83351   0.83550   0.00000  Uiso   1.00
C1157  C     0.20640   0.83686   0.90807   0.00000  Uiso   1.00
C1158  C     0.12566   0.82649   0.59157   0.00000  Uiso   1.00
C1159  C     0.16914   0.83429   0.88376   0.00000  Uiso   1.00
C1160  C     0.16257   0.83348   0.61604   0.00000  Uiso   1.00
C1161  C     0.13127   0.83540   0.90511   0.00000  Uiso   1.00
C1162  C     0.19910   0.84472   0.59455   0.00000  Uiso   1.00
C1163  C     0.12914   0.83764   0.95136   0.00000  Uiso   1.00
C1164  C     0.20089   0.84654   0.54826   0.00000  Uiso   1.00
C1165  C     0.16596   0.84088   0.97637   0.00000  Uiso   1.00
C1166  C     0.16436   0.84044   0.52325   0.00000  Uiso   1.00
C1167  C     0.20442   0.84416   0.95461   0.00000  Uiso   1.00
C1168  C     0.12625   0.83383   0.54499   0.00000  Uiso   1.00
C1169  C     0.09092   0.83745   0.97314   0.00000  Uiso   1.00
C1170  C     0.23820   0.85594   0.52646   0.00000  Uiso   1.00
Cu1171 Cu    0.16667   0.88022   0.75000   0.00000  Uiso   1.00
Cu1172 Cu    0.16667   0.78645   0.75000   0.00000  Uiso   1.00
H1173  H     0.10340   0.83348   0.88517   0.00000  Uiso   1.00
H1174  H     0.22646   0.85115   0.61450   0.00000  Uiso   1.00
H1175  H     0.06007   0.83778   0.53491   0.00000  Uiso   1.00
H1176  H     0.26812   0.86490   0.96461   0.00000  Uiso   1.00
H1177  H     0.03710   0.75790   0.75606   0.00000  Uiso   1.00
H1178  H     0.29622   0.90888   0.74465   0.00000  Uiso   1.00
H1179  H     0.29586   0.75791   0.75542   0.00000  Uiso   1.00
H1180  H     0.03748   0.90884   0.74496   0.00000  Uiso   1.00
H1181  H     0.11284   0.70916   0.71031   0.00000  Uiso   1.00
H1182  H     0.22001   0.95702   0.79063   0.00000  Uiso   1.00
H1183  H     0.22024   0.71042   0.79023   0.00000  Uiso   1.00
H1184  H     0.11324   0.95608   0.70957   0.00000  Uiso   1.00
N1185  N     0.16667   0.95069   0.75000   0.00000  Uiso   1.00
N1186  N     0.16667   0.71598   0.75000   0.00000  Uiso   1.00
O1187  O     0.10655   0.87291   0.74999   0.00000  Uiso   1.00
O1188  O     0.22679   0.79375   0.75000   0.00000  Uiso   1.00
O1189  O     0.22679   0.87291   0.75000   0.00000  Uiso   1.00
O1190  O     0.10655   0.79375   0.74999   0.00000  Uiso   1.00
O1191  O     0.16666   0.87293   0.68513   0.00000  Uiso   1.00
O1192  O     0.16668   0.79373   0.81487   0.00000  Uiso   1.00
O1193  O     0.16668   0.87293   0.81487   0.00000  Uiso   1.00
O1194  O     0.16666   0.79373   0.68513   0.00000  Uiso   1.00
S1195  S     0.25418   0.82638   0.88049   0.00000  Uiso   1.00
O1196  O     0.26847   0.87098   0.85935   0.00000  Uiso   1.00
O1197  O     0.28702   0.80909   0.91164   0.00000  Uiso   1.00
O1198  O     0.24807   0.78535   0.84086   0.00000  Uiso   1.00
H1199  H     0.24099   0.75647   0.85717   0.00000  Uiso   1.00
S1200  S     0.07968   0.80755   0.61846   0.00000  Uiso   1.00
O1201  O     0.05577   0.84987   0.63287   0.00000  Uiso   1.00
O1202  O     0.05383   0.77801   0.58753   0.00000  Uiso   1.00
O1203  O     0.08980   0.77471   0.66294   0.00000  Uiso   1.00
H1204  H     0.06291   0.76112   0.67135   0.00000  Uiso   1.00
N1205  N     0.05324   0.83834   0.94874   0.00000  Uiso   1.00
H1206  H     0.02990   0.81940   0.96327   0.00000  Uiso   1.00
C1207  C     0.03997   0.88482   0.93659   0.00000  Uiso   1.00
H1208  H     0.03258   0.90555   0.96689   0.00000  Uiso   1.00
H1209  H     0.01198   0.88234   0.91539   0.00000  Uiso   1.00
H1210  H     0.06428   0.90307   0.91748   0.00000  Uiso   1.00
N1211  N     0.27478   0.86592   0.55094   0.00000  Uiso   1.00
H1212  H     0.29305   0.89115   0.53655   0.00000  Uiso   1.00
C1213  C     0.29809   0.82483   0.56272   0.00000  Uiso   1.00
H1214  H     0.31127   0.80830   0.53245   0.00000  Uiso   1.00
H1215  H     0.27845   0.79902   0.58019   0.00000  Uiso   1.00
H1216  H     0.32343   0.83526   0.58543   0.00000  Uiso   1.00
C1217  C     0.42069   0.83332   0.75036   0.00000  Uiso   1.00
C1218  C     0.57930   0.83338   0.74970   0.00000  Uiso   1.00
C1219  C     0.42321   0.83574   0.51946   0.00000  Uiso   1.00
C1220  C     0.57280   0.85542   0.98009   0.00000  Uiso   1.00
C1221  C     0.35450   0.79101   0.75347   0.00000  Uiso   1.00
C1222  C     0.64548   0.87576   0.74711   0.00000  Uiso   1.00
C1223  C     0.64528   0.79103   0.75306   0.00000  Uiso   1.00
C1224  C     0.35472   0.87573   0.74736   0.00000  Uiso   1.00
C1225  C     0.62393   0.83340   0.74987   0.00000  Uiso   1.00
C1226  C     0.37607   0.83334   0.75046   0.00000  Uiso   1.00
C1227  C     0.47024   0.69107   0.72783   0.00000  Uiso   1.00
C1228  C     0.52964   0.97545   0.77250   0.00000  Uiso   1.00
C1229  C     0.52971   0.69168   0.77237   0.00000  Uiso   1.00
C1230  C     0.47033   0.97490   0.72762   0.00000  Uiso   1.00
C1231  C     0.49732   0.83322   0.66448   0.00000  Uiso   1.00
C1232  C     0.50168   0.83351   0.83550   0.00000  Uiso   1.00
C1233  C     0.53974   0.83686   0.90807   0.00000  Uiso   1.00
C1234  C     0.45899   0.82649   0.59157   0.00000  Uiso   1.00
C1235  C     0.50247   0.83429   0.88376   0.00000  Uiso   1.00
C1236  C     0.49590   0.83348   0.61604   0.00000  Uiso   1.00
C1237  C     0.46460   0.83540   0.90511   0.00000  Uiso   1.00
C1238  C     0.53244   0.84472   0.59455   0.00000  Uiso   1.00
C1239  C     0.46247   0.83764   0.95136   0.00000  Uiso   1.00
C1240  C     0.53422   0.84654   0.54826   0.00000  Uiso   1.00
C1241  C     0.49929   0.84088   0.97637   0.00000  Uiso   1.00
C1242  C     0.49770   0.84044   0.52325   0.00000  Uiso   1.00
C1243  C     0.53776   0.84416   0.95461   0.00000  Uiso   1.00
C1244  C     0.45959   0.83383   0.54499   0.00000  Uiso   1.00
C1245  C     0.42425   0.83745   0.97314   0.00000  Uiso   1.00
C1246  C     0.57154   0.85594   0.52646   0.00000  Uiso   1.00
Cu1247 Cu    0.50000   0.88022   0.75000   0.00000  Uiso   1.00
Cu1248 Cu    0.50000   0.78645   0.75000   0.00000  Uiso   1.00
H1249  H     0.43674   0.83348   0.88517   0.00000  Uiso   1.00
H1250  H     0.55979   0.85115   0.61450   0.00000  Uiso   1.00
H1251  H     0.39340   0.83778   0.53491   0.00000  Uiso   1.00
H1252  H     0.60146   0.86490   0.96461   0.00000  Uiso   1.00
H1253  H     0.37043   0.75790   0.75606   0.00000  Uiso   1.00
H1254  H     0.62955   0.90888   0.74465   0.00000  Uiso   1.00
H1255  H     0.62919   0.75791   0.75542   0.00000  Uiso   1.00
H1256  H     0.37081   0.90884   0.74496   0.00000  Uiso   1.00
H1257  H     0.44617   0.70916   0.71031   0.00000  Uiso   1.00
H1258  H     0.55334   0.95702   0.79063   0.00000  Uiso   1.00
H1259  H     0.55357   0.71042   0.79023   0.00000  Uiso   1.00
H1260  H     0.44657   0.95608   0.70957   0.00000  Uiso   1.00
N1261  N     0.50000   0.95069   0.75000   0.00000  Uiso   1.00
N1262  N     0.50000   0.71598   0.75000   0.00000  Uiso   1.00
O1263  O     0.43988   0.87291   0.74999   0.00000  Uiso   1.00
O1264  O     0.56012   0.79375   0.75000   0.00000  Uiso   1.00
O1265  O     0.56012   0.87291   0.75000   0.00000  Uiso   1.00
O1266  O     0.43988   0.79375   0.74999   0.00000  Uiso   1.00
O1267  O     0.49999   0.87293   0.68513   0.00000  Uiso   1.00
O1268  O     0.50001   0.79373   0.81487   0.00000  Uiso   1.00
O1269  O     0.50001   0.87293   0.81487   0.00000  Uiso   1.00
O1270  O     0.49999   0.79373   0.68513   0.00000  Uiso   1.00
S1271  S     0.58751   0.82638   0.88049   0.00000  Uiso   1.00
O1272  O     0.60181   0.87098   0.85935   0.00000  Uiso   1.00
O1273  O     0.62035   0.80909   0.91164   0.00000  Uiso   1.00
O1274  O     0.58140   0.78535   0.84086   0.00000  Uiso   1.00
H1275  H     0.57433   0.75647   0.85717   0.00000  Uiso   1.00
S1276  S     0.41301   0.80755   0.61846   0.00000  Uiso   1.00
O1277  O     0.38910   0.84987   0.63287   0.00000  Uiso   1.00
O1278  O     0.38717   0.77801   0.58753   0.00000  Uiso   1.00
O1279  O     0.42314   0.77471   0.66294   0.00000  Uiso   1.00
H1280  H     0.39625   0.76112   0.67135   0.00000  Uiso   1.00
N1281  N     0.38657   0.83834   0.94874   0.00000  Uiso   1.00
H1282  H     0.36323   0.81940   0.96327   0.00000  Uiso   1.00
C1283  C     0.37331   0.88482   0.93659   0.00000  Uiso   1.00
H1284  H     0.36591   0.90555   0.96689   0.00000  Uiso   1.00
H1285  H     0.34532   0.88234   0.91539   0.00000  Uiso   1.00
H1286  H     0.39761   0.90307   0.91748   0.00000  Uiso   1.00
N1287  N     0.60811   0.86592   0.55094   0.00000  Uiso   1.00
H1288  H     0.62638   0.89115   0.53655   0.00000  Uiso   1.00
C1289  C     0.63142   0.82483   0.56272   0.00000  Uiso   1.00
H1290  H     0.64460   0.80830   0.53245   0.00000  Uiso   1.00
H1291  H     0.61178   0.79902   0.58019   0.00000  Uiso   1.00
H1292  H     0.65676   0.83526   0.58543   0.00000  Uiso   1.00
C1293  C     0.75403   0.83332   0.75036   0.00000  Uiso   1.00
C1294  C     0.91264   0.83338   0.74970   0.00000  Uiso   1.00
C1295  C     0.75654   0.83574   0.51946   0.00000  Uiso   1.00
C1296  C     0.90613   0.85542   0.98009   0.00000  Uiso   1.00
C1297  C     0.68784   0.79101   0.75347   0.00000  Uiso   1.00
C1298  C     0.97882   0.87576   0.74711   0.00000  Uiso   1.00
C1299  C     0.97861   0.79103   0.75306   0.00000  Uiso   1.00
C1300  C     0.68805   0.87573   0.74736   0.00000  Uiso   1.00
C1301  C     0.95726   0.83340   0.74987   0.00000  Uiso   1.00
C1302  C     0.70940   0.83334   0.75046   0.00000  Uiso   1.00
C1303  C     0.80357   0.69107   0.72783   0.00000  Uiso   1.00
C1304  C     0.86297   0.97545   0.77250   0.00000  Uiso   1.00
C1305  C     0.86304   0.69168   0.77237   0.00000  Uiso   1.00
C1306  C     0.80367   0.97490   0.72762   0.00000  Uiso   1.00
C1307  C     0.83065   0.83322   0.66448   0.00000  Uiso   1.00
C1308  C     0.83502   0.83351   0.83550   0.00000  Uiso   1.00
C1309  C     0.87307   0.83686   0.90807   0.00000  Uiso   1.00
C1310  C     0.79233   0.82649   0.59157   0.00000  Uiso   1.00
C1311  C     0.83581   0.83429   0.88376   0.00000  Uiso   1.00
C1312  C     0.82923   0.83348   0.61604   0.00000  Uiso   1.00
C1313  C     0.79794   0.83540   0.90511   0.00000  Uiso   1.00
C1314  C     0.86577   0.84472   0.59455   0.00000  Uiso   1.00
C1315  C     0.79581   0.83764   0.95136   0.00000  Uiso   1.00
C1316  C     0.86755   0.84654   0.54826   0.00000  Uiso   1.00
C1317  C     0.83262   0.84088   0.97637   0.00000  Uiso   1.00
C1318  C     0.83103   0.84044   0.52325   0.00000  Uiso   1.00
C1319  C     0.87109   0.84416   0.95461   0.00000  Uiso   1.00
C1320  C     0.79292   0.83383   0.54499   0.00000  Uiso   1.00
C1321  C     0.75759   0.83745   0.97314   0.00000  Uiso   1.00
C1322  C     0.90487   0.85594   0.52646   0.00000  Uiso   1.00
Cu1323 Cu    0.83333   0.88022   0.75000   0.00000  Uiso   1.00
Cu1324 Cu    0.83333   0.78645   0.75000   0.00000  Uiso   1.00
H1325  H     0.77007   0.83348   0.88517   0.00000  Uiso   1.00
H1326  H     0.89312   0.85115   0.61450   0.00000  Uiso   1.00
H1327  H     0.72674   0.83778   0.53491   0.00000  Uiso   1.00
H1328  H     0.93479   0.86490   0.96461   0.00000  Uiso   1.00
H1329  H     0.70377   0.75790   0.75606   0.00000  Uiso   1.00
H1330  H     0.96288   0.90888   0.74465   0.00000  Uiso   1.00
H1331  H     0.96253   0.75791   0.75542   0.00000  Uiso   1.00
H1332  H     0.70414   0.90884   0.74496   0.00000  Uiso   1.00
H1333  H     0.77950   0.70916   0.71031   0.00000  Uiso   1.00
H1334  H     0.88668   0.95702   0.79063   0.00000  Uiso   1.00
H1335  H     0.88690   0.71042   0.79023   0.00000  Uiso   1.00
H1336  H     0.77990   0.95608   0.70957   0.00000  Uiso   1.00
N1337  N     0.83333   0.95069   0.75000   0.00000  Uiso   1.00
N1338  N     0.83333   0.71598   0.75000   0.00000  Uiso   1.00
O1339  O     0.77321   0.87291   0.74999   0.00000  Uiso   1.00
O1340  O     0.89345   0.79375   0.75000   0.00000  Uiso   1.00
O1341  O     0.89345   0.87291   0.75000   0.00000  Uiso   1.00
O1342  O     0.77321   0.79375   0.74999   0.00000  Uiso   1.00
O1343  O     0.83332   0.87293   0.68513   0.00000  Uiso   1.00
O1344  O     0.83334   0.79373   0.81487   0.00000  Uiso   1.00
O1345  O     0.83334   0.87293   0.81487   0.00000  Uiso   1.00
O1346  O     0.83332   0.79373   0.68513   0.00000  Uiso   1.00
S1347  S     0.92085   0.82638   0.88049   0.00000  Uiso   1.00
O1348  O     0.93514   0.87098   0.85935   0.00000  Uiso   1.00
O1349  O     0.95369   0.80909   0.91164   0.00000  Uiso   1.00
O1350  O     0.91473   0.78535   0.84086   0.00000  Uiso   1.00
H1351  H     0.90766   0.75647   0.85717   0.00000  Uiso   1.00
S1352  S     0.74634   0.80755   0.61846   0.00000  Uiso   1.00
O1353  O     0.72243   0.84987   0.63287   0.00000  Uiso   1.00
O1354  O     0.72050   0.77801   0.58753   0.00000  Uiso   1.00
O1355  O     0.75647   0.77471   0.66294   0.00000  Uiso   1.00
H1356  H     0.72958   0.76112   0.67135   0.00000  Uiso   1.00
N1357  N     0.71991   0.83834   0.94874   0.00000  Uiso   1.00
H1358  H     0.69657   0.81940   0.96327   0.00000  Uiso   1.00
C1359  C     0.70664   0.88482   0.93659   0.00000  Uiso   1.00
H1360  H     0.69925   0.90555   0.96689   0.00000  Uiso   1.00
H1361  H     0.67865   0.88234   0.91539   0.00000  Uiso   1.00
H1362  H     0.73095   0.90307   0.91748   0.00000  Uiso   1.00
N1363  N     0.94144   0.86592   0.55094   0.00000  Uiso   1.00
H1364  H     0.95972   0.89115   0.53655   0.00000  Uiso   1.00
C1365  C     0.96476   0.82483   0.56272   0.00000  Uiso   1.00
H1366  H     0.97794   0.80830   0.53245   0.00000  Uiso   1.00
H1367  H     0.94512   0.79902   0.58019   0.00000  Uiso   1.00
H1368  H     0.99010   0.83526   0.58543   0.00000  Uiso   1.00
loop_
_geom_bond_atom_site_label_1
_geom_bond_atom_site_label_2
_geom_bond_distance
_geom_bond_site_symmetry_2
_ccdc_geom_bond_type
C1     O50     1.293   .     A
C1     O47     1.291   .     A
C1     C10     1.451   .     S
C2     O48     1.292   .     A
C2     O49     1.292   .     A
C2     C9      1.451   .     S
C3     C28     1.408   .     A
C3     H35     1.079   .     S
C3     C713    1.395   1_554 S
C4     H36     1.079   .     S
C4     C27     1.405   .     A
C4     C714    1.396   .     S
C5     H37     1.083   .     S
C5     C10     1.401   .     A
C5     C159    1.383   1_455 S
C6     C9      1.401   .     A
C6     H38     1.083   .     S
C6     C84     1.384   .     S
C7     C9      1.401   .     A
C7     H39     1.083   .     S
C7     C81     1.383   .     S
C8     C10     1.401   .     A
C8     H40     1.083   .     S
C8     C158    1.384   1_455 S
C11    H41     1.076   .     S
C11    N46     1.367   .     A
C11    C470    1.415   1_545 S
C12    H42     1.082   .     S
C12    N45     1.367   .     A
C12    C241    1.417   .     S
C13    N46     1.367   .     A
C13    H43     1.080   .     S
C13    C468    1.417   1_545 S
C14    N45     1.366   .     A
C14    H44     1.082   .     S
C14    C239    1.415   .     S
C15    O51     1.293   .     A
C15    C20     1.458   .     S
C15    O54     1.295   .     A
C16    O53     1.291   .     A
C16    O52     1.292   .     A
C16    C19     1.452   .     S
C17    S55     1.790   .     S
C17    C27     1.416   .     A
C17    C19     1.413   .     A
C18    C28     1.419   .     A
C18    S60     1.788   .     S
C18    C20     1.417   .     A
C19    C21     1.392   .     A
C20    C22     1.393   .     A
C21    H33     1.085   .     S
C21    C23     1.394   .     A
C22    H34     1.084   .     S
C22    C24     1.396   .     A
C23    C29     1.408   .     A
C23    C25     1.413   .     A
C24    C26     1.411   .     A
C24    C30     1.409   .     A
C25    C27     1.418   .     A
C25    C710    1.412   .     S
C26    C28     1.417   .     A
C26    C709    1.412   1_554 S
C29    N65     1.425   .     S
C29    C687    1.395   .     S
C30    N71     1.422   .     S
C30    C688    1.396   1_554 S
Cu31   O47     1.965   .     S
Cu31   O49     1.966   .     S
Cu31   Cu32    2.681   .     S
Cu31   O53     1.964   .     S
Cu31   O51     1.961   .     S
Cu31   N45     2.014   .     S
Cu32   O48     1.965   .     S
Cu32   O52     1.961   .     S
Cu32   O54     1.964   .     S
Cu32   O50     1.966   .     S
Cu32   N46     2.014   .     S
S55    O56     1.502   .     D
S55    O57     1.503   .     D
S55    O58     1.677   .     S
O58    H59     0.991   .     S
S60    O63     1.671   .     S
S60    O62     1.504   .     D
S60    O61     1.502   .     D
O63    H64     0.991   .     S
N65    C67     1.447   .     S
N65    H66     1.032   .     S
C67    H68     1.112   .     S
C67    H69     1.110   .     S
C67    H70     1.111   .     S
N71    H72     1.032   .     S
N71    C73     1.445   .     S
C73    H74     1.112   .     S
C73    H75     1.111   .     S
C73    H76     1.106   .     S
C77    O126    1.293   .     A
C77    O123    1.291   .     A
C77    C86     1.451   .     S
C78    O124    1.292   .     A
C78    O125    1.292   .     A
C78    C85     1.451   .     S
C79    C104    1.408   .     A
C79    H111    1.079   .     S
C79    C789    1.395   1_554 S
C80    H112    1.079   .     S
C80    C103    1.405   .     A
C80    C790    1.396   .     S
C81    H113    1.083   .     S
C81    C86     1.401   .     A
C82    C85     1.401   .     A
C82    H114    1.083   .     S
C82    C160    1.384   .     S
C83    C85     1.401   .     A
C83    H115    1.083   .     S
C83    C157    1.383   .     S
C84    C86     1.401   .     A
C84    H116    1.083   .     S
C87    H117    1.076   .     S
C87    N122    1.367   .     A
C87    C546    1.415   1_545 S
C88    H118    1.082   .     S
C88    N121    1.367   .     A
C88    C317    1.417   .     S
C89    N122    1.367   .     A
C89    H119    1.080   .     S
C89    C544    1.417   1_545 S
C90    N121    1.366   .     A
C90    H120    1.082   .     S
C90    C315    1.415   .     S
C91    O127    1.293   .     A
C91    C96     1.458   .     S
C91    O130    1.295   .     A
C92    O129    1.291   .     A
C92    O128    1.292   .     A
C92    C95     1.452   .     S
C93    S131    1.790   .     S
C93    C103    1.416   .     A
C93    C95     1.413   .     A
C94    C104    1.419   .     A
C94    S136    1.788   .     S
C94    C96     1.417   .     A
C95    C97     1.392   .     A
C96    C98     1.393   .     A
C97    H109    1.085   .     S
C97    C99     1.394   .     A
C98    H110    1.084   .     S
C98    C100    1.396   .     A
C99    C105    1.408   .     A
C99    C101    1.413   .     A
C100   C102    1.411   .     A
C100   C106    1.409   .     A
C101   C103    1.418   .     A
C101   C786    1.412   .     S
C102   C104    1.417   .     A
C102   C785    1.412   1_554 S
C105   N141    1.425   .     S
C105   C763    1.395   .     S
C106   N147    1.422   .     S
C106   C764    1.396   1_554 S
Cu107  O123    1.965   .     S
Cu107  O125    1.966   .     S
Cu107  Cu108   2.681   .     S
Cu107  O129    1.964   .     S
Cu107  O127    1.961   .     S
Cu107  N121    2.014   .     S
Cu108  O124    1.965   .     S
Cu108  O128    1.961   .     S
Cu108  O130    1.964   .     S
Cu108  O126    1.966   .     S
Cu108  N122    2.014   .     S
S131   O132    1.502   .     D
S131   O133    1.503   .     D
S131   O134    1.677   .     S
O134   H135    0.991   .     S
S136   O139    1.671   .     S
S136   O138    1.504   .     D
S136   O137    1.502   .     D
O139   H140    0.991   .     S
N141   C143    1.447   .     S
N141   H142    1.032   .     S
C143   H144    1.112   .     S
C143   H145    1.110   .     S
C143   H146    1.111   .     S
N147   H148    1.032   .     S
N147   C149    1.445   .     S
C149   H150    1.112   .     S
C149   H151    1.111   .     S
C149   H152    1.106   .     S
C153   O202    1.293   .     A
C153   O199    1.291   .     A
C153   C162    1.451   .     S
C154   O200    1.292   .     A
C154   O201    1.292   .     A
C154   C161    1.451   .     S
C155   C180    1.408   .     A
C155   H187    1.079   .     S
C155   C865    1.395   1_554 S
C156   H188    1.079   .     S
C156   C179    1.405   .     A
C156   C866    1.396   .     S
C157   H189    1.083   .     S
C157   C162    1.401   .     A
C158   C161    1.401   .     A
C158   H190    1.083   .     S
C158   C8      1.384   1_655 S
C159   C161    1.401   .     A
C159   H191    1.083   .     S
C159   C5      1.383   1_655 S
C160   C162    1.401   .     A
C160   H192    1.083   .     S
C163   H193    1.076   .     S
C163   N198    1.367   .     A
C163   C622    1.415   1_545 S
C164   H194    1.082   .     S
C164   N197    1.367   .     A
C164   C393    1.417   .     S
C165   N198    1.367   .     A
C165   H195    1.080   .     S
C165   C620    1.417   1_545 S
C166   N197    1.366   .     A
C166   H196    1.082   .     S
C166   C391    1.415   .     S
C167   O203    1.293   .     A
C167   C172    1.458   .     S
C167   O206    1.295   .     A
C168   O205    1.291   .     A
C168   O204    1.292   .     A
C168   C171    1.452   .     S
C169   S207    1.790   .     S
C169   C179    1.416   .     A
C169   C171    1.413   .     A
C170   C180    1.419   .     A
C170   S212    1.788   .     S
C170   C172    1.417   .     A
C171   C173    1.392   .     A
C172   C174    1.393   .     A
C173   H185    1.085   .     S
C173   C175    1.394   .     A
C174   H186    1.084   .     S
C174   C176    1.396   .     A
C175   C181    1.408   .     A
C175   C177    1.413   .     A
C176   C178    1.411   .     A
C176   C182    1.409   .     A
C177   C179    1.418   .     A
C177   C862    1.412   .     S
C178   C180    1.417   .     A
C178   C861    1.412   1_554 S
C181   N217    1.425   .     S
C181   C839    1.395   .     S
C182   N223    1.422   .     S
C182   C840    1.396   1_554 S
Cu183  O199    1.965   .     S
Cu183  O201    1.966   .     S
Cu183  Cu184   2.681   .     S
Cu183  O205    1.964   .     S
Cu183  O203    1.961   .     S
Cu183  N197    2.014   .     S
Cu184  O200    1.965   .     S
Cu184  O204    1.961   .     S
Cu184  O206    1.964   .     S
Cu184  O202    1.966   .     S
Cu184  N198    2.014   .     S
S207   O208    1.502   .     D
S207   O209    1.503   .     D
S207   O210    1.677   .     S
O210   H211    0.991   .     S
S212   O215    1.671   .     S
S212   O214    1.504   .     D
S212   O213    1.502   .     D
O215   H216    0.991   .     S
N217   C219    1.447   .     S
N217   H218    1.032   .     S
C219   H220    1.112   .     S
C219   H221    1.110   .     S
C219   H222    1.111   .     S
N223   H224    1.032   .     S
N223   C225    1.445   .     S
C225   H226    1.112   .     S
C225   H227    1.111   .     S
C225   H228    1.106   .     S
C229   O278    1.293   .     A
C229   O275    1.291   .     A
C229   C238    1.451   .     S
C230   O276    1.292   .     A
C230   O277    1.292   .     A
C230   C237    1.451   .     S
C231   C256    1.408   .     A
C231   H263    1.079   .     S
C231   C941    1.395   1_554 S
C232   H264    1.079   .     S
C232   C255    1.405   .     A
C232   C942    1.396   .     S
C233   H265    1.083   .     S
C233   C238    1.401   .     A
C233   C387    1.383   1_455 S
C234   C237    1.401   .     A
C234   H266    1.083   .     S
C234   C312    1.384   .     S
C235   C237    1.401   .     A
C235   H267    1.083   .     S
C235   C309    1.383   .     S
C236   C238    1.401   .     A
C236   H268    1.083   .     S
C236   C386    1.384   1_455 S
C239   H269    1.076   .     S
C239   N274    1.367   .     A
C240   H270    1.082   .     S
C240   N273    1.367   .     A
C240   C469    1.417   .     S
C241   N274    1.367   .     A
C241   H271    1.080   .     S
C242   N273    1.366   .     A
C242   H272    1.082   .     S
C242   C467    1.415   .     S
C243   O279    1.293   .     A
C243   C248    1.458   .     S
C243   O282    1.295   .     A
C244   O281    1.291   .     A
C244   O280    1.292   .     A
C244   C247    1.452   .     S
C245   S283    1.790   .     S
C245   C255    1.416   .     A
C245   C247    1.413   .     A
C246   C256    1.419   .     A
C246   S288    1.788   .     S
C246   C248    1.417   .     A
C247   C249    1.392   .     A
C248   C250    1.393   .     A
C249   H261    1.085   .     S
C249   C251    1.394   .     A
C250   H262    1.084   .     S
C250   C252    1.396   .     A
C251   C257    1.408   .     A
C251   C253    1.413   .     A
C252   C254    1.411   .     A
C252   C258    1.409   .     A
C253   C255    1.418   .     A
C253   C938    1.412   .     S
C254   C256    1.417   .     A
C254   C937    1.412   1_554 S
C257   N293    1.425   .     S
C257   C915    1.395   .     S
C258   N299    1.422   .     S
C258   C916    1.396   1_554 S
Cu259  O275    1.965   .     S
Cu259  O277    1.966   .     S
Cu259  Cu260   2.681   .     S
Cu259  O281    1.964   .     S
Cu259  O279    1.961   .     S
Cu259  N273    2.014   .     S
Cu260  O276    1.965   .     S
Cu260  O280    1.961   .     S
Cu260  O282    1.964   .     S
Cu260  O278    1.966   .     S
Cu260  N274    2.014   .     S
S283   O284    1.502   .     D
S283   O285    1.503   .     D
S283   O286    1.677   .     S
O286   H287    0.991   .     S
S288   O291    1.671   .     S
S288   O290    1.504   .     D
S288   O289    1.502   .     D
O291   H292    0.991   .     S
N293   C295    1.447   .     S
N293   H294    1.032   .     S
C295   H296    1.112   .     S
C295   H297    1.110   .     S
C295   H298    1.111   .     S
N299   H300    1.032   .     S
N299   C301    1.445   .     S
C301   H302    1.112   .     S
C301   H303    1.111   .     S
C301   H304    1.106   .     S
C305   O354    1.293   .     A
C305   O351    1.291   .     A
C305   C314    1.451   .     S
C306   O352    1.292   .     A
C306   O353    1.292   .     A
C306   C313    1.451   .     S
C307   C332    1.408   .     A
C307   H339    1.079   .     S
C307   C1017   1.395   1_554 S
C308   H340    1.079   .     S
C308   C331    1.405   .     A
C308   C1018   1.396   .     S
C309   H341    1.083   .     S
C309   C314    1.401   .     A
C310   C313    1.401   .     A
C310   H342    1.083   .     S
C310   C388    1.384   .     S
C311   C313    1.401   .     A
C311   H343    1.083   .     S
C311   C385    1.383   .     S
C312   C314    1.401   .     A
C312   H344    1.083   .     S
C315   H345    1.076   .     S
C315   N350    1.367   .     A
C316   H346    1.082   .     S
C316   N349    1.367   .     A
C316   C545    1.417   .     S
C317   N350    1.367   .     A
C317   H347    1.080   .     S
C318   N349    1.366   .     A
C318   H348    1.082   .     S
C318   C543    1.415   .     S
C319   O355    1.293   .     A
C319   C324    1.458   .     S
C319   O358    1.295   .     A
C320   O357    1.291   .     A
C320   O356    1.292   .     A
C320   C323    1.452   .     S
C321   S359    1.790   .     S
C321   C331    1.416   .     A
C321   C323    1.413   .     A
C322   C332    1.419   .     A
C322   S364    1.788   .     S
C322   C324    1.417   .     A
C323   C325    1.392   .     A
C324   C326    1.393   .     A
C325   H337    1.085   .     S
C325   C327    1.394   .     A
C326   H338    1.084   .     S
C326   C328    1.396   .     A
C327   C333    1.408   .     A
C327   C329    1.413   .     A
C328   C330    1.411   .     A
C328   C334    1.409   .     A
C329   C331    1.418   .     A
C329   C1014   1.412   .     S
C330   C332    1.417   .     A
C330   C1013   1.412   1_554 S
C333   N369    1.425   .     S
C333   C991    1.395   .     S
C334   N375    1.422   .     S
C334   C992    1.396   1_554 S
Cu335  O351    1.965   .     S
Cu335  O353    1.966   .     S
Cu335  Cu336   2.681   .     S
Cu335  O357    1.964   .     S
Cu335  O355    1.961   .     S
Cu335  N349    2.014   .     S
Cu336  O352    1.965   .     S
Cu336  O356    1.961   .     S
Cu336  O358    1.964   .     S
Cu336  O354    1.966   .     S
Cu336  N350    2.014   .     S
S359   O360    1.502   .     D
S359   O361    1.503   .     D
S359   O362    1.677   .     S
O362   H363    0.991   .     S
S364   O367    1.671   .     S
S364   O366    1.504   .     D
S364   O365    1.502   .     D
O367   H368    0.991   .     S
N369   C371    1.447   .     S
N369   H370    1.032   .     S
C371   H372    1.112   .     S
C371   H373    1.110   .     S
C371   H374    1.111   .     S
N375   H376    1.032   .     S
N375   C377    1.445   .     S
C377   H378    1.112   .     S
C377   H379    1.111   .     S
C377   H380    1.106   .     S
C381   O430    1.293   .     A
C381   O427    1.291   .     A
C381   C390    1.451   .     S
C382   O428    1.292   .     A
C382   O429    1.292   .     A
C382   C389    1.451   .     S
C383   C408    1.408   .     A
C383   H415    1.079   .     S
C383   C1093   1.395   1_554 S
C384   H416    1.079   .     S
C384   C407    1.405   .     A
C384   C1094   1.396   .     S
C385   H417    1.083   .     S
C385   C390    1.401   .     A
C386   C389    1.401   .     A
C386   H418    1.083   .     S
C386   C236    1.384   1_655 S
C387   C389    1.401   .     A
C387   H419    1.083   .     S
C387   C233    1.383   1_655 S
C388   C390    1.401   .     A
C388   H420    1.083   .     S
C391   H421    1.076   .     S
C391   N426    1.367   .     A
C392   H422    1.082   .     S
C392   N425    1.367   .     A
C392   C621    1.417   .     S
C393   N426    1.367   .     A
C393   H423    1.080   .     S
C394   N425    1.366   .     A
C394   H424    1.082   .     S
C394   C619    1.415   .     S
C395   O431    1.293   .     A
C395   C400    1.458   .     S
C395   O434    1.295   .     A
C396   O433    1.291   .     A
C396   O432    1.292   .     A
C396   C399    1.452   .     S
C397   S435    1.790   .     S
C397   C407    1.416   .     A
C397   C399    1.413   .     A
C398   C408    1.419   .     A
C398   S440    1.788   .     S
C398   C400    1.417   .     A
C399   C401    1.392   .     A
C400   C402    1.393   .     A
C401   H413    1.085   .     S
C401   C403    1.394   .     A
C402   H414    1.084   .     S
C402   C404    1.396   .     A
C403   C409    1.408   .     A
C403   C405    1.413   .     A
C404   C406    1.411   .     A
C404   C410    1.409   .     A
C405   C407    1.418   .     A
C405   C1090   1.412   .     S
C406   C408    1.417   .     A
C406   C1089   1.412   1_554 S
C409   N445    1.425   .     S
C409   C1067   1.395   .     S
C410   N451    1.422   .     S
C410   C1068   1.396   1_554 S
Cu411  O427    1.965   .     S
Cu411  O429    1.966   .     S
Cu411  Cu412   2.681   .     S
Cu411  O433    1.964   .     S
Cu411  O431    1.961   .     S
Cu411  N425    2.014   .     S
Cu412  O428    1.965   .     S
Cu412  O432    1.961   .     S
Cu412  O434    1.964   .     S
Cu412  O430    1.966   .     S
Cu412  N426    2.014   .     S
S435   O436    1.502   .     D
S435   O437    1.503   .     D
S435   O438    1.677   .     S
O438   H439    0.991   .     S
S440   O443    1.671   .     S
S440   O442    1.504   .     D
S440   O441    1.502   .     D
O443   H444    0.991   .     S
N445   C447    1.447   .     S
N445   H446    1.032   .     S
C447   H448    1.112   .     S
C447   H449    1.110   .     S
C447   H450    1.111   .     S
N451   H452    1.032   .     S
N451   C453    1.445   .     S
C453   H454    1.112   .     S
C453   H455    1.111   .     S
C453   H456    1.106   .     S
C457   O506    1.293   .     A
C457   O503    1.291   .     A
C457   C466    1.451   .     S
C458   O504    1.292   .     A
C458   O505    1.292   .     A
C458   C465    1.451   .     S
C459   C484    1.408   .     A
C459   H491    1.079   .     S
C459   C1169   1.395   1_554 S
C460   H492    1.079   .     S
C460   C483    1.405   .     A
C460   C1170   1.396   .     S
C461   H493    1.083   .     S
C461   C466    1.401   .     A
C461   C615    1.383   1_455 S
C462   C465    1.401   .     A
C462   H494    1.083   .     S
C462   C540    1.384   .     S
C463   C465    1.401   .     A
C463   H495    1.083   .     S
C463   C537    1.383   .     S
C464   C466    1.401   .     A
C464   H496    1.083   .     S
C464   C614    1.384   1_455 S
C467   H497    1.076   .     S
C467   N502    1.367   .     A
C468   H498    1.082   .     S
C468   N501    1.367   .     A
C468   C13     1.417   1_565 S
C469   N502    1.367   .     A
C469   H499    1.080   .     S
C470   N501    1.366   .     A
C470   H500    1.082   .     S
C470   C11     1.415   1_565 S
C471   O507    1.293   .     A
C471   C476    1.458   .     S
C471   O510    1.295   .     A
C472   O509    1.291   .     A
C472   O508    1.292   .     A
C472   C475    1.452   .     S
C473   S511    1.790   .     S
C473   C483    1.416   .     A
C473   C475    1.413   .     A
C474   C484    1.419   .     A
C474   S516    1.788   .     S
C474   C476    1.417   .     A
C475   C477    1.392   .     A
C476   C478    1.393   .     A
C477   H489    1.085   .     S
C477   C479    1.394   .     A
C478   H490    1.084   .     S
C478   C480    1.396   .     A
C479   C485    1.408   .     A
C479   C481    1.413   .     A
C480   C482    1.411   .     A
C480   C486    1.409   .     A
C481   C483    1.418   .     A
C481   C1166   1.412   .     S
C482   C484    1.417   .     A
C482   C1165   1.412   1_554 S
C485   N521    1.425   .     S
C485   C1143   1.395   .     S
C486   N527    1.422   .     S
C486   C1144   1.396   1_554 S
Cu487  O503    1.965   .     S
Cu487  O505    1.966   .     S
Cu487  Cu488   2.681   .     S
Cu487  O509    1.964   .     S
Cu487  O507    1.961   .     S
Cu487  N501    2.014   .     S
Cu488  O504    1.965   .     S
Cu488  O508    1.961   .     S
Cu488  O510    1.964   .     S
Cu488  O506    1.966   .     S
Cu488  N502    2.014   .     S
S511   O512    1.502   .     D
S511   O513    1.503   .     D
S511   O514    1.677   .     S
O514   H515    0.991   .     S
S516   O519    1.671   .     S
S516   O518    1.504   .     D
S516   O517    1.502   .     D
O519   H520    0.991   .     S
N521   C523    1.447   .     S
N521   H522    1.032   .     S
C523   H524    1.112   .     S
C523   H525    1.110   .     S
C523   H526    1.111   .     S
N527   H528    1.032   .     S
N527   C529    1.445   .     S
C529   H530    1.112   .     S
C529   H531    1.111   .     S
C529   H532    1.106   .     S
C533   O582    1.293   .     A
C533   O579    1.291   .     A
C533   C542    1.451   .     S
C534   O580    1.292   .     A
C534   O581    1.292   .     A
C534   C541    1.451   .     S
C535   C560    1.408   .     A
C535   H567    1.079   .     S
C535   C1245   1.395   1_554 S
C536   H568    1.079   .     S
C536   C559    1.405   .     A
C536   C1246   1.396   .     S
C537   H569    1.083   .     S
C537   C542    1.401   .     A
C538   C541    1.401   .     A
C538   H570    1.083   .     S
C538   C616    1.384   .     S
C539   C541    1.401   .     A
C539   H571    1.083   .     S
C539   C613    1.383   .     S
C540   C542    1.401   .     A
C540   H572    1.083   .     S
C543   H573    1.076   .     S
C543   N578    1.367   .     A
C544   H574    1.082   .     S
C544   N577    1.367   .     A
C544   C89     1.417   1_565 S
C545   N578    1.367   .     A
C545   H575    1.080   .     S
C546   N577    1.366   .     A
C546   H576    1.082   .     S
C546   C87     1.415   1_565 S
C547   O583    1.293   .     A
C547   C552    1.458   .     S
C547   O586    1.295   .     A
C548   O585    1.291   .     A
C548   O584    1.292   .     A
C548   C551    1.452   .     S
C549   S587    1.790   .     S
C549   C559    1.416   .     A
C549   C551    1.413   .     A
C550   C560    1.419   .     A
C550   S592    1.788   .     S
C550   C552    1.417   .     A
C551   C553    1.392   .     A
C552   C554    1.393   .     A
C553   H565    1.085   .     S
C553   C555    1.394   .     A
C554   H566    1.084   .     S
C554   C556    1.396   .     A
C555   C561    1.408   .     A
C555   C557    1.413   .     A
C556   C558    1.411   .     A
C556   C562    1.409   .     A
C557   C559    1.418   .     A
C557   C1242   1.412   .     S
C558   C560    1.417   .     A
C558   C1241   1.412   1_554 S
C561   N597    1.425   .     S
C561   C1219   1.395   .     S
C562   N603    1.422   .     S
C562   C1220   1.396   1_554 S
Cu563  O579    1.965   .     S
Cu563  O581    1.966   .     S
Cu563  Cu564   2.681   .     S
Cu563  O585    1.964   .     S
Cu563  O583    1.961   .     S
Cu563  N577    2.014   .     S
Cu564  O580    1.965   .     S
Cu564  O584    1.961   .     S
Cu564  O586    1.964   .     S
Cu564  O582    1.966   .     S
Cu564  N578    2.014   .     S
S587   O588    1.502   .     D
S587   O589    1.503   .     D
S587   O590    1.677   .     S
O590   H591    0.991   .     S
S592   O595    1.671   .     S
S592   O594    1.504   .     D
S592   O593    1.502   .     D
O595   H596    0.991   .     S
N597   C599    1.447   .     S
N597   H598    1.032   .     S
C599   H600    1.112   .     S
C599   H601    1.110   .     S
C599   H602    1.111   .     S
N603   H604    1.032   .     S
N603   C605    1.445   .     S
C605   H606    1.112   .     S
C605   H607    1.111   .     S
C605   H608    1.106   .     S
C609   O658    1.293   .     A
C609   O655    1.291   .     A
C609   C618    1.451   .     S
C610   O656    1.292   .     A
C610   O657    1.292   .     A
C610   C617    1.451   .     S
C611   C636    1.408   .     A
C611   H643    1.079   .     S
C611   C1321   1.395   1_554 S
C612   H644    1.079   .     S
C612   C635    1.405   .     A
C612   C1322   1.396   .     S
C613   H645    1.083   .     S
C613   C618    1.401   .     A
C614   C617    1.401   .     A
C614   H646    1.083   .     S
C614   C464    1.384   1_655 S
C615   C617    1.401   .     A
C615   H647    1.083   .     S
C615   C461    1.383   1_655 S
C616   C618    1.401   .     A
C616   H648    1.083   .     S
C619   H649    1.076   .     S
C619   N654    1.367   .     A
C620   H650    1.082   .     S
C620   N653    1.367   .     A
C620   C165    1.417   1_565 S
C621   N654    1.367   .     A
C621   H651    1.080   .     S
C622   N653    1.366   .     A
C622   H652    1.082   .     S
C622   C163    1.415   1_565 S
C623   O659    1.293   .     A
C623   C628    1.458   .     S
C623   O662    1.295   .     A
C624   O661    1.291   .     A
C624   O660    1.292   .     A
C624   C627    1.452   .     S
C625   S663    1.790   .     S
C625   C635    1.416   .     A
C625   C627    1.413   .     A
C626   C636    1.419   .     A
C626   S668    1.788   .     S
C626   C628    1.417   .     A
C627   C629    1.392   .     A
C628   C630    1.393   .     A
C629   H641    1.085   .     S
C629   C631    1.394   .     A
C630   H642    1.084   .     S
C630   C632    1.396   .     A
C631   C637    1.408   .     A
C631   C633    1.413   .     A
C632   C634    1.411   .     A
C632   C638    1.409   .     A
C633   C635    1.418   .     A
C633   C1318   1.412   .     S
C634   C636    1.417   .     A
C634   C1317   1.412   1_554 S
C637   N673    1.425   .     S
C637   C1295   1.395   .     S
C638   N679    1.422   .     S
C638   C1296   1.396   1_554 S
Cu639  O655    1.965   .     S
Cu639  O657    1.966   .     S
Cu639  Cu640   2.681   .     S
Cu639  O661    1.964   .     S
Cu639  O659    1.961   .     S
Cu639  N653    2.014   .     S
Cu640  O656    1.965   .     S
Cu640  O660    1.961   .     S
Cu640  O662    1.964   .     S
Cu640  O658    1.966   .     S
Cu640  N654    2.014   .     S
S663   O664    1.502   .     D
S663   O665    1.503   .     D
S663   O666    1.677   .     S
O666   H667    0.991   .     S
S668   O671    1.671   .     S
S668   O670    1.504   .     D
S668   O669    1.502   .     D
O671   H672    0.991   .     S
N673   C675    1.447   .     S
N673   H674    1.032   .     S
C675   H676    1.112   .     S
C675   H677    1.110   .     S
C675   H678    1.111   .     S
N679   H680    1.032   .     S
N679   C681    1.445   .     S
C681   H682    1.112   .     S
C681   H683    1.111   .     S
C681   H684    1.106   .     S
C685   O734    1.293   .     A
C685   O731    1.291   .     A
C685   C694    1.451   .     S
C686   O732    1.292   .     A
C686   O733    1.292   .     A
C686   C693    1.451   .     S
C687   C712    1.408   .     A
C687   H719    1.079   .     S
C688   H720    1.079   .     S
C688   C711    1.405   .     A
C688   C30     1.396   1_556 S
C689   H721    1.083   .     S
C689   C694    1.401   .     A
C689   C843    1.383   1_455 S
C690   C693    1.401   .     A
C690   H722    1.083   .     S
C690   C768    1.384   .     S
C691   C693    1.401   .     A
C691   H723    1.083   .     S
C691   C765    1.383   .     S
C692   C694    1.401   .     A
C692   H724    1.083   .     S
C692   C842    1.384   1_455 S
C695   H725    1.076   .     S
C695   N730    1.367   .     A
C695   C1154   1.415   1_545 S
C696   H726    1.082   .     S
C696   N729    1.367   .     A
C696   C925    1.417   .     S
C697   N730    1.367   .     A
C697   H727    1.080   .     S
C697   C1152   1.417   1_545 S
C698   N729    1.366   .     A
C698   H728    1.082   .     S
C698   C923    1.415   .     S
C699   O735    1.293   .     A
C699   C704    1.458   .     S
C699   O738    1.295   .     A
C700   O737    1.291   .     A
C700   O736    1.292   .     A
C700   C703    1.452   .     S
C701   S739    1.790   .     S
C701   C711    1.416   .     A
C701   C703    1.413   .     A
C702   C712    1.419   .     A
C702   S744    1.788   .     S
C702   C704    1.417   .     A
C703   C705    1.392   .     A
C704   C706    1.393   .     A
C705   H717    1.085   .     S
C705   C707    1.394   .     A
C706   H718    1.084   .     S
C706   C708    1.396   .     A
C707   C713    1.408   .     A
C707   C709    1.413   .     A
C708   C710    1.411   .     A
C708   C714    1.409   .     A
C709   C711    1.418   .     A
C709   C26     1.412   1_556 S
C710   C712    1.417   .     A
C713   N749    1.425   .     S
C713   C3      1.395   1_556 S
C714   N755    1.422   .     S
Cu715  O731    1.965   .     S
Cu715  O733    1.966   .     S
Cu715  Cu716   2.681   .     S
Cu715  O737    1.964   .     S
Cu715  O735    1.961   .     S
Cu715  N729    2.014   .     S
Cu716  O732    1.965   .     S
Cu716  O736    1.961   .     S
Cu716  O738    1.964   .     S
Cu716  O734    1.966   .     S
Cu716  N730    2.014   .     S
S739   O740    1.502   .     D
S739   O741    1.503   .     D
S739   O742    1.677   .     S
O742   H743    0.991   .     S
S744   O747    1.671   .     S
S744   O746    1.504   .     D
S744   O745    1.502   .     D
O747   H748    0.991   .     S
N749   C751    1.447   .     S
N749   H750    1.032   .     S
C751   H752    1.112   .     S
C751   H753    1.110   .     S
C751   H754    1.111   .     S
N755   H756    1.032   .     S
N755   C757    1.445   .     S
C757   H758    1.112   .     S
C757   H759    1.111   .     S
C757   H760    1.106   .     S
C761   O810    1.293   .     A
C761   O807    1.291   .     A
C761   C770    1.451   .     S
C762   O808    1.292   .     A
C762   O809    1.292   .     A
C762   C769    1.451   .     S
C763   C788    1.408   .     A
C763   H795    1.079   .     S
C764   H796    1.079   .     S
C764   C787    1.405   .     A
C764   C106    1.396   1_556 S
C765   H797    1.083   .     S
C765   C770    1.401   .     A
C766   C769    1.401   .     A
C766   H798    1.083   .     S
C766   C844    1.384   .     S
C767   C769    1.401   .     A
C767   H799    1.083   .     S
C767   C841    1.383   .     S
C768   C770    1.401   .     A
C768   H800    1.083   .     S
C771   H801    1.076   .     S
C771   N806    1.367   .     A
C771   C1230   1.415   1_545 S
C772   H802    1.082   .     S
C772   N805    1.367   .     A
C772   C1001   1.417   .     S
C773   N806    1.367   .     A
C773   H803    1.080   .     S
C773   C1228   1.417   1_545 S
C774   N805    1.366   .     A
C774   H804    1.082   .     S
C774   C999    1.415   .     S
C775   O811    1.293   .     A
C775   C780    1.458   .     S
C775   O814    1.295   .     A
C776   O813    1.291   .     A
C776   O812    1.292   .     A
C776   C779    1.452   .     S
C777   S815    1.790   .     S
C777   C787    1.416   .     A
C777   C779    1.413   .     A
C778   C788    1.419   .     A
C778   S820    1.788   .     S
C778   C780    1.417   .     A
C779   C781    1.392   .     A
C780   C782    1.393   .     A
C781   H793    1.085   .     S
C781   C783    1.394   .     A
C782   H794    1.084   .     S
C782   C784    1.396   .     A
C783   C789    1.408   .     A
C783   C785    1.413   .     A
C784   C786    1.411   .     A
C784   C790    1.409   .     A
C785   C787    1.418   .     A
C785   C102    1.412   1_556 S
C786   C788    1.417   .     A
C789   N825    1.425   .     S
C789   C79     1.395   1_556 S
C790   N831    1.422   .     S
Cu791  O807    1.965   .     S
Cu791  O809    1.966   .     S
Cu791  Cu792   2.681   .     S
Cu791  O813    1.964   .     S
Cu791  O811    1.961   .     S
Cu791  N805    2.014   .     S
Cu792  O808    1.965   .     S
Cu792  O812    1.961   .     S
Cu792  O814    1.964   .     S
Cu792  O810    1.966   .     S
Cu792  N806    2.014   .     S
S815   O816    1.502   .     D
S815   O817    1.503   .     D
S815   O818    1.677   .     S
O818   H819    0.991   .     S
S820   O823    1.671   .     S
S820   O822    1.504   .     D
S820   O821    1.502   .     D
O823   H824    0.991   .     S
N825   C827    1.447   .     S
N825   H826    1.032   .     S
C827   H828    1.112   .     S
C827   H829    1.110   .     S
C827   H830    1.111   .     S
N831   H832    1.032   .     S
N831   C833    1.445   .     S
C833   H834    1.112   .     S
C833   H835    1.111   .     S
C833   H836    1.106   .     S
C837   O886    1.293   .     A
C837   O883    1.291   .     A
C837   C846    1.451   .     S
C838   O884    1.292   .     A
C838   O885    1.292   .     A
C838   C845    1.451   .     S
C839   C864    1.408   .     A
C839   H871    1.079   .     S
C840   H872    1.079   .     S
C840   C863    1.405   .     A
C840   C182    1.396   1_556 S
C841   H873    1.083   .     S
C841   C846    1.401   .     A
C842   C845    1.401   .     A
C842   H874    1.083   .     S
C842   C692    1.384   1_655 S
C843   C845    1.401   .     A
C843   H875    1.083   .     S
C843   C689    1.383   1_655 S
C844   C846    1.401   .     A
C844   H876    1.083   .     S
C847   H877    1.076   .     S
C847   N882    1.367   .     A
C847   C1306   1.415   1_545 S
C848   H878    1.082   .     S
C848   N881    1.367   .     A
C848   C1077   1.417   .     S
C849   N882    1.367   .     A
C849   H879    1.080   .     S
C849   C1304   1.417   1_545 S
C850   N881    1.366   .     A
C850   H880    1.082   .     S
C850   C1075   1.415   .     S
C851   O887    1.293   .     A
C851   C856    1.458   .     S
C851   O890    1.295   .     A
C852   O889    1.291   .     A
C852   O888    1.292   .     A
C852   C855    1.452   .     S
C853   S891    1.790   .     S
C853   C863    1.416   .     A
C853   C855    1.413   .     A
C854   C864    1.419   .     A
C854   S896    1.788   .     S
C854   C856    1.417   .     A
C855   C857    1.392   .     A
C856   C858    1.393   .     A
C857   H869    1.085   .     S
C857   C859    1.394   .     A
C858   H870    1.084   .     S
C858   C860    1.396   .     A
C859   C865    1.408   .     A
C859   C861    1.413   .     A
C860   C862    1.411   .     A
C860   C866    1.409   .     A
C861   C863    1.418   .     A
C861   C178    1.412   1_556 S
C862   C864    1.417   .     A
C865   N901    1.425   .     S
C865   C155    1.395   1_556 S
C866   N907    1.422   .     S
Cu867  O883    1.965   .     S
Cu867  O885    1.966   .     S
Cu867  Cu868   2.681   .     S
Cu867  O889    1.964   .     S
Cu867  O887    1.961   .     S
Cu867  N881    2.014   .     S
Cu868  O884    1.965   .     S
Cu868  O888    1.961   .     S
Cu868  O890    1.964   .     S
Cu868  O886    1.966   .     S
Cu868  N882    2.014   .     S
S891   O892    1.502   .     D
S891   O893    1.503   .     D
S891   O894    1.677   .     S
O894   H895    0.991   .     S
S896   O899    1.671   .     S
S896   O898    1.504   .     D
S896   O897    1.502   .     D
O899   H900    0.991   .     S
N901   C903    1.447   .     S
N901   H902    1.032   .     S
C903   H904    1.112   .     S
C903   H905    1.110   .     S
C903   H906    1.111   .     S
N907   H908    1.032   .     S
N907   C909    1.445   .     S
C909   H910    1.112   .     S
C909   H911    1.111   .     S
C909   H912    1.106   .     S
C913   O962    1.293   .     A
C913   O959    1.291   .     A
C913   C922    1.451   .     S
C914   O960    1.292   .     A
C914   O961    1.292   .     A
C914   C921    1.451   .     S
C915   C940    1.408   .     A
C915   H947    1.079   .     S
C916   H948    1.079   .     S
C916   C939    1.405   .     A
C916   C258    1.396   1_556 S
C917   H949    1.083   .     S
C917   C922    1.401   .     A
C917   C1071   1.383   1_455 S
C918   C921    1.401   .     A
C918   H950    1.083   .     S
C918   C996    1.384   .     S
C919   C921    1.401   .     A
C919   H951    1.083   .     S
C919   C993    1.383   .     S
C920   C922    1.401   .     A
C920   H952    1.083   .     S
C920   C1070   1.384   1_455 S
C923   H953    1.076   .     S
C923   N958    1.367   .     A
C924   H954    1.082   .     S
C924   N957    1.367   .     A
C924   C1153   1.417   .     S
C925   N958    1.367   .     A
C925   H955    1.080   .     S
C926   N957    1.366   .     A
C926   H956    1.082   .     S
C926   C1151   1.415   .     S
C927   O963    1.293   .     A
C927   C932    1.458   .     S
C927   O966    1.295   .     A
C928   O965    1.291   .     A
C928   O964    1.292   .     A
C928   C931    1.452   .     S
C929   S967    1.790   .     S
C929   C939    1.416   .     A
C929   C931    1.413   .     A
C930   C940    1.419   .     A
C930   S972    1.788   .     S
C930   C932    1.417   .     A
C931   C933    1.392   .     A
C932   C934    1.393   .     A
C933   H945    1.085   .     S
C933   C935    1.394   .     A
C934   H946    1.084   .     S
C934   C936    1.396   .     A
C935   C941    1.408   .     A
C935   C937    1.413   .     A
C936   C938    1.411   .     A
C936   C942    1.409   .     A
C937   C939    1.418   .     A
C937   C254    1.412   1_556 S
C938   C940    1.417   .     A
C941   N977    1.425   .     S
C941   C231    1.395   1_556 S
C942   N983    1.422   .     S
Cu943  O959    1.965   .     S
Cu943  O961    1.966   .     S
Cu943  Cu944   2.681   .     S
Cu943  O965    1.964   .     S
Cu943  O963    1.961   .     S
Cu943  N957    2.014   .     S
Cu944  O960    1.965   .     S
Cu944  O964    1.961   .     S
Cu944  O966    1.964   .     S
Cu944  O962    1.966   .     S
Cu944  N958    2.014   .     S
S967   O968    1.502   .     D
S967   O969    1.503   .     D
S967   O970    1.677   .     S
O970   H971    0.991   .     S
S972   O975    1.671   .     S
S972   O974    1.504   .     D
S972   O973    1.502   .     D
O975   H976    0.991   .     S
N977   C979    1.447   .     S
N977   H978    1.032   .     S
C979   H980    1.112   .     S
C979   H981    1.110   .     S
C979   H982    1.111   .     S
N983   H984    1.032   .     S
N983   C985    1.445   .     S
C985   H986    1.112   .     S
C985   H987    1.111   .     S
C985   H988    1.106   .     S
C989   O1038   1.293   .     A
C989   O1035   1.291   .     A
C989   C998    1.451   .     S
C990   O1036   1.292   .     A
C990   O1037   1.292   .     A
C990   C997    1.451   .     S
C991   C1016   1.408   .     A
C991   H1023   1.079   .     S
C992   H1024   1.079   .     S
C992   C1015   1.405   .     A
C992   C334    1.396   1_556 S
C993   H1025   1.083   .     S
C993   C998    1.401   .     A
C994   C997    1.401   .     A
C994   H1026   1.083   .     S
C994   C1072   1.384   .     S
C995   C997    1.401   .     A
C995   H1027   1.083   .     S
C995   C1069   1.383   .     S
C996   C998    1.401   .     A
C996   H1028   1.083   .     S
C999   H1029   1.076   .     S
C999   N1034   1.367   .     A
C1000  H1030   1.082   .     S
C1000  N1033   1.367   .     A
C1000  C1229   1.417   .     S
C1001  N1034   1.367   .     A
C1001  H1031   1.080   .     S
C1002  N1033   1.366   .     A
C1002  H1032   1.082   .     S
C1002  C1227   1.415   .     S
C1003  O1039   1.293   .     A
C1003  C1008   1.458   .     S
C1003  O1042   1.295   .     A
C1004  O1041   1.291   .     A
C1004  O1040   1.292   .     A
C1004  C1007   1.452   .     S
C1005  S1043   1.790   .     S
C1005  C1015   1.416   .     A
C1005  C1007   1.413   .     A
C1006  C1016   1.419   .     A
C1006  S1048   1.788   .     S
C1006  C1008   1.417   .     A
C1007  C1009   1.392   .     A
C1008  C1010   1.393   .     A
C1009  H1021   1.085   .     S
C1009  C1011   1.394   .     A
C1010  H1022   1.084   .     S
C1010  C1012   1.396   .     A
C1011  C1017   1.408   .     A
C1011  C1013   1.413   .     A
C1012  C1014   1.411   .     A
C1012  C1018   1.409   .     A
C1013  C1015   1.418   .     A
C1013  C330    1.412   1_556 S
C1014  C1016   1.417   .     A
C1017  N1053   1.425   .     S
C1017  C307    1.395   1_556 S
C1018  N1059   1.422   .     S
Cu1019 O1035   1.965   .     S
Cu1019 O1037   1.966   .     S
Cu1019 Cu1020  2.681   .     S
Cu1019 O1041   1.964   .     S
Cu1019 O1039   1.961   .     S
Cu1019 N1033   2.014   .     S
Cu1020 O1036   1.965   .     S
Cu1020 O1040   1.961   .     S
Cu1020 O1042   1.964   .     S
Cu1020 O1038   1.966   .     S
Cu1020 N1034   2.014   .     S
S1043  O1044   1.502   .     D
S1043  O1045   1.503   .     D
S1043  O1046   1.677   .     S
O1046  H1047   0.991   .     S
S1048  O1051   1.671   .     S
S1048  O1050   1.504   .     D
S1048  O1049   1.502   .     D
O1051  H1052   0.991   .     S
N1053  C1055   1.447   .     S
N1053  H1054   1.032   .     S
C1055  H1056   1.112   .     S
C1055  H1057   1.110   .     S
C1055  H1058   1.111   .     S
N1059  H1060   1.032   .     S
N1059  C1061   1.445   .     S
C1061  H1062   1.112   .     S
C1061  H1063   1.111   .     S
C1061  H1064   1.106   .     S
C1065  O1114   1.293   .     A
C1065  O1111   1.291   .     A
C1065  C1074   1.451   .     S
C1066  O1112   1.292   .     A
C1066  O1113   1.292   .     A
C1066  C1073   1.451   .     S
C1067  C1092   1.408   .     A
C1067  H1099   1.079   .     S
C1068  H1100   1.079   .     S
C1068  C1091   1.405   .     A
C1068  C410    1.396   1_556 S
C1069  H1101   1.083   .     S
C1069  C1074   1.401   .     A
C1070  C1073   1.401   .     A
C1070  H1102   1.083   .     S
C1070  C920    1.384   1_655 S
C1071  C1073   1.401   .     A
C1071  H1103   1.083   .     S
C1071  C917    1.383   1_655 S
C1072  C1074   1.401   .     A
C1072  H1104   1.083   .     S
C1075  H1105   1.076   .     S
C1075  N1110   1.367   .     A
C1076  H1106   1.082   .     S
C1076  N1109   1.367   .     A
C1076  C1305   1.417   .     S
C1077  N1110   1.367   .     A
C1077  H1107   1.080   .     S
C1078  N1109   1.366   .     A
C1078  H1108   1.082   .     S
C1078  C1303   1.415   .     S
C1079  O1115   1.293   .     A
C1079  C1084   1.458   .     S
C1079  O1118   1.295   .     A
C1080  O1117   1.291   .     A
C1080  O1116   1.292   .     A
C1080  C1083   1.452   .     S
C1081  S1119   1.790   .     S
C1081  C1091   1.416   .     A
C1081  C1083   1.413   .     A
C1082  C1092   1.419   .     A
C1082  S1124   1.788   .     S
C1082  C1084   1.417   .     A
C1083  C1085   1.392   .     A
C1084  C1086   1.393   .     A
C1085  H1097   1.085   .     S
C1085  C1087   1.394   .     A
C1086  H1098   1.084   .     S
C1086  C1088   1.396   .     A
C1087  C1093   1.408   .     A
C1087  C1089   1.413   .     A
C1088  C1090   1.411   .     A
C1088  C1094   1.409   .     A
C1089  C1091   1.418   .     A
C1089  C406    1.412   1_556 S
C1090  C1092   1.417   .     A
C1093  N1129   1.425   .     S
C1093  C383    1.395   1_556 S
C1094  N1135   1.422   .     S
Cu1095 O1111   1.965   .     S
Cu1095 O1113   1.966   .     S
Cu1095 Cu1096  2.681   .     S
Cu1095 O1117   1.964   .     S
Cu1095 O1115   1.961   .     S
Cu1095 N1109   2.014   .     S
Cu1096 O1112   1.965   .     S
Cu1096 O1116   1.961   .     S
Cu1096 O1118   1.964   .     S
Cu1096 O1114   1.966   .     S
Cu1096 N1110   2.014   .     S
S1119  O1120   1.502   .     D
S1119  O1121   1.503   .     D
S1119  O1122   1.677   .     S
O1122  H1123   0.991   .     S
S1124  O1127   1.671   .     S
S1124  O1126   1.504   .     D
S1124  O1125   1.502   .     D
O1127  H1128   0.991   .     S
N1129  C1131   1.447   .     S
N1129  H1130   1.032   .     S
C1131  H1132   1.112   .     S
C1131  H1133   1.110   .     S
C1131  H1134   1.111   .     S
N1135  H1136   1.032   .     S
N1135  C1137   1.445   .     S
C1137  H1138   1.112   .     S
C1137  H1139   1.111   .     S
C1137  H1140   1.106   .     S
C1141  O1190   1.293   .     A
C1141  O1187   1.291   .     A
C1141  C1150   1.451   .     S
C1142  O1188   1.292   .     A
C1142  O1189   1.292   .     A
C1142  C1149   1.451   .     S
C1143  C1168   1.408   .     A
C1143  H1175   1.079   .     S
C1144  H1176   1.079   .     S
C1144  C1167   1.405   .     A
C1144  C486    1.396   1_556 S
C1145  H1177   1.083   .     S
C1145  C1150   1.401   .     A
C1145  C1299   1.383   1_455 S
C1146  C1149   1.401   .     A
C1146  H1178   1.083   .     S
C1146  C1224   1.384   .     S
C1147  C1149   1.401   .     A
C1147  H1179   1.083   .     S
C1147  C1221   1.383   .     S
C1148  C1150   1.401   .     A
C1148  H1180   1.083   .     S
C1148  C1298   1.384   1_455 S
C1151  H1181   1.076   .     S
C1151  N1186   1.367   .     A
C1152  H1182   1.082   .     S
C1152  N1185   1.367   .     A
C1152  C697    1.417   1_565 S
C1153  N1186   1.367   .     A
C1153  H1183   1.080   .     S
C1154  N1185   1.366   .     A
C1154  H1184   1.082   .     S
C1154  C695    1.415   1_565 S
C1155  O1191   1.293   .     A
C1155  C1160   1.458   .     S
C1155  O1194   1.295   .     A
C1156  O1193   1.291   .     A
C1156  O1192   1.292   .     A
C1156  C1159   1.452   .     S
C1157  S1195   1.790   .     S
C1157  C1167   1.416   .     A
C1157  C1159   1.413   .     A
C1158  C1168   1.419   .     A
C1158  S1200   1.788   .     S
C1158  C1160   1.417   .     A
C1159  C1161   1.392   .     A
C1160  C1162   1.393   .     A
C1161  H1173   1.085   .     S
C1161  C1163   1.394   .     A
C1162  H1174   1.084   .     S
C1162  C1164   1.396   .     A
C1163  C1169   1.408   .     A
C1163  C1165   1.413   .     A
C1164  C1166   1.411   .     A
C1164  C1170   1.409   .     A
C1165  C1167   1.418   .     A
C1165  C482    1.412   1_556 S
C1166  C1168   1.417   .     A
C1169  N1205   1.425   .     S
C1169  C459    1.395   1_556 S
C1170  N1211   1.422   .     S
Cu1171 O1187   1.965   .     S
Cu1171 O1189   1.966   .     S
Cu1171 Cu1172  2.681   .     S
Cu1171 O1193   1.964   .     S
Cu1171 O1191   1.961   .     S
Cu1171 N1185   2.014   .     S
Cu1172 O1188   1.965   .     S
Cu1172 O1192   1.961   .     S
Cu1172 O1194   1.964   .     S
Cu1172 O1190   1.966   .     S
Cu1172 N1186   2.014   .     S
S1195  O1196   1.502   .     D
S1195  O1197   1.503   .     D
S1195  O1198   1.677   .     S
O1198  H1199   0.991   .     S
S1200  O1203   1.671   .     S
S1200  O1202   1.504   .     D
S1200  O1201   1.502   .     D
O1203  H1204   0.991   .     S
N1205  C1207   1.447   .     S
N1205  H1206   1.032   .     S
C1207  H1208   1.112   .     S
C1207  H1209   1.110   .     S
C1207  H1210   1.111   .     S
N1211  H1212   1.032   .     S
N1211  C1213   1.445   .     S
C1213  H1214   1.112   .     S
C1213  H1215   1.111   .     S
C1213  H1216   1.106   .     S
C1217  O1266   1.293   .     A
C1217  O1263   1.291   .     A
C1217  C1226   1.451   .     S
C1218  O1264   1.292   .     A
C1218  O1265   1.292   .     A
C1218  C1225   1.451   .     S
C1219  C1244   1.408   .     A
C1219  H1251   1.079   .     S
C1220  H1252   1.079   .     S
C1220  C1243   1.405   .     A
C1220  C562    1.396   1_556 S
C1221  H1253   1.083   .     S
C1221  C1226   1.401   .     A
C1222  C1225   1.401   .     A
C1222  H1254   1.083   .     S
C1222  C1300   1.384   .     S
C1223  C1225   1.401   .     A
C1223  H1255   1.083   .     S
C1223  C1297   1.383   .     S
C1224  C1226   1.401   .     A
C1224  H1256   1.083   .     S
C1227  H1257   1.076   .     S
C1227  N1262   1.367   .     A
C1228  H1258   1.082   .     S
C1228  N1261   1.367   .     A
C1228  C773    1.417   1_565 S
C1229  N1262   1.367   .     A
C1229  H1259   1.080   .     S
C1230  N1261   1.366   .     A
C1230  H1260   1.082   .     S
C1230  C771    1.415   1_565 S
C1231  O1267   1.293   .     A
C1231  C1236   1.458   .     S
C1231  O1270   1.295   .     A
C1232  O1269   1.291   .     A
C1232  O1268   1.292   .     A
C1232  C1235   1.452   .     S
C1233  S1271   1.790   .     S
C1233  C1243   1.416   .     A
C1233  C1235   1.413   .     A
C1234  C1244   1.419   .     A
C1234  S1276   1.788   .     S
C1234  C1236   1.417   .     A
C1235  C1237   1.392   .     A
C1236  C1238   1.393   .     A
C1237  H1249   1.085   .     S
C1237  C1239   1.394   .     A
C1238  H1250   1.084   .     S
C1238  C1240   1.396   .     A
C1239  C1245   1.408   .     A
C1239  C1241   1.413   .     A
C1240  C1242   1.411   .     A
C1240  C1246   1.409   .     A
C1241  C1243   1.418   .     A
C1241  C558    1.412   1_556 S
C1242  C1244   1.417   .     A
C1245  N1281   1.425   .     S
C1245  C535    1.395   1_556 S
C1246  N1287   1.422   .     S
Cu1247 O1263   1.965   .     S
Cu1247 O1265   1.966   .     S
Cu1247 Cu1248  2.681   .     S
Cu1247 O1269   1.964   .     S
Cu1247 O1267   1.961   .     S
Cu1247 N1261   2.014   .     S
Cu1248 O1264   1.965   .     S
Cu1248 O1268   1.961   .     S
Cu1248 O1270   1.964   .     S
Cu1248 O1266   1.966   .     S
Cu1248 N1262   2.014   .     S
S1271  O1272   1.502   .     D
S1271  O1273   1.503   .     D
S1271  O1274   1.677   .     S
O1274  H1275   0.991   .     S
S1276  O1279   1.671   .     S
S1276  O1278   1.504   .     D
S1276  O1277   1.502   .     D
O1279  H1280   0.991   .     S
N1281  C1283   1.447   .     S
N1281  H1282   1.032   .     S
C1283  H1284   1.112   .     S
C1283  H1285   1.110   .     S
C1283  H1286   1.111   .     S
N1287  H1288   1.032   .     S
N1287  C1289   1.445   .     S
C1289  H1290   1.112   .     S
C1289  H1291   1.111   .     S
C1289  H1292   1.106   .     S
C1293  O1342   1.293   .     A
C1293  O1339   1.291   .     A
C1293  C1302   1.451   .     S
C1294  O1340   1.292   .     A
C1294  O1341   1.292   .     A
C1294  C1301   1.451   .     S
C1295  C1320   1.408   .     A
C1295  H1327   1.079   .     S
C1296  H1328   1.079   .     S
C1296  C1319   1.405   .     A
C1296  C638    1.396   1_556 S
C1297  H1329   1.083   .     S
C1297  C1302   1.401   .     A
C1298  C1301   1.401   .     A
C1298  H1330   1.083   .     S
C1298  C1148   1.384   1_655 S
C1299  C1301   1.401   .     A
C1299  H1331   1.083   .     S
C1299  C1145   1.383   1_655 S
C1300  C1302   1.401   .     A
C1300  H1332   1.083   .     S
C1303  H1333   1.076   .     S
C1303  N1338   1.367   .     A
C1304  H1334   1.082   .     S
C1304  N1337   1.367   .     A
C1304  C849    1.417   1_565 S
C1305  N1338   1.367   .     A
C1305  H1335   1.080   .     S
C1306  N1337   1.366   .     A
C1306  H1336   1.082   .     S
C1306  C847    1.415   1_565 S
C1307  O1343   1.293   .     A
C1307  C1312   1.458   .     S
C1307  O1346   1.295   .     A
C1308  O1345   1.291   .     A
C1308  O1344   1.292   .     A
C1308  C1311   1.452   .     S
C1309  S1347   1.790   .     S
C1309  C1319   1.416   .     A
C1309  C1311   1.413   .     A
C1310  C1320   1.419   .     A
C1310  S1352   1.788   .     S
C1310  C1312   1.417   .     A
C1311  C1313   1.392   .     A
C1312  C1314   1.393   .     A
C1313  H1325   1.085   .     S
C1313  C1315   1.394   .     A
C1314  H1326   1.084   .     S
C1314  C1316   1.396   .     A
C1315  C1321   1.408   .     A
C1315  C1317   1.413   .     A
C1316  C1318   1.411   .     A
C1316  C1322   1.409   .     A
C1317  C1319   1.418   .     A
C1317  C634    1.412   1_556 S
C1318  C1320   1.417   .     A
C1321  N1357   1.425   .     S
C1321  C611    1.395   1_556 S
C1322  N1363   1.422   .     S
Cu1323 O1339   1.965   .     S
Cu1323 O1341   1.966   .     S
Cu1323 Cu1324  2.681   .     S
Cu1323 O1345   1.964   .     S
Cu1323 O1343   1.961   .     S
Cu1323 N1337   2.014   .     S
Cu1324 O1340   1.965   .     S
Cu1324 O1344   1.961   .     S
Cu1324 O1346   1.964   .     S
Cu1324 O1342   1.966   .     S
Cu1324 N1338   2.014   .     S
S1347  O1348   1.502   .     D
S1347  O1349   1.503   .     D
S1347  O1350   1.677   .     S
O1350  H1351   0.991   .     S
S1352  O1355   1.671   .     S
S1352  O1354   1.504   .     D
S1352  O1353   1.502   .     D
O1355  H1356   0.991   .     S
N1357  C1359   1.447   .     S
N1357  H1358   1.032   .     S
C1359  H1360   1.112   .     S
C1359  H1361   1.110   .     S
C1359  H1362   1.111   .     S
N1363  H1364   1.032   .     S
N1363  C1365   1.445   .     S
C1365  H1366   1.112   .     S
C1365  H1367   1.111   .     S
C1365  H1368   1.106   .     S
