data_str_m3_o2_o5_pcu_sym.85
_audit_creation_date              2020-01-03
_audit_creation_method            'Materials Studio'
_symmetry_space_group_name_H-M    'P1'
_symmetry_Int_Tables_number       1
_symmetry_cell_setting            triclinic
loop_
_symmetry_equiv_pos_as_xyz
  x,y,z
_cell_length_a                    30.0202
_cell_length_b                    28.3442
_cell_length_c                    26.7186
_cell_angle_alpha                 89.9892
_cell_angle_beta                  90.0063
_cell_angle_gamma                 89.9844
loop_
_atom_site_label
_atom_site_type_symbol
_atom_site_fract_x
_atom_site_fract_y
_atom_site_fract_z
_atom_site_U_iso_or_equiv
_atom_site_adp_type
_atom_site_occupancy
C1     C     0.16388   0.25001   0.16660   0.00000  Uiso   1.00
C2     C     0.20970   0.44765   0.16477   0.00000  Uiso   1.00
C3     C     0.24999   0.25000   0.07285   0.00000  Uiso   1.00
C4     C     0.25000   0.24999   0.26049   0.00000  Uiso   1.00
C5     C     0.25001   0.02684   0.16613   0.00000  Uiso   1.00
C6     C     0.25004   0.47348   0.16598   0.00000  Uiso   1.00
C7     C     0.24999   0.24999   0.02179   0.00000  Uiso   1.00
C8     C     0.24999   0.24998   0.31155   0.00000  Uiso   1.00
C9     C     0.04696   0.28978   0.18298   0.00000  Uiso   1.00
C10    C     0.45307   0.21033   0.18304   0.00000  Uiso   1.00
C11    C     0.45282   0.28965   0.14815   0.00000  Uiso   1.00
C12    C     0.33612   0.25000   0.16661   0.00000  Uiso   1.00
C13    C     0.04716   0.21046   0.14810   0.00000  Uiso   1.00
C14    C     0.09294   0.28986   0.18310   0.00000  Uiso   1.00
C15    C     0.40709   0.21021   0.18317   0.00000  Uiso   1.00
C16    C     0.40685   0.28978   0.14885   0.00000  Uiso   1.00
C17    C     0.09314   0.21030   0.14879   0.00000  Uiso   1.00
C18    C     0.11600   0.25004   0.16620   0.00000  Uiso   1.00
C19    C     0.38400   0.25001   0.16625   0.00000  Uiso   1.00
C20    C     0.02406   0.25012   0.16539   0.00000  Uiso   1.00
C21    C     0.47595   0.25000   0.16543   0.00000  Uiso   1.00
C22    C     0.17523   0.04823   0.06396   0.00000  Uiso   1.00
C23    C     0.22997   0.10257   0.12845   0.00000  Uiso   1.00
C24    C     0.15083   0.01160   0.03267   0.00000  Uiso   1.00
C25    C     0.34471   0.47946   0.11912   0.00000  Uiso   1.00
C26    C     0.38882   0.00577   0.12012   0.00000  Uiso   1.00
C27    C     0.26443   0.01739   0.28163   0.00000  Uiso   1.00
C28    C     0.29105   0.49720   0.32503   0.00000  Uiso   1.00
C29    C     0.15307   0.48057   0.20907   0.00000  Uiso   1.00
C30    C     0.10611   0.00027   0.20495   0.00000  Uiso   1.00
C31    C     0.28928   0.39788   0.16845   0.00000  Uiso   1.00
C32    C     0.27037   0.10216   0.20432   0.00000  Uiso   1.00
C33    C     0.21074   0.39790   0.16433   0.00000  Uiso   1.00
C34    C     0.22912   0.05234   0.12709   0.00000  Uiso   1.00
C35    C     0.29032   0.44761   0.16720   0.00000  Uiso   1.00
C36    C     0.27049   0.05250   0.20537   0.00000  Uiso   1.00
H37    H     0.21548   0.12318   0.09862   0.00000  Uiso   1.00
H38    H     0.38967   0.17942   0.19709   0.00000  Uiso   1.00
H39    H     0.38923   0.32058   0.13522   0.00000  Uiso   1.00
H40    H     0.11074   0.17949   0.13517   0.00000  Uiso   1.00
H41    H     0.18611   0.07696   0.03841   0.00000  Uiso   1.00
H42    H     0.15149   0.06220   0.09244   0.00000  Uiso   1.00
H43    H     0.12161   0.02807   0.01409   0.00000  Uiso   1.00
H44    H     0.17339   0.49714   0.00350   0.00000  Uiso   1.00
H45    H     0.13911   0.48231   0.05694   0.00000  Uiso   1.00
H46    H     0.32003   0.00195   0.09913   0.00000  Uiso   1.00
H47    H     0.34948   0.44587   0.09811   0.00000  Uiso   1.00
H48    H     0.32033   0.37866   0.17021   0.00000  Uiso   1.00
H49    H     0.41453   0.48410   0.13924   0.00000  Uiso   1.00
H50    H     0.39994   0.01315   0.08126   0.00000  Uiso   1.00
H51    H     0.38487   0.03973   0.14038   0.00000  Uiso   1.00
H52    H     0.24079   0.48973   0.26888   0.00000  Uiso   1.00
H53    H     0.24551   0.04866   0.29543   0.00000  Uiso   1.00
H54    H     0.31386   0.02450   0.00690   0.00000  Uiso   1.00
H55    H     0.26813   0.48538   0.02178   0.00000  Uiso   1.00
H56    H     0.31094   0.46644   0.31221   0.00000  Uiso   1.00
H57    H     0.17416   0.00780   0.22735   0.00000  Uiso   1.00
H58    H     0.15189   0.44831   0.23293   0.00000  Uiso   1.00
H59    H     0.28690   0.12158   0.23381   0.00000  Uiso   1.00
H60    H     0.10627   0.03287   0.18185   0.00000  Uiso   1.00
H61    H     0.09321   0.00887   0.24282   0.00000  Uiso   1.00
H62    H     0.08381   0.47380   0.18729   0.00000  Uiso   1.00
H63    H     0.17971   0.37869   0.16230   0.00000  Uiso   1.00
H64    H     0.02929   0.32034   0.19710   0.00000  Uiso   1.00
H65    H     0.47076   0.17977   0.19717   0.00000  Uiso   1.00
H66    H     0.47031   0.32023   0.13381   0.00000  Uiso   1.00
H67    H     0.02965   0.17989   0.13377   0.00000  Uiso   1.00
H68    H     0.11038   0.32065   0.19701   0.00000  Uiso   1.00
N69    N     0.25000   0.12624   0.16667   0.00000  Uiso   1.00
N70    N     0.25000   0.37377   0.16667   0.00000  Uiso   1.00
O71    O     0.18453   0.28974   0.16667   0.00000  Uiso   1.00
O72    O     0.33095   0.47043   0.16869   0.00000  Uiso   1.00
O73    O     0.29399   0.02977   0.24276   0.00000  Uiso   1.00
O74    O     0.16913   0.47036   0.16066   0.00000  Uiso   1.00
O75    O     0.31547   0.21026   0.16666   0.00000  Uiso   1.00
O76    O     0.31547   0.28974   0.16666   0.00000  Uiso   1.00
O77    O     0.18453   0.21026   0.16667   0.00000  Uiso   1.00
O78    O     0.25000   0.28973   0.09511   0.00000  Uiso   1.00
O79    O     0.25000   0.21027   0.23822   0.00000  Uiso   1.00
O80    O     0.25000   0.28973   0.23822   0.00000  Uiso   1.00
O81    O     0.25000   0.21027   0.09511   0.00000  Uiso   1.00
O82    O     0.21269   0.02681   0.08649   0.00000  Uiso   1.00
Zn83   Zn    0.25000   0.30307   0.16667   0.00000  Uiso   1.00
Zn84   Zn    0.25000   0.19693   0.16667   0.00000  Uiso   1.00
C85    C     0.66388   0.25001   0.16660   0.00000  Uiso   1.00
C86    C     0.70970   0.44765   0.16477   0.00000  Uiso   1.00
C87    C     0.74999   0.25000   0.07285   0.00000  Uiso   1.00
C88    C     0.75000   0.24999   0.26049   0.00000  Uiso   1.00
C89    C     0.75001   0.02684   0.16613   0.00000  Uiso   1.00
C90    C     0.75004   0.47348   0.16598   0.00000  Uiso   1.00
C91    C     0.74999   0.24999   0.02179   0.00000  Uiso   1.00
C92    C     0.74999   0.24998   0.31155   0.00000  Uiso   1.00
C93    C     0.54696   0.28978   0.18298   0.00000  Uiso   1.00
C94    C     0.95307   0.21033   0.18304   0.00000  Uiso   1.00
C95    C     0.95282   0.28965   0.14815   0.00000  Uiso   1.00
C96    C     0.83612   0.25000   0.16661   0.00000  Uiso   1.00
C97    C     0.54716   0.21046   0.14810   0.00000  Uiso   1.00
C98    C     0.59294   0.28986   0.18310   0.00000  Uiso   1.00
C99    C     0.90709   0.21021   0.18317   0.00000  Uiso   1.00
C100   C     0.90685   0.28978   0.14885   0.00000  Uiso   1.00
C101   C     0.59314   0.21030   0.14879   0.00000  Uiso   1.00
C102   C     0.61600   0.25004   0.16620   0.00000  Uiso   1.00
C103   C     0.88400   0.25001   0.16625   0.00000  Uiso   1.00
C104   C     0.52406   0.25012   0.16539   0.00000  Uiso   1.00
C105   C     0.97595   0.25000   0.16543   0.00000  Uiso   1.00
C106   C     0.67523   0.04823   0.06396   0.00000  Uiso   1.00
C107   C     0.72997   0.10257   0.12845   0.00000  Uiso   1.00
C108   C     0.65083   0.01160   0.03267   0.00000  Uiso   1.00
C109   C     0.84471   0.47946   0.11912   0.00000  Uiso   1.00
C110   C     0.88882   0.00577   0.12012   0.00000  Uiso   1.00
C111   C     0.76443   0.01739   0.28163   0.00000  Uiso   1.00
C112   C     0.79105   0.49720   0.32503   0.00000  Uiso   1.00
C113   C     0.65307   0.48057   0.20907   0.00000  Uiso   1.00
C114   C     0.60611   0.00027   0.20495   0.00000  Uiso   1.00
C115   C     0.78928   0.39788   0.16845   0.00000  Uiso   1.00
C116   C     0.77037   0.10216   0.20432   0.00000  Uiso   1.00
C117   C     0.71074   0.39790   0.16433   0.00000  Uiso   1.00
C118   C     0.72912   0.05234   0.12709   0.00000  Uiso   1.00
C119   C     0.79032   0.44761   0.16720   0.00000  Uiso   1.00
C120   C     0.77049   0.05250   0.20537   0.00000  Uiso   1.00
H121   H     0.71548   0.12318   0.09862   0.00000  Uiso   1.00
H122   H     0.88967   0.17942   0.19709   0.00000  Uiso   1.00
H123   H     0.88923   0.32058   0.13522   0.00000  Uiso   1.00
H124   H     0.61074   0.17949   0.13517   0.00000  Uiso   1.00
H125   H     0.68611   0.07696   0.03841   0.00000  Uiso   1.00
H126   H     0.65149   0.06220   0.09244   0.00000  Uiso   1.00
H127   H     0.62161   0.02807   0.01409   0.00000  Uiso   1.00
H128   H     0.67339   0.49714   0.00350   0.00000  Uiso   1.00
H129   H     0.63911   0.48231   0.05694   0.00000  Uiso   1.00
H130   H     0.82003   0.00195   0.09913   0.00000  Uiso   1.00
H131   H     0.84948   0.44587   0.09811   0.00000  Uiso   1.00
H132   H     0.82033   0.37866   0.17021   0.00000  Uiso   1.00
H133   H     0.91453   0.48410   0.13924   0.00000  Uiso   1.00
H134   H     0.89994   0.01315   0.08126   0.00000  Uiso   1.00
H135   H     0.88487   0.03973   0.14038   0.00000  Uiso   1.00
H136   H     0.74079   0.48973   0.26888   0.00000  Uiso   1.00
H137   H     0.74551   0.04866   0.29543   0.00000  Uiso   1.00
H138   H     0.81386   0.02450   0.00690   0.00000  Uiso   1.00
H139   H     0.76813   0.48538   0.02178   0.00000  Uiso   1.00
H140   H     0.81094   0.46644   0.31221   0.00000  Uiso   1.00
H141   H     0.67416   0.00780   0.22735   0.00000  Uiso   1.00
H142   H     0.65189   0.44831   0.23293   0.00000  Uiso   1.00
H143   H     0.78690   0.12158   0.23381   0.00000  Uiso   1.00
H144   H     0.60627   0.03287   0.18185   0.00000  Uiso   1.00
H145   H     0.59321   0.00887   0.24282   0.00000  Uiso   1.00
H146   H     0.58381   0.47380   0.18729   0.00000  Uiso   1.00
H147   H     0.67971   0.37869   0.16230   0.00000  Uiso   1.00
H148   H     0.52929   0.32034   0.19710   0.00000  Uiso   1.00
H149   H     0.97076   0.17977   0.19717   0.00000  Uiso   1.00
H150   H     0.97031   0.32023   0.13381   0.00000  Uiso   1.00
H151   H     0.52965   0.17989   0.13377   0.00000  Uiso   1.00
H152   H     0.61038   0.32065   0.19701   0.00000  Uiso   1.00
N153   N     0.75000   0.12624   0.16667   0.00000  Uiso   1.00
N154   N     0.75000   0.37377   0.16667   0.00000  Uiso   1.00
O155   O     0.68453   0.28974   0.16667   0.00000  Uiso   1.00
O156   O     0.83095   0.47043   0.16869   0.00000  Uiso   1.00
O157   O     0.79399   0.02977   0.24276   0.00000  Uiso   1.00
O158   O     0.66913   0.47036   0.16066   0.00000  Uiso   1.00
O159   O     0.81547   0.21026   0.16666   0.00000  Uiso   1.00
O160   O     0.81547   0.28974   0.16666   0.00000  Uiso   1.00
O161   O     0.68453   0.21026   0.16667   0.00000  Uiso   1.00
O162   O     0.75000   0.28973   0.09511   0.00000  Uiso   1.00
O163   O     0.75000   0.21027   0.23822   0.00000  Uiso   1.00
O164   O     0.75000   0.28973   0.23822   0.00000  Uiso   1.00
O165   O     0.75000   0.21027   0.09511   0.00000  Uiso   1.00
O166   O     0.71269   0.02681   0.08649   0.00000  Uiso   1.00
Zn167  Zn    0.75000   0.30307   0.16667   0.00000  Uiso   1.00
Zn168  Zn    0.75000   0.19693   0.16667   0.00000  Uiso   1.00
C169   C     0.16388   0.75001   0.16660   0.00000  Uiso   1.00
C170   C     0.20970   0.94765   0.16477   0.00000  Uiso   1.00
C171   C     0.24999   0.75000   0.07285   0.00000  Uiso   1.00
C172   C     0.25000   0.74999   0.26049   0.00000  Uiso   1.00
C173   C     0.25001   0.52684   0.16613   0.00000  Uiso   1.00
C174   C     0.25004   0.97348   0.16598   0.00000  Uiso   1.00
C175   C     0.24999   0.74999   0.02179   0.00000  Uiso   1.00
C176   C     0.24999   0.74998   0.31155   0.00000  Uiso   1.00
C177   C     0.04696   0.78978   0.18298   0.00000  Uiso   1.00
C178   C     0.45307   0.71033   0.18304   0.00000  Uiso   1.00
C179   C     0.45282   0.78965   0.14815   0.00000  Uiso   1.00
C180   C     0.33612   0.75000   0.16661   0.00000  Uiso   1.00
C181   C     0.04716   0.71046   0.14810   0.00000  Uiso   1.00
C182   C     0.09294   0.78986   0.18310   0.00000  Uiso   1.00
C183   C     0.40709   0.71021   0.18317   0.00000  Uiso   1.00
C184   C     0.40685   0.78978   0.14885   0.00000  Uiso   1.00
C185   C     0.09314   0.71030   0.14879   0.00000  Uiso   1.00
C186   C     0.11600   0.75004   0.16620   0.00000  Uiso   1.00
C187   C     0.38400   0.75001   0.16625   0.00000  Uiso   1.00
C188   C     0.02406   0.75012   0.16539   0.00000  Uiso   1.00
C189   C     0.47595   0.75000   0.16543   0.00000  Uiso   1.00
C190   C     0.17523   0.54823   0.06396   0.00000  Uiso   1.00
C191   C     0.22997   0.60257   0.12845   0.00000  Uiso   1.00
C192   C     0.15083   0.51160   0.03267   0.00000  Uiso   1.00
C193   C     0.34471   0.97946   0.11912   0.00000  Uiso   1.00
C194   C     0.38882   0.50577   0.12012   0.00000  Uiso   1.00
C195   C     0.26443   0.51739   0.28163   0.00000  Uiso   1.00
C196   C     0.29105   0.99720   0.32503   0.00000  Uiso   1.00
C197   C     0.15307   0.98057   0.20907   0.00000  Uiso   1.00
C198   C     0.10611   0.50027   0.20495   0.00000  Uiso   1.00
C199   C     0.28928   0.89788   0.16845   0.00000  Uiso   1.00
C200   C     0.27037   0.60216   0.20432   0.00000  Uiso   1.00
C201   C     0.21074   0.89790   0.16433   0.00000  Uiso   1.00
C202   C     0.22912   0.55234   0.12709   0.00000  Uiso   1.00
C203   C     0.29032   0.94761   0.16720   0.00000  Uiso   1.00
C204   C     0.27049   0.55250   0.20537   0.00000  Uiso   1.00
H205   H     0.21548   0.62318   0.09862   0.00000  Uiso   1.00
H206   H     0.38967   0.67942   0.19709   0.00000  Uiso   1.00
H207   H     0.38923   0.82058   0.13522   0.00000  Uiso   1.00
H208   H     0.11074   0.67949   0.13517   0.00000  Uiso   1.00
H209   H     0.18611   0.57696   0.03841   0.00000  Uiso   1.00
H210   H     0.15149   0.56220   0.09244   0.00000  Uiso   1.00
H211   H     0.12161   0.52807   0.01409   0.00000  Uiso   1.00
H212   H     0.17339   0.99714   0.00350   0.00000  Uiso   1.00
H213   H     0.13911   0.98231   0.05694   0.00000  Uiso   1.00
H214   H     0.32003   0.50195   0.09913   0.00000  Uiso   1.00
H215   H     0.34948   0.94587   0.09811   0.00000  Uiso   1.00
H216   H     0.32033   0.87866   0.17021   0.00000  Uiso   1.00
H217   H     0.41453   0.98410   0.13924   0.00000  Uiso   1.00
H218   H     0.39994   0.51315   0.08126   0.00000  Uiso   1.00
H219   H     0.38487   0.53973   0.14038   0.00000  Uiso   1.00
H220   H     0.24079   0.98973   0.26888   0.00000  Uiso   1.00
H221   H     0.24551   0.54866   0.29543   0.00000  Uiso   1.00
H222   H     0.31386   0.52450   0.00690   0.00000  Uiso   1.00
H223   H     0.26813   0.98538   0.02178   0.00000  Uiso   1.00
H224   H     0.31094   0.96644   0.31221   0.00000  Uiso   1.00
H225   H     0.17416   0.50780   0.22735   0.00000  Uiso   1.00
H226   H     0.15189   0.94831   0.23293   0.00000  Uiso   1.00
H227   H     0.28690   0.62158   0.23381   0.00000  Uiso   1.00
H228   H     0.10627   0.53287   0.18185   0.00000  Uiso   1.00
H229   H     0.09321   0.50887   0.24282   0.00000  Uiso   1.00
H230   H     0.08381   0.97380   0.18729   0.00000  Uiso   1.00
H231   H     0.17971   0.87869   0.16230   0.00000  Uiso   1.00
H232   H     0.02929   0.82034   0.19710   0.00000  Uiso   1.00
H233   H     0.47076   0.67977   0.19717   0.00000  Uiso   1.00
H234   H     0.47031   0.82023   0.13381   0.00000  Uiso   1.00
H235   H     0.02965   0.67989   0.13377   0.00000  Uiso   1.00
H236   H     0.11038   0.82065   0.19701   0.00000  Uiso   1.00
N237   N     0.25000   0.62624   0.16667   0.00000  Uiso   1.00
N238   N     0.25000   0.87377   0.16667   0.00000  Uiso   1.00
O239   O     0.18453   0.78974   0.16667   0.00000  Uiso   1.00
O240   O     0.33095   0.97043   0.16869   0.00000  Uiso   1.00
O241   O     0.29399   0.52977   0.24276   0.00000  Uiso   1.00
O242   O     0.16913   0.97036   0.16066   0.00000  Uiso   1.00
O243   O     0.31547   0.71026   0.16666   0.00000  Uiso   1.00
O244   O     0.31547   0.78974   0.16666   0.00000  Uiso   1.00
O245   O     0.18453   0.71026   0.16667   0.00000  Uiso   1.00
O246   O     0.25000   0.78973   0.09511   0.00000  Uiso   1.00
O247   O     0.25000   0.71027   0.23822   0.00000  Uiso   1.00
O248   O     0.25000   0.78973   0.23822   0.00000  Uiso   1.00
O249   O     0.25000   0.71027   0.09511   0.00000  Uiso   1.00
O250   O     0.21269   0.52681   0.08649   0.00000  Uiso   1.00
Zn251  Zn    0.25000   0.80307   0.16667   0.00000  Uiso   1.00
Zn252  Zn    0.25000   0.69693   0.16667   0.00000  Uiso   1.00
C253   C     0.66388   0.75001   0.16660   0.00000  Uiso   1.00
C254   C     0.70970   0.94765   0.16477   0.00000  Uiso   1.00
C255   C     0.74999   0.75000   0.07285   0.00000  Uiso   1.00
C256   C     0.75000   0.74999   0.26049   0.00000  Uiso   1.00
C257   C     0.75001   0.52684   0.16613   0.00000  Uiso   1.00
C258   C     0.75004   0.97348   0.16598   0.00000  Uiso   1.00
C259   C     0.74999   0.74999   0.02179   0.00000  Uiso   1.00
C260   C     0.74999   0.74998   0.31155   0.00000  Uiso   1.00
C261   C     0.54696   0.78978   0.18298   0.00000  Uiso   1.00
C262   C     0.95307   0.71033   0.18304   0.00000  Uiso   1.00
C263   C     0.95282   0.78965   0.14815   0.00000  Uiso   1.00
C264   C     0.83612   0.75000   0.16661   0.00000  Uiso   1.00
C265   C     0.54716   0.71046   0.14810   0.00000  Uiso   1.00
C266   C     0.59294   0.78986   0.18310   0.00000  Uiso   1.00
C267   C     0.90709   0.71021   0.18317   0.00000  Uiso   1.00
C268   C     0.90685   0.78978   0.14885   0.00000  Uiso   1.00
C269   C     0.59314   0.71030   0.14879   0.00000  Uiso   1.00
C270   C     0.61600   0.75004   0.16620   0.00000  Uiso   1.00
C271   C     0.88400   0.75001   0.16625   0.00000  Uiso   1.00
C272   C     0.52406   0.75012   0.16539   0.00000  Uiso   1.00
C273   C     0.97595   0.75000   0.16543   0.00000  Uiso   1.00
C274   C     0.67523   0.54823   0.06396   0.00000  Uiso   1.00
C275   C     0.72997   0.60257   0.12845   0.00000  Uiso   1.00
C276   C     0.65083   0.51160   0.03267   0.00000  Uiso   1.00
C277   C     0.84471   0.97946   0.11912   0.00000  Uiso   1.00
C278   C     0.88882   0.50577   0.12012   0.00000  Uiso   1.00
C279   C     0.76443   0.51739   0.28163   0.00000  Uiso   1.00
C280   C     0.79105   0.99720   0.32503   0.00000  Uiso   1.00
C281   C     0.65307   0.98057   0.20907   0.00000  Uiso   1.00
C282   C     0.60611   0.50027   0.20495   0.00000  Uiso   1.00
C283   C     0.78928   0.89788   0.16845   0.00000  Uiso   1.00
C284   C     0.77037   0.60216   0.20432   0.00000  Uiso   1.00
C285   C     0.71074   0.89790   0.16433   0.00000  Uiso   1.00
C286   C     0.72912   0.55234   0.12709   0.00000  Uiso   1.00
C287   C     0.79032   0.94761   0.16720   0.00000  Uiso   1.00
C288   C     0.77049   0.55250   0.20537   0.00000  Uiso   1.00
H289   H     0.71548   0.62318   0.09862   0.00000  Uiso   1.00
H290   H     0.88967   0.67942   0.19709   0.00000  Uiso   1.00
H291   H     0.88923   0.82058   0.13522   0.00000  Uiso   1.00
H292   H     0.61074   0.67949   0.13517   0.00000  Uiso   1.00
H293   H     0.68611   0.57696   0.03841   0.00000  Uiso   1.00
H294   H     0.65149   0.56220   0.09244   0.00000  Uiso   1.00
H295   H     0.62161   0.52807   0.01409   0.00000  Uiso   1.00
H296   H     0.67339   0.99714   0.00350   0.00000  Uiso   1.00
H297   H     0.63911   0.98231   0.05694   0.00000  Uiso   1.00
H298   H     0.82003   0.50195   0.09913   0.00000  Uiso   1.00
H299   H     0.84948   0.94587   0.09811   0.00000  Uiso   1.00
H300   H     0.82033   0.87866   0.17021   0.00000  Uiso   1.00
H301   H     0.91453   0.98410   0.13924   0.00000  Uiso   1.00
H302   H     0.89994   0.51315   0.08126   0.00000  Uiso   1.00
H303   H     0.88487   0.53973   0.14038   0.00000  Uiso   1.00
H304   H     0.74079   0.98973   0.26888   0.00000  Uiso   1.00
H305   H     0.74551   0.54866   0.29543   0.00000  Uiso   1.00
H306   H     0.81386   0.52450   0.00690   0.00000  Uiso   1.00
H307   H     0.76813   0.98538   0.02178   0.00000  Uiso   1.00
H308   H     0.81094   0.96644   0.31221   0.00000  Uiso   1.00
H309   H     0.67416   0.50780   0.22735   0.00000  Uiso   1.00
H310   H     0.65189   0.94831   0.23293   0.00000  Uiso   1.00
H311   H     0.78690   0.62158   0.23381   0.00000  Uiso   1.00
H312   H     0.60627   0.53287   0.18185   0.00000  Uiso   1.00
H313   H     0.59321   0.50887   0.24282   0.00000  Uiso   1.00
H314   H     0.58381   0.97380   0.18729   0.00000  Uiso   1.00
H315   H     0.67971   0.87869   0.16230   0.00000  Uiso   1.00
H316   H     0.52929   0.82034   0.19710   0.00000  Uiso   1.00
H317   H     0.97076   0.67977   0.19717   0.00000  Uiso   1.00
H318   H     0.97031   0.82023   0.13381   0.00000  Uiso   1.00
H319   H     0.52965   0.67989   0.13377   0.00000  Uiso   1.00
H320   H     0.61038   0.82065   0.19701   0.00000  Uiso   1.00
N321   N     0.75000   0.62624   0.16667   0.00000  Uiso   1.00
N322   N     0.75000   0.87377   0.16667   0.00000  Uiso   1.00
O323   O     0.68453   0.78974   0.16667   0.00000  Uiso   1.00
O324   O     0.83095   0.97043   0.16869   0.00000  Uiso   1.00
O325   O     0.79399   0.52977   0.24276   0.00000  Uiso   1.00
O326   O     0.66913   0.97036   0.16066   0.00000  Uiso   1.00
O327   O     0.81547   0.71026   0.16666   0.00000  Uiso   1.00
O328   O     0.81547   0.78974   0.16666   0.00000  Uiso   1.00
O329   O     0.68453   0.71026   0.16667   0.00000  Uiso   1.00
O330   O     0.75000   0.78973   0.09511   0.00000  Uiso   1.00
O331   O     0.75000   0.71027   0.23822   0.00000  Uiso   1.00
O332   O     0.75000   0.78973   0.23822   0.00000  Uiso   1.00
O333   O     0.75000   0.71027   0.09511   0.00000  Uiso   1.00
O334   O     0.71269   0.52681   0.08649   0.00000  Uiso   1.00
Zn335  Zn    0.75000   0.80307   0.16667   0.00000  Uiso   1.00
Zn336  Zn    0.75000   0.69693   0.16667   0.00000  Uiso   1.00
C337   C     0.16388   0.25001   0.49993   0.00000  Uiso   1.00
C338   C     0.20970   0.44765   0.49810   0.00000  Uiso   1.00
C339   C     0.24999   0.25000   0.40618   0.00000  Uiso   1.00
C340   C     0.25000   0.24999   0.59382   0.00000  Uiso   1.00
C341   C     0.25001   0.02684   0.49947   0.00000  Uiso   1.00
C342   C     0.25004   0.47348   0.49932   0.00000  Uiso   1.00
C343   C     0.24999   0.24999   0.35512   0.00000  Uiso   1.00
C344   C     0.24999   0.24998   0.64488   0.00000  Uiso   1.00
C345   C     0.04696   0.28978   0.51631   0.00000  Uiso   1.00
C346   C     0.45307   0.21033   0.51638   0.00000  Uiso   1.00
C347   C     0.45282   0.28965   0.48148   0.00000  Uiso   1.00
C348   C     0.33612   0.25000   0.49994   0.00000  Uiso   1.00
C349   C     0.04716   0.21046   0.48143   0.00000  Uiso   1.00
C350   C     0.09294   0.28986   0.51643   0.00000  Uiso   1.00
C351   C     0.40709   0.21021   0.51650   0.00000  Uiso   1.00
C352   C     0.40685   0.28978   0.48218   0.00000  Uiso   1.00
C353   C     0.09314   0.21030   0.48212   0.00000  Uiso   1.00
C354   C     0.11600   0.25004   0.49954   0.00000  Uiso   1.00
C355   C     0.38400   0.25001   0.49958   0.00000  Uiso   1.00
C356   C     0.02406   0.25012   0.49873   0.00000  Uiso   1.00
C357   C     0.47595   0.25000   0.49876   0.00000  Uiso   1.00
C358   C     0.17523   0.04823   0.39729   0.00000  Uiso   1.00
C359   C     0.22997   0.10257   0.46178   0.00000  Uiso   1.00
C360   C     0.15083   0.01160   0.36600   0.00000  Uiso   1.00
C361   C     0.34471   0.47946   0.45245   0.00000  Uiso   1.00
C362   C     0.38882   0.00577   0.45346   0.00000  Uiso   1.00
C363   C     0.26443   0.01739   0.61496   0.00000  Uiso   1.00
C364   C     0.29105   0.49720   0.65837   0.00000  Uiso   1.00
C365   C     0.15307   0.48057   0.54240   0.00000  Uiso   1.00
C366   C     0.10611   0.00027   0.53828   0.00000  Uiso   1.00
C367   C     0.28928   0.39788   0.50178   0.00000  Uiso   1.00
C368   C     0.27037   0.10216   0.53765   0.00000  Uiso   1.00
C369   C     0.21074   0.39790   0.49767   0.00000  Uiso   1.00
C370   C     0.22912   0.05234   0.46042   0.00000  Uiso   1.00
C371   C     0.29032   0.44761   0.50053   0.00000  Uiso   1.00
C372   C     0.27049   0.05250   0.53870   0.00000  Uiso   1.00
H373   H     0.21548   0.12318   0.43196   0.00000  Uiso   1.00
H374   H     0.38967   0.17942   0.53043   0.00000  Uiso   1.00
H375   H     0.38923   0.32058   0.46856   0.00000  Uiso   1.00
H376   H     0.11074   0.17949   0.46850   0.00000  Uiso   1.00
H377   H     0.18611   0.07696   0.37174   0.00000  Uiso   1.00
H378   H     0.15149   0.06220   0.42577   0.00000  Uiso   1.00
H379   H     0.12161   0.02807   0.34743   0.00000  Uiso   1.00
H380   H     0.17339   0.49714   0.33683   0.00000  Uiso   1.00
H381   H     0.13911   0.48231   0.39028   0.00000  Uiso   1.00
H382   H     0.32003   0.00195   0.43247   0.00000  Uiso   1.00
H383   H     0.34948   0.44587   0.43144   0.00000  Uiso   1.00
H384   H     0.32033   0.37866   0.50354   0.00000  Uiso   1.00
H385   H     0.41453   0.48410   0.47258   0.00000  Uiso   1.00
H386   H     0.39994   0.01315   0.41459   0.00000  Uiso   1.00
H387   H     0.38487   0.03973   0.47372   0.00000  Uiso   1.00
H388   H     0.24079   0.48973   0.60222   0.00000  Uiso   1.00
H389   H     0.24551   0.04866   0.62876   0.00000  Uiso   1.00
H390   H     0.31386   0.02450   0.34023   0.00000  Uiso   1.00
H391   H     0.26813   0.48538   0.35511   0.00000  Uiso   1.00
H392   H     0.31094   0.46644   0.64554   0.00000  Uiso   1.00
H393   H     0.17416   0.00780   0.56069   0.00000  Uiso   1.00
H394   H     0.15189   0.44831   0.56626   0.00000  Uiso   1.00
H395   H     0.28690   0.12158   0.56714   0.00000  Uiso   1.00
H396   H     0.10627   0.03287   0.51518   0.00000  Uiso   1.00
H397   H     0.09321   0.00887   0.57615   0.00000  Uiso   1.00
H398   H     0.08381   0.47380   0.52062   0.00000  Uiso   1.00
H399   H     0.17971   0.37869   0.49563   0.00000  Uiso   1.00
H400   H     0.02929   0.32034   0.53043   0.00000  Uiso   1.00
H401   H     0.47076   0.17977   0.53050   0.00000  Uiso   1.00
H402   H     0.47031   0.32023   0.46715   0.00000  Uiso   1.00
H403   H     0.02965   0.17989   0.46711   0.00000  Uiso   1.00
H404   H     0.11038   0.32065   0.53035   0.00000  Uiso   1.00
N405   N     0.25000   0.12624   0.50000   0.00000  Uiso   1.00
N406   N     0.25000   0.37377   0.50000   0.00000  Uiso   1.00
O407   O     0.18453   0.28974   0.50000   0.00000  Uiso   1.00
O408   O     0.33095   0.47043   0.50203   0.00000  Uiso   1.00
O409   O     0.29399   0.02977   0.57610   0.00000  Uiso   1.00
O410   O     0.16913   0.47036   0.49399   0.00000  Uiso   1.00
O411   O     0.31547   0.21026   0.50000   0.00000  Uiso   1.00
O412   O     0.31547   0.28974   0.50000   0.00000  Uiso   1.00
O413   O     0.18453   0.21026   0.50000   0.00000  Uiso   1.00
O414   O     0.25000   0.28973   0.42845   0.00000  Uiso   1.00
O415   O     0.25000   0.21027   0.57155   0.00000  Uiso   1.00
O416   O     0.25000   0.28973   0.57155   0.00000  Uiso   1.00
O417   O     0.25000   0.21027   0.42845   0.00000  Uiso   1.00
O418   O     0.21269   0.02681   0.41983   0.00000  Uiso   1.00
Zn419  Zn    0.25000   0.30307   0.50000   0.00000  Uiso   1.00
Zn420  Zn    0.25000   0.19693   0.50000   0.00000  Uiso   1.00
C421   C     0.66388   0.25001   0.49993   0.00000  Uiso   1.00
C422   C     0.70970   0.44765   0.49810   0.00000  Uiso   1.00
C423   C     0.74999   0.25000   0.40618   0.00000  Uiso   1.00
C424   C     0.75000   0.24999   0.59382   0.00000  Uiso   1.00
C425   C     0.75001   0.02684   0.49947   0.00000  Uiso   1.00
C426   C     0.75004   0.47348   0.49932   0.00000  Uiso   1.00
C427   C     0.74999   0.24999   0.35512   0.00000  Uiso   1.00
C428   C     0.74999   0.24998   0.64488   0.00000  Uiso   1.00
C429   C     0.54696   0.28978   0.51631   0.00000  Uiso   1.00
C430   C     0.95307   0.21033   0.51638   0.00000  Uiso   1.00
C431   C     0.95282   0.28965   0.48148   0.00000  Uiso   1.00
C432   C     0.83612   0.25000   0.49994   0.00000  Uiso   1.00
C433   C     0.54716   0.21046   0.48143   0.00000  Uiso   1.00
C434   C     0.59294   0.28986   0.51643   0.00000  Uiso   1.00
C435   C     0.90709   0.21021   0.51650   0.00000  Uiso   1.00
C436   C     0.90685   0.28978   0.48218   0.00000  Uiso   1.00
C437   C     0.59314   0.21030   0.48212   0.00000  Uiso   1.00
C438   C     0.61600   0.25004   0.49954   0.00000  Uiso   1.00
C439   C     0.88400   0.25001   0.49958   0.00000  Uiso   1.00
C440   C     0.52406   0.25012   0.49873   0.00000  Uiso   1.00
C441   C     0.97595   0.25000   0.49876   0.00000  Uiso   1.00
C442   C     0.67523   0.04823   0.39729   0.00000  Uiso   1.00
C443   C     0.72997   0.10257   0.46178   0.00000  Uiso   1.00
C444   C     0.65083   0.01160   0.36600   0.00000  Uiso   1.00
C445   C     0.84471   0.47946   0.45245   0.00000  Uiso   1.00
C446   C     0.88882   0.00577   0.45346   0.00000  Uiso   1.00
C447   C     0.76443   0.01739   0.61496   0.00000  Uiso   1.00
C448   C     0.79105   0.49720   0.65837   0.00000  Uiso   1.00
C449   C     0.65307   0.48057   0.54240   0.00000  Uiso   1.00
C450   C     0.60611   0.00027   0.53828   0.00000  Uiso   1.00
C451   C     0.78928   0.39788   0.50178   0.00000  Uiso   1.00
C452   C     0.77037   0.10216   0.53765   0.00000  Uiso   1.00
C453   C     0.71074   0.39790   0.49767   0.00000  Uiso   1.00
C454   C     0.72912   0.05234   0.46042   0.00000  Uiso   1.00
C455   C     0.79032   0.44761   0.50053   0.00000  Uiso   1.00
C456   C     0.77049   0.05250   0.53870   0.00000  Uiso   1.00
H457   H     0.71548   0.12318   0.43196   0.00000  Uiso   1.00
H458   H     0.88967   0.17942   0.53043   0.00000  Uiso   1.00
H459   H     0.88923   0.32058   0.46856   0.00000  Uiso   1.00
H460   H     0.61074   0.17949   0.46850   0.00000  Uiso   1.00
H461   H     0.68611   0.07696   0.37174   0.00000  Uiso   1.00
H462   H     0.65149   0.06220   0.42577   0.00000  Uiso   1.00
H463   H     0.62161   0.02807   0.34743   0.00000  Uiso   1.00
H464   H     0.67339   0.49714   0.33683   0.00000  Uiso   1.00
H465   H     0.63911   0.48231   0.39028   0.00000  Uiso   1.00
H466   H     0.82003   0.00195   0.43247   0.00000  Uiso   1.00
H467   H     0.84948   0.44587   0.43144   0.00000  Uiso   1.00
H468   H     0.82033   0.37866   0.50354   0.00000  Uiso   1.00
H469   H     0.91453   0.48410   0.47258   0.00000  Uiso   1.00
H470   H     0.89994   0.01315   0.41459   0.00000  Uiso   1.00
H471   H     0.88487   0.03973   0.47372   0.00000  Uiso   1.00
H472   H     0.74079   0.48973   0.60222   0.00000  Uiso   1.00
H473   H     0.74551   0.04866   0.62876   0.00000  Uiso   1.00
H474   H     0.81386   0.02450   0.34023   0.00000  Uiso   1.00
H475   H     0.76813   0.48538   0.35511   0.00000  Uiso   1.00
H476   H     0.81094   0.46644   0.64554   0.00000  Uiso   1.00
H477   H     0.67416   0.00780   0.56069   0.00000  Uiso   1.00
H478   H     0.65189   0.44831   0.56626   0.00000  Uiso   1.00
H479   H     0.78690   0.12158   0.56714   0.00000  Uiso   1.00
H480   H     0.60627   0.03287   0.51518   0.00000  Uiso   1.00
H481   H     0.59321   0.00887   0.57615   0.00000  Uiso   1.00
H482   H     0.58381   0.47380   0.52062   0.00000  Uiso   1.00
H483   H     0.67971   0.37869   0.49563   0.00000  Uiso   1.00
H484   H     0.52929   0.32034   0.53043   0.00000  Uiso   1.00
H485   H     0.97076   0.17977   0.53050   0.00000  Uiso   1.00
H486   H     0.97031   0.32023   0.46715   0.00000  Uiso   1.00
H487   H     0.52965   0.17989   0.46711   0.00000  Uiso   1.00
H488   H     0.61038   0.32065   0.53035   0.00000  Uiso   1.00
N489   N     0.75000   0.12624   0.50000   0.00000  Uiso   1.00
N490   N     0.75000   0.37377   0.50000   0.00000  Uiso   1.00
O491   O     0.68453   0.28974   0.50000   0.00000  Uiso   1.00
O492   O     0.83095   0.47043   0.50203   0.00000  Uiso   1.00
O493   O     0.79399   0.02977   0.57610   0.00000  Uiso   1.00
O494   O     0.66913   0.47036   0.49399   0.00000  Uiso   1.00
O495   O     0.81547   0.21026   0.50000   0.00000  Uiso   1.00
O496   O     0.81547   0.28974   0.50000   0.00000  Uiso   1.00
O497   O     0.68453   0.21026   0.50000   0.00000  Uiso   1.00
O498   O     0.75000   0.28973   0.42845   0.00000  Uiso   1.00
O499   O     0.75000   0.21027   0.57155   0.00000  Uiso   1.00
O500   O     0.75000   0.28973   0.57155   0.00000  Uiso   1.00
O501   O     0.75000   0.21027   0.42845   0.00000  Uiso   1.00
O502   O     0.71269   0.02681   0.41983   0.00000  Uiso   1.00
Zn503  Zn    0.75000   0.30307   0.50000   0.00000  Uiso   1.00
Zn504  Zn    0.75000   0.19693   0.50000   0.00000  Uiso   1.00
C505   C     0.16388   0.75001   0.49993   0.00000  Uiso   1.00
C506   C     0.20970   0.94765   0.49810   0.00000  Uiso   1.00
C507   C     0.24999   0.75000   0.40618   0.00000  Uiso   1.00
C508   C     0.25000   0.74999   0.59382   0.00000  Uiso   1.00
C509   C     0.25001   0.52684   0.49947   0.00000  Uiso   1.00
C510   C     0.25004   0.97348   0.49932   0.00000  Uiso   1.00
C511   C     0.24999   0.74999   0.35512   0.00000  Uiso   1.00
C512   C     0.24999   0.74998   0.64488   0.00000  Uiso   1.00
C513   C     0.04696   0.78978   0.51631   0.00000  Uiso   1.00
C514   C     0.45307   0.71033   0.51638   0.00000  Uiso   1.00
C515   C     0.45282   0.78965   0.48148   0.00000  Uiso   1.00
C516   C     0.33612   0.75000   0.49994   0.00000  Uiso   1.00
C517   C     0.04716   0.71046   0.48143   0.00000  Uiso   1.00
C518   C     0.09294   0.78986   0.51643   0.00000  Uiso   1.00
C519   C     0.40709   0.71021   0.51650   0.00000  Uiso   1.00
C520   C     0.40685   0.78978   0.48218   0.00000  Uiso   1.00
C521   C     0.09314   0.71030   0.48212   0.00000  Uiso   1.00
C522   C     0.11600   0.75004   0.49954   0.00000  Uiso   1.00
C523   C     0.38400   0.75001   0.49958   0.00000  Uiso   1.00
C524   C     0.02406   0.75012   0.49873   0.00000  Uiso   1.00
C525   C     0.47595   0.75000   0.49876   0.00000  Uiso   1.00
C526   C     0.17523   0.54823   0.39729   0.00000  Uiso   1.00
C527   C     0.22997   0.60257   0.46178   0.00000  Uiso   1.00
C528   C     0.15083   0.51160   0.36600   0.00000  Uiso   1.00
C529   C     0.34471   0.97946   0.45245   0.00000  Uiso   1.00
C530   C     0.38882   0.50577   0.45346   0.00000  Uiso   1.00
C531   C     0.26443   0.51739   0.61496   0.00000  Uiso   1.00
C532   C     0.29105   0.99720   0.65837   0.00000  Uiso   1.00
C533   C     0.15307   0.98057   0.54240   0.00000  Uiso   1.00
C534   C     0.10611   0.50027   0.53828   0.00000  Uiso   1.00
C535   C     0.28928   0.89788   0.50178   0.00000  Uiso   1.00
C536   C     0.27037   0.60216   0.53765   0.00000  Uiso   1.00
C537   C     0.21074   0.89790   0.49767   0.00000  Uiso   1.00
C538   C     0.22912   0.55234   0.46042   0.00000  Uiso   1.00
C539   C     0.29032   0.94761   0.50053   0.00000  Uiso   1.00
C540   C     0.27049   0.55250   0.53870   0.00000  Uiso   1.00
H541   H     0.21548   0.62318   0.43196   0.00000  Uiso   1.00
H542   H     0.38967   0.67942   0.53043   0.00000  Uiso   1.00
H543   H     0.38923   0.82058   0.46856   0.00000  Uiso   1.00
H544   H     0.11074   0.67949   0.46850   0.00000  Uiso   1.00
H545   H     0.18611   0.57696   0.37174   0.00000  Uiso   1.00
H546   H     0.15149   0.56220   0.42577   0.00000  Uiso   1.00
H547   H     0.12161   0.52807   0.34743   0.00000  Uiso   1.00
H548   H     0.17339   0.99714   0.33683   0.00000  Uiso   1.00
H549   H     0.13911   0.98231   0.39028   0.00000  Uiso   1.00
H550   H     0.32003   0.50195   0.43247   0.00000  Uiso   1.00
H551   H     0.34948   0.94587   0.43144   0.00000  Uiso   1.00
H552   H     0.32033   0.87866   0.50354   0.00000  Uiso   1.00
H553   H     0.41453   0.98410   0.47258   0.00000  Uiso   1.00
H554   H     0.39994   0.51315   0.41459   0.00000  Uiso   1.00
H555   H     0.38487   0.53973   0.47372   0.00000  Uiso   1.00
H556   H     0.24079   0.98973   0.60222   0.00000  Uiso   1.00
H557   H     0.24551   0.54866   0.62876   0.00000  Uiso   1.00
H558   H     0.31386   0.52450   0.34023   0.00000  Uiso   1.00
H559   H     0.26813   0.98538   0.35511   0.00000  Uiso   1.00
H560   H     0.31094   0.96644   0.64554   0.00000  Uiso   1.00
H561   H     0.17416   0.50780   0.56069   0.00000  Uiso   1.00
H562   H     0.15189   0.94831   0.56626   0.00000  Uiso   1.00
H563   H     0.28690   0.62158   0.56714   0.00000  Uiso   1.00
H564   H     0.10627   0.53287   0.51518   0.00000  Uiso   1.00
H565   H     0.09321   0.50887   0.57615   0.00000  Uiso   1.00
H566   H     0.08381   0.97380   0.52062   0.00000  Uiso   1.00
H567   H     0.17971   0.87869   0.49563   0.00000  Uiso   1.00
H568   H     0.02929   0.82034   0.53043   0.00000  Uiso   1.00
H569   H     0.47076   0.67977   0.53050   0.00000  Uiso   1.00
H570   H     0.47031   0.82023   0.46715   0.00000  Uiso   1.00
H571   H     0.02965   0.67989   0.46711   0.00000  Uiso   1.00
H572   H     0.11038   0.82065   0.53035   0.00000  Uiso   1.00
N573   N     0.25000   0.62624   0.50000   0.00000  Uiso   1.00
N574   N     0.25000   0.87377   0.50000   0.00000  Uiso   1.00
O575   O     0.18453   0.78974   0.50000   0.00000  Uiso   1.00
O576   O     0.33095   0.97043   0.50203   0.00000  Uiso   1.00
O577   O     0.29399   0.52977   0.57610   0.00000  Uiso   1.00
O578   O     0.16913   0.97036   0.49399   0.00000  Uiso   1.00
O579   O     0.31547   0.71026   0.50000   0.00000  Uiso   1.00
O580   O     0.31547   0.78974   0.50000   0.00000  Uiso   1.00
O581   O     0.18453   0.71026   0.50000   0.00000  Uiso   1.00
O582   O     0.25000   0.78973   0.42845   0.00000  Uiso   1.00
O583   O     0.25000   0.71027   0.57155   0.00000  Uiso   1.00
O584   O     0.25000   0.78973   0.57155   0.00000  Uiso   1.00
O585   O     0.25000   0.71027   0.42845   0.00000  Uiso   1.00
O586   O     0.21269   0.52681   0.41983   0.00000  Uiso   1.00
Zn587  Zn    0.25000   0.80307   0.50000   0.00000  Uiso   1.00
Zn588  Zn    0.25000   0.69693   0.50000   0.00000  Uiso   1.00
C589   C     0.66388   0.75001   0.49993   0.00000  Uiso   1.00
C590   C     0.70970   0.94765   0.49810   0.00000  Uiso   1.00
C591   C     0.74999   0.75000   0.40618   0.00000  Uiso   1.00
C592   C     0.75000   0.74999   0.59382   0.00000  Uiso   1.00
C593   C     0.75001   0.52684   0.49947   0.00000  Uiso   1.00
C594   C     0.75004   0.97348   0.49932   0.00000  Uiso   1.00
C595   C     0.74999   0.74999   0.35512   0.00000  Uiso   1.00
C596   C     0.74999   0.74998   0.64488   0.00000  Uiso   1.00
C597   C     0.54696   0.78978   0.51631   0.00000  Uiso   1.00
C598   C     0.95307   0.71033   0.51638   0.00000  Uiso   1.00
C599   C     0.95282   0.78965   0.48148   0.00000  Uiso   1.00
C600   C     0.83612   0.75000   0.49994   0.00000  Uiso   1.00
C601   C     0.54716   0.71046   0.48143   0.00000  Uiso   1.00
C602   C     0.59294   0.78986   0.51643   0.00000  Uiso   1.00
C603   C     0.90709   0.71021   0.51650   0.00000  Uiso   1.00
C604   C     0.90685   0.78978   0.48218   0.00000  Uiso   1.00
C605   C     0.59314   0.71030   0.48212   0.00000  Uiso   1.00
C606   C     0.61600   0.75004   0.49954   0.00000  Uiso   1.00
C607   C     0.88400   0.75001   0.49958   0.00000  Uiso   1.00
C608   C     0.52406   0.75012   0.49873   0.00000  Uiso   1.00
C609   C     0.97595   0.75000   0.49876   0.00000  Uiso   1.00
C610   C     0.67523   0.54823   0.39729   0.00000  Uiso   1.00
C611   C     0.72997   0.60257   0.46178   0.00000  Uiso   1.00
C612   C     0.65083   0.51160   0.36600   0.00000  Uiso   1.00
C613   C     0.84471   0.97946   0.45245   0.00000  Uiso   1.00
C614   C     0.88882   0.50577   0.45346   0.00000  Uiso   1.00
C615   C     0.76443   0.51739   0.61496   0.00000  Uiso   1.00
C616   C     0.79105   0.99720   0.65837   0.00000  Uiso   1.00
C617   C     0.65307   0.98057   0.54240   0.00000  Uiso   1.00
C618   C     0.60611   0.50027   0.53828   0.00000  Uiso   1.00
C619   C     0.78928   0.89788   0.50178   0.00000  Uiso   1.00
C620   C     0.77037   0.60216   0.53765   0.00000  Uiso   1.00
C621   C     0.71074   0.89790   0.49767   0.00000  Uiso   1.00
C622   C     0.72912   0.55234   0.46042   0.00000  Uiso   1.00
C623   C     0.79032   0.94761   0.50053   0.00000  Uiso   1.00
C624   C     0.77049   0.55250   0.53870   0.00000  Uiso   1.00
H625   H     0.71548   0.62318   0.43196   0.00000  Uiso   1.00
H626   H     0.88967   0.67942   0.53043   0.00000  Uiso   1.00
H627   H     0.88923   0.82058   0.46856   0.00000  Uiso   1.00
H628   H     0.61074   0.67949   0.46850   0.00000  Uiso   1.00
H629   H     0.68611   0.57696   0.37174   0.00000  Uiso   1.00
H630   H     0.65149   0.56220   0.42577   0.00000  Uiso   1.00
H631   H     0.62161   0.52807   0.34743   0.00000  Uiso   1.00
H632   H     0.67339   0.99714   0.33683   0.00000  Uiso   1.00
H633   H     0.63911   0.98231   0.39028   0.00000  Uiso   1.00
H634   H     0.82003   0.50195   0.43247   0.00000  Uiso   1.00
H635   H     0.84948   0.94587   0.43144   0.00000  Uiso   1.00
H636   H     0.82033   0.87866   0.50354   0.00000  Uiso   1.00
H637   H     0.91453   0.98410   0.47258   0.00000  Uiso   1.00
H638   H     0.89994   0.51315   0.41459   0.00000  Uiso   1.00
H639   H     0.88487   0.53973   0.47372   0.00000  Uiso   1.00
H640   H     0.74079   0.98973   0.60222   0.00000  Uiso   1.00
H641   H     0.74551   0.54866   0.62876   0.00000  Uiso   1.00
H642   H     0.81386   0.52450   0.34023   0.00000  Uiso   1.00
H643   H     0.76813   0.98538   0.35511   0.00000  Uiso   1.00
H644   H     0.81094   0.96644   0.64554   0.00000  Uiso   1.00
H645   H     0.67416   0.50780   0.56069   0.00000  Uiso   1.00
H646   H     0.65189   0.94831   0.56626   0.00000  Uiso   1.00
H647   H     0.78690   0.62158   0.56714   0.00000  Uiso   1.00
H648   H     0.60627   0.53287   0.51518   0.00000  Uiso   1.00
H649   H     0.59321   0.50887   0.57615   0.00000  Uiso   1.00
H650   H     0.58381   0.97380   0.52062   0.00000  Uiso   1.00
H651   H     0.67971   0.87869   0.49563   0.00000  Uiso   1.00
H652   H     0.52929   0.82034   0.53043   0.00000  Uiso   1.00
H653   H     0.97076   0.67977   0.53050   0.00000  Uiso   1.00
H654   H     0.97031   0.82023   0.46715   0.00000  Uiso   1.00
H655   H     0.52965   0.67989   0.46711   0.00000  Uiso   1.00
H656   H     0.61038   0.82065   0.53035   0.00000  Uiso   1.00
N657   N     0.75000   0.62624   0.50000   0.00000  Uiso   1.00
N658   N     0.75000   0.87377   0.50000   0.00000  Uiso   1.00
O659   O     0.68453   0.78974   0.50000   0.00000  Uiso   1.00
O660   O     0.83095   0.97043   0.50203   0.00000  Uiso   1.00
O661   O     0.79399   0.52977   0.57610   0.00000  Uiso   1.00
O662   O     0.66913   0.97036   0.49399   0.00000  Uiso   1.00
O663   O     0.81547   0.71026   0.50000   0.00000  Uiso   1.00
O664   O     0.81547   0.78974   0.50000   0.00000  Uiso   1.00
O665   O     0.68453   0.71026   0.50000   0.00000  Uiso   1.00
O666   O     0.75000   0.78973   0.42845   0.00000  Uiso   1.00
O667   O     0.75000   0.71027   0.57155   0.00000  Uiso   1.00
O668   O     0.75000   0.78973   0.57155   0.00000  Uiso   1.00
O669   O     0.75000   0.71027   0.42845   0.00000  Uiso   1.00
O670   O     0.71269   0.52681   0.41983   0.00000  Uiso   1.00
Zn671  Zn    0.75000   0.80307   0.50000   0.00000  Uiso   1.00
Zn672  Zn    0.75000   0.69693   0.50000   0.00000  Uiso   1.00
C673   C     0.16388   0.25001   0.83326   0.00000  Uiso   1.00
C674   C     0.20970   0.44765   0.83143   0.00000  Uiso   1.00
C675   C     0.24999   0.25000   0.73951   0.00000  Uiso   1.00
C676   C     0.25000   0.24999   0.92715   0.00000  Uiso   1.00
C677   C     0.25001   0.02684   0.83280   0.00000  Uiso   1.00
C678   C     0.25004   0.47348   0.83265   0.00000  Uiso   1.00
C679   C     0.24999   0.24999   0.68846   0.00000  Uiso   1.00
C680   C     0.24999   0.24998   0.97821   0.00000  Uiso   1.00
C681   C     0.04696   0.28978   0.84965   0.00000  Uiso   1.00
C682   C     0.45307   0.21033   0.84971   0.00000  Uiso   1.00
C683   C     0.45282   0.28965   0.81482   0.00000  Uiso   1.00
C684   C     0.33612   0.25000   0.83328   0.00000  Uiso   1.00
C685   C     0.04716   0.21046   0.81477   0.00000  Uiso   1.00
C686   C     0.09294   0.28986   0.84976   0.00000  Uiso   1.00
C687   C     0.40709   0.21021   0.84984   0.00000  Uiso   1.00
C688   C     0.40685   0.28978   0.81552   0.00000  Uiso   1.00
C689   C     0.09314   0.21030   0.81546   0.00000  Uiso   1.00
C690   C     0.11600   0.25004   0.83287   0.00000  Uiso   1.00
C691   C     0.38400   0.25001   0.83291   0.00000  Uiso   1.00
C692   C     0.02406   0.25012   0.83206   0.00000  Uiso   1.00
C693   C     0.47595   0.25000   0.83209   0.00000  Uiso   1.00
C694   C     0.17523   0.04823   0.73063   0.00000  Uiso   1.00
C695   C     0.22997   0.10257   0.79511   0.00000  Uiso   1.00
C696   C     0.15083   0.01160   0.69934   0.00000  Uiso   1.00
C697   C     0.34471   0.47946   0.78579   0.00000  Uiso   1.00
C698   C     0.38882   0.00577   0.78679   0.00000  Uiso   1.00
C699   C     0.26443   0.01739   0.94830   0.00000  Uiso   1.00
C700   C     0.29105   0.49720   0.99170   0.00000  Uiso   1.00
C701   C     0.15307   0.48057   0.87574   0.00000  Uiso   1.00
C702   C     0.10611   0.00027   0.87161   0.00000  Uiso   1.00
C703   C     0.28928   0.39788   0.83512   0.00000  Uiso   1.00
C704   C     0.27037   0.10216   0.87099   0.00000  Uiso   1.00
C705   C     0.21074   0.39790   0.83100   0.00000  Uiso   1.00
C706   C     0.22912   0.05234   0.79375   0.00000  Uiso   1.00
C707   C     0.29032   0.44761   0.83386   0.00000  Uiso   1.00
C708   C     0.27049   0.05250   0.87204   0.00000  Uiso   1.00
H709   H     0.21548   0.12318   0.76529   0.00000  Uiso   1.00
H710   H     0.38967   0.17942   0.86376   0.00000  Uiso   1.00
H711   H     0.38923   0.32058   0.80189   0.00000  Uiso   1.00
H712   H     0.11074   0.17949   0.80183   0.00000  Uiso   1.00
H713   H     0.18611   0.07696   0.70507   0.00000  Uiso   1.00
H714   H     0.15149   0.06220   0.75911   0.00000  Uiso   1.00
H715   H     0.12161   0.02807   0.68076   0.00000  Uiso   1.00
H716   H     0.17339   0.49714   0.67017   0.00000  Uiso   1.00
H717   H     0.13911   0.48231   0.72361   0.00000  Uiso   1.00
H718   H     0.32003   0.00195   0.76580   0.00000  Uiso   1.00
H719   H     0.34948   0.44587   0.76478   0.00000  Uiso   1.00
H720   H     0.32033   0.37866   0.83687   0.00000  Uiso   1.00
H721   H     0.41453   0.48410   0.80591   0.00000  Uiso   1.00
H722   H     0.39994   0.01315   0.74793   0.00000  Uiso   1.00
H723   H     0.38487   0.03973   0.80705   0.00000  Uiso   1.00
H724   H     0.24079   0.48973   0.93555   0.00000  Uiso   1.00
H725   H     0.24551   0.04866   0.96209   0.00000  Uiso   1.00
H726   H     0.31386   0.02450   0.67356   0.00000  Uiso   1.00
H727   H     0.26813   0.48538   0.68844   0.00000  Uiso   1.00
H728   H     0.31094   0.46644   0.97888   0.00000  Uiso   1.00
H729   H     0.17416   0.00780   0.89402   0.00000  Uiso   1.00
H730   H     0.15189   0.44831   0.89960   0.00000  Uiso   1.00
H731   H     0.28690   0.12158   0.90048   0.00000  Uiso   1.00
H732   H     0.10627   0.03287   0.84852   0.00000  Uiso   1.00
H733   H     0.09321   0.00887   0.90948   0.00000  Uiso   1.00
H734   H     0.08381   0.47380   0.85395   0.00000  Uiso   1.00
H735   H     0.17971   0.37869   0.82896   0.00000  Uiso   1.00
H736   H     0.02929   0.32034   0.86377   0.00000  Uiso   1.00
H737   H     0.47076   0.17977   0.86383   0.00000  Uiso   1.00
H738   H     0.47031   0.32023   0.80048   0.00000  Uiso   1.00
H739   H     0.02965   0.17989   0.80044   0.00000  Uiso   1.00
H740   H     0.11038   0.32065   0.86368   0.00000  Uiso   1.00
N741   N     0.25000   0.12624   0.83333   0.00000  Uiso   1.00
N742   N     0.25000   0.37377   0.83333   0.00000  Uiso   1.00
O743   O     0.18453   0.28974   0.83334   0.00000  Uiso   1.00
O744   O     0.33095   0.47043   0.83536   0.00000  Uiso   1.00
O745   O     0.29399   0.02977   0.90943   0.00000  Uiso   1.00
O746   O     0.16913   0.47036   0.82733   0.00000  Uiso   1.00
O747   O     0.31547   0.21026   0.83333   0.00000  Uiso   1.00
O748   O     0.31547   0.28974   0.83333   0.00000  Uiso   1.00
O749   O     0.18453   0.21026   0.83334   0.00000  Uiso   1.00
O750   O     0.25000   0.28973   0.76178   0.00000  Uiso   1.00
O751   O     0.25000   0.21027   0.90489   0.00000  Uiso   1.00
O752   O     0.25000   0.28973   0.90489   0.00000  Uiso   1.00
O753   O     0.25000   0.21027   0.76178   0.00000  Uiso   1.00
O754   O     0.21269   0.02681   0.75316   0.00000  Uiso   1.00
Zn755  Zn    0.25000   0.30307   0.83333   0.00000  Uiso   1.00
Zn756  Zn    0.25000   0.19693   0.83333   0.00000  Uiso   1.00
C757   C     0.66388   0.25001   0.83326   0.00000  Uiso   1.00
C758   C     0.70970   0.44765   0.83143   0.00000  Uiso   1.00
C759   C     0.74999   0.25000   0.73951   0.00000  Uiso   1.00
C760   C     0.75000   0.24999   0.92715   0.00000  Uiso   1.00
C761   C     0.75001   0.02684   0.83280   0.00000  Uiso   1.00
C762   C     0.75004   0.47348   0.83265   0.00000  Uiso   1.00
C763   C     0.74999   0.24999   0.68846   0.00000  Uiso   1.00
C764   C     0.74999   0.24998   0.97821   0.00000  Uiso   1.00
C765   C     0.54696   0.28978   0.84965   0.00000  Uiso   1.00
C766   C     0.95307   0.21033   0.84971   0.00000  Uiso   1.00
C767   C     0.95282   0.28965   0.81482   0.00000  Uiso   1.00
C768   C     0.83612   0.25000   0.83328   0.00000  Uiso   1.00
C769   C     0.54716   0.21046   0.81477   0.00000  Uiso   1.00
C770   C     0.59294   0.28986   0.84976   0.00000  Uiso   1.00
C771   C     0.90709   0.21021   0.84984   0.00000  Uiso   1.00
C772   C     0.90685   0.28978   0.81552   0.00000  Uiso   1.00
C773   C     0.59314   0.21030   0.81546   0.00000  Uiso   1.00
C774   C     0.61600   0.25004   0.83287   0.00000  Uiso   1.00
C775   C     0.88400   0.25001   0.83291   0.00000  Uiso   1.00
C776   C     0.52406   0.25012   0.83206   0.00000  Uiso   1.00
C777   C     0.97595   0.25000   0.83209   0.00000  Uiso   1.00
C778   C     0.67523   0.04823   0.73063   0.00000  Uiso   1.00
C779   C     0.72997   0.10257   0.79511   0.00000  Uiso   1.00
C780   C     0.65083   0.01160   0.69934   0.00000  Uiso   1.00
C781   C     0.84471   0.47946   0.78579   0.00000  Uiso   1.00
C782   C     0.88882   0.00577   0.78679   0.00000  Uiso   1.00
C783   C     0.76443   0.01739   0.94830   0.00000  Uiso   1.00
C784   C     0.79105   0.49720   0.99170   0.00000  Uiso   1.00
C785   C     0.65307   0.48057   0.87574   0.00000  Uiso   1.00
C786   C     0.60611   0.00027   0.87161   0.00000  Uiso   1.00
C787   C     0.78928   0.39788   0.83512   0.00000  Uiso   1.00
C788   C     0.77037   0.10216   0.87099   0.00000  Uiso   1.00
C789   C     0.71074   0.39790   0.83100   0.00000  Uiso   1.00
C790   C     0.72912   0.05234   0.79375   0.00000  Uiso   1.00
C791   C     0.79032   0.44761   0.83386   0.00000  Uiso   1.00
C792   C     0.77049   0.05250   0.87204   0.00000  Uiso   1.00
H793   H     0.71548   0.12318   0.76529   0.00000  Uiso   1.00
H794   H     0.88967   0.17942   0.86376   0.00000  Uiso   1.00
H795   H     0.88923   0.32058   0.80189   0.00000  Uiso   1.00
H796   H     0.61074   0.17949   0.80183   0.00000  Uiso   1.00
H797   H     0.68611   0.07696   0.70507   0.00000  Uiso   1.00
H798   H     0.65149   0.06220   0.75911   0.00000  Uiso   1.00
H799   H     0.62161   0.02807   0.68076   0.00000  Uiso   1.00
H800   H     0.67339   0.49714   0.67017   0.00000  Uiso   1.00
H801   H     0.63911   0.48231   0.72361   0.00000  Uiso   1.00
H802   H     0.82003   0.00195   0.76580   0.00000  Uiso   1.00
H803   H     0.84948   0.44587   0.76478   0.00000  Uiso   1.00
H804   H     0.82033   0.37866   0.83687   0.00000  Uiso   1.00
H805   H     0.91453   0.48410   0.80591   0.00000  Uiso   1.00
H806   H     0.89994   0.01315   0.74793   0.00000  Uiso   1.00
H807   H     0.88487   0.03973   0.80705   0.00000  Uiso   1.00
H808   H     0.74079   0.48973   0.93555   0.00000  Uiso   1.00
H809   H     0.74551   0.04866   0.96209   0.00000  Uiso   1.00
H810   H     0.81386   0.02450   0.67356   0.00000  Uiso   1.00
H811   H     0.76813   0.48538   0.68844   0.00000  Uiso   1.00
H812   H     0.81094   0.46644   0.97888   0.00000  Uiso   1.00
H813   H     0.67416   0.00780   0.89402   0.00000  Uiso   1.00
H814   H     0.65189   0.44831   0.89960   0.00000  Uiso   1.00
H815   H     0.78690   0.12158   0.90048   0.00000  Uiso   1.00
H816   H     0.60627   0.03287   0.84852   0.00000  Uiso   1.00
H817   H     0.59321   0.00887   0.90948   0.00000  Uiso   1.00
H818   H     0.58381   0.47380   0.85395   0.00000  Uiso   1.00
H819   H     0.67971   0.37869   0.82896   0.00000  Uiso   1.00
H820   H     0.52929   0.32034   0.86377   0.00000  Uiso   1.00
H821   H     0.97076   0.17977   0.86383   0.00000  Uiso   1.00
H822   H     0.97031   0.32023   0.80048   0.00000  Uiso   1.00
H823   H     0.52965   0.17989   0.80044   0.00000  Uiso   1.00
H824   H     0.61038   0.32065   0.86368   0.00000  Uiso   1.00
N825   N     0.75000   0.12624   0.83333   0.00000  Uiso   1.00
N826   N     0.75000   0.37377   0.83333   0.00000  Uiso   1.00
O827   O     0.68453   0.28974   0.83334   0.00000  Uiso   1.00
O828   O     0.83095   0.47043   0.83536   0.00000  Uiso   1.00
O829   O     0.79399   0.02977   0.90943   0.00000  Uiso   1.00
O830   O     0.66913   0.47036   0.82733   0.00000  Uiso   1.00
O831   O     0.81547   0.21026   0.83333   0.00000  Uiso   1.00
O832   O     0.81547   0.28974   0.83333   0.00000  Uiso   1.00
O833   O     0.68453   0.21026   0.83334   0.00000  Uiso   1.00
O834   O     0.75000   0.28973   0.76178   0.00000  Uiso   1.00
O835   O     0.75000   0.21027   0.90489   0.00000  Uiso   1.00
O836   O     0.75000   0.28973   0.90489   0.00000  Uiso   1.00
O837   O     0.75000   0.21027   0.76178   0.00000  Uiso   1.00
O838   O     0.71269   0.02681   0.75316   0.00000  Uiso   1.00
Zn839  Zn    0.75000   0.30307   0.83333   0.00000  Uiso   1.00
Zn840  Zn    0.75000   0.19693   0.83333   0.00000  Uiso   1.00
C841   C     0.16388   0.75001   0.83326   0.00000  Uiso   1.00
C842   C     0.20970   0.94765   0.83143   0.00000  Uiso   1.00
C843   C     0.24999   0.75000   0.73951   0.00000  Uiso   1.00
C844   C     0.25000   0.74999   0.92715   0.00000  Uiso   1.00
C845   C     0.25001   0.52684   0.83280   0.00000  Uiso   1.00
C846   C     0.25004   0.97348   0.83265   0.00000  Uiso   1.00
C847   C     0.24999   0.74999   0.68846   0.00000  Uiso   1.00
C848   C     0.24999   0.74998   0.97821   0.00000  Uiso   1.00
C849   C     0.04696   0.78978   0.84965   0.00000  Uiso   1.00
C850   C     0.45307   0.71033   0.84971   0.00000  Uiso   1.00
C851   C     0.45282   0.78965   0.81482   0.00000  Uiso   1.00
C852   C     0.33612   0.75000   0.83328   0.00000  Uiso   1.00
C853   C     0.04716   0.71046   0.81477   0.00000  Uiso   1.00
C854   C     0.09294   0.78986   0.84976   0.00000  Uiso   1.00
C855   C     0.40709   0.71021   0.84984   0.00000  Uiso   1.00
C856   C     0.40685   0.78978   0.81552   0.00000  Uiso   1.00
C857   C     0.09314   0.71030   0.81546   0.00000  Uiso   1.00
C858   C     0.11600   0.75004   0.83287   0.00000  Uiso   1.00
C859   C     0.38400   0.75001   0.83291   0.00000  Uiso   1.00
C860   C     0.02406   0.75012   0.83206   0.00000  Uiso   1.00
C861   C     0.47595   0.75000   0.83209   0.00000  Uiso   1.00
C862   C     0.17523   0.54823   0.73063   0.00000  Uiso   1.00
C863   C     0.22997   0.60257   0.79511   0.00000  Uiso   1.00
C864   C     0.15083   0.51160   0.69934   0.00000  Uiso   1.00
C865   C     0.34471   0.97946   0.78579   0.00000  Uiso   1.00
C866   C     0.38882   0.50577   0.78679   0.00000  Uiso   1.00
C867   C     0.26443   0.51739   0.94830   0.00000  Uiso   1.00
C868   C     0.29105   0.99720   0.99170   0.00000  Uiso   1.00
C869   C     0.15307   0.98057   0.87574   0.00000  Uiso   1.00
C870   C     0.10611   0.50027   0.87161   0.00000  Uiso   1.00
C871   C     0.28928   0.89788   0.83512   0.00000  Uiso   1.00
C872   C     0.27037   0.60216   0.87099   0.00000  Uiso   1.00
C873   C     0.21074   0.89790   0.83100   0.00000  Uiso   1.00
C874   C     0.22912   0.55234   0.79375   0.00000  Uiso   1.00
C875   C     0.29032   0.94761   0.83386   0.00000  Uiso   1.00
C876   C     0.27049   0.55250   0.87204   0.00000  Uiso   1.00
H877   H     0.21548   0.62318   0.76529   0.00000  Uiso   1.00
H878   H     0.38967   0.67942   0.86376   0.00000  Uiso   1.00
H879   H     0.38923   0.82058   0.80189   0.00000  Uiso   1.00
H880   H     0.11074   0.67949   0.80183   0.00000  Uiso   1.00
H881   H     0.18611   0.57696   0.70507   0.00000  Uiso   1.00
H882   H     0.15149   0.56220   0.75911   0.00000  Uiso   1.00
H883   H     0.12161   0.52807   0.68076   0.00000  Uiso   1.00
H884   H     0.17339   0.99714   0.67017   0.00000  Uiso   1.00
H885   H     0.13911   0.98231   0.72361   0.00000  Uiso   1.00
H886   H     0.32003   0.50195   0.76580   0.00000  Uiso   1.00
H887   H     0.34948   0.94587   0.76478   0.00000  Uiso   1.00
H888   H     0.32033   0.87866   0.83687   0.00000  Uiso   1.00
H889   H     0.41453   0.98410   0.80591   0.00000  Uiso   1.00
H890   H     0.39994   0.51315   0.74793   0.00000  Uiso   1.00
H891   H     0.38487   0.53973   0.80705   0.00000  Uiso   1.00
H892   H     0.24079   0.98973   0.93555   0.00000  Uiso   1.00
H893   H     0.24551   0.54866   0.96209   0.00000  Uiso   1.00
H894   H     0.31386   0.52450   0.67356   0.00000  Uiso   1.00
H895   H     0.26813   0.98538   0.68844   0.00000  Uiso   1.00
H896   H     0.31094   0.96644   0.97888   0.00000  Uiso   1.00
H897   H     0.17416   0.50780   0.89402   0.00000  Uiso   1.00
H898   H     0.15189   0.94831   0.89960   0.00000  Uiso   1.00
H899   H     0.28690   0.62158   0.90048   0.00000  Uiso   1.00
H900   H     0.10627   0.53287   0.84852   0.00000  Uiso   1.00
H901   H     0.09321   0.50887   0.90948   0.00000  Uiso   1.00
H902   H     0.08381   0.97380   0.85395   0.00000  Uiso   1.00
H903   H     0.17971   0.87869   0.82896   0.00000  Uiso   1.00
H904   H     0.02929   0.82034   0.86377   0.00000  Uiso   1.00
H905   H     0.47076   0.67977   0.86383   0.00000  Uiso   1.00
H906   H     0.47031   0.82023   0.80048   0.00000  Uiso   1.00
H907   H     0.02965   0.67989   0.80044   0.00000  Uiso   1.00
H908   H     0.11038   0.82065   0.86368   0.00000  Uiso   1.00
N909   N     0.25000   0.62624   0.83333   0.00000  Uiso   1.00
N910   N     0.25000   0.87377   0.83333   0.00000  Uiso   1.00
O911   O     0.18453   0.78974   0.83334   0.00000  Uiso   1.00
O912   O     0.33095   0.97043   0.83536   0.00000  Uiso   1.00
O913   O     0.29399   0.52977   0.90943   0.00000  Uiso   1.00
O914   O     0.16913   0.97036   0.82733   0.00000  Uiso   1.00
O915   O     0.31547   0.71026   0.83333   0.00000  Uiso   1.00
O916   O     0.31547   0.78974   0.83333   0.00000  Uiso   1.00
O917   O     0.18453   0.71026   0.83334   0.00000  Uiso   1.00
O918   O     0.25000   0.78973   0.76178   0.00000  Uiso   1.00
O919   O     0.25000   0.71027   0.90489   0.00000  Uiso   1.00
O920   O     0.25000   0.78973   0.90489   0.00000  Uiso   1.00
O921   O     0.25000   0.71027   0.76178   0.00000  Uiso   1.00
O922   O     0.21269   0.52681   0.75316   0.00000  Uiso   1.00
Zn923  Zn    0.25000   0.80307   0.83333   0.00000  Uiso   1.00
Zn924  Zn    0.25000   0.69693   0.83333   0.00000  Uiso   1.00
C925   C     0.66388   0.75001   0.83326   0.00000  Uiso   1.00
C926   C     0.70970   0.94765   0.83143   0.00000  Uiso   1.00
C927   C     0.74999   0.75000   0.73951   0.00000  Uiso   1.00
C928   C     0.75000   0.74999   0.92715   0.00000  Uiso   1.00
C929   C     0.75001   0.52684   0.83280   0.00000  Uiso   1.00
C930   C     0.75004   0.97348   0.83265   0.00000  Uiso   1.00
C931   C     0.74999   0.74999   0.68846   0.00000  Uiso   1.00
C932   C     0.74999   0.74998   0.97821   0.00000  Uiso   1.00
C933   C     0.54696   0.78978   0.84965   0.00000  Uiso   1.00
C934   C     0.95307   0.71033   0.84971   0.00000  Uiso   1.00
C935   C     0.95282   0.78965   0.81482   0.00000  Uiso   1.00
C936   C     0.83612   0.75000   0.83328   0.00000  Uiso   1.00
C937   C     0.54716   0.71046   0.81477   0.00000  Uiso   1.00
C938   C     0.59294   0.78986   0.84976   0.00000  Uiso   1.00
C939   C     0.90709   0.71021   0.84984   0.00000  Uiso   1.00
C940   C     0.90685   0.78978   0.81552   0.00000  Uiso   1.00
C941   C     0.59314   0.71030   0.81546   0.00000  Uiso   1.00
C942   C     0.61600   0.75004   0.83287   0.00000  Uiso   1.00
C943   C     0.88400   0.75001   0.83291   0.00000  Uiso   1.00
C944   C     0.52406   0.75012   0.83206   0.00000  Uiso   1.00
C945   C     0.97595   0.75000   0.83209   0.00000  Uiso   1.00
C946   C     0.67523   0.54823   0.73063   0.00000  Uiso   1.00
C947   C     0.72997   0.60257   0.79511   0.00000  Uiso   1.00
C948   C     0.65083   0.51160   0.69934   0.00000  Uiso   1.00
C949   C     0.84471   0.97946   0.78579   0.00000  Uiso   1.00
C950   C     0.88882   0.50577   0.78679   0.00000  Uiso   1.00
C951   C     0.76443   0.51739   0.94830   0.00000  Uiso   1.00
C952   C     0.79105   0.99720   0.99170   0.00000  Uiso   1.00
C953   C     0.65307   0.98057   0.87574   0.00000  Uiso   1.00
C954   C     0.60611   0.50027   0.87161   0.00000  Uiso   1.00
C955   C     0.78928   0.89788   0.83512   0.00000  Uiso   1.00
C956   C     0.77037   0.60216   0.87099   0.00000  Uiso   1.00
C957   C     0.71074   0.89790   0.83100   0.00000  Uiso   1.00
C958   C     0.72912   0.55234   0.79375   0.00000  Uiso   1.00
C959   C     0.79032   0.94761   0.83386   0.00000  Uiso   1.00
C960   C     0.77049   0.55250   0.87204   0.00000  Uiso   1.00
H961   H     0.71548   0.62318   0.76529   0.00000  Uiso   1.00
H962   H     0.88967   0.67942   0.86376   0.00000  Uiso   1.00
H963   H     0.88923   0.82058   0.80189   0.00000  Uiso   1.00
H964   H     0.61074   0.67949   0.80183   0.00000  Uiso   1.00
H965   H     0.68611   0.57696   0.70507   0.00000  Uiso   1.00
H966   H     0.65149   0.56220   0.75911   0.00000  Uiso   1.00
H967   H     0.62161   0.52807   0.68076   0.00000  Uiso   1.00
H968   H     0.67339   0.99714   0.67017   0.00000  Uiso   1.00
H969   H     0.63911   0.98231   0.72361   0.00000  Uiso   1.00
H970   H     0.82003   0.50195   0.76580   0.00000  Uiso   1.00
H971   H     0.84948   0.94587   0.76478   0.00000  Uiso   1.00
H972   H     0.82033   0.87866   0.83687   0.00000  Uiso   1.00
H973   H     0.91453   0.98410   0.80591   0.00000  Uiso   1.00
H974   H     0.89994   0.51315   0.74793   0.00000  Uiso   1.00
H975   H     0.88487   0.53973   0.80705   0.00000  Uiso   1.00
H976   H     0.74079   0.98973   0.93555   0.00000  Uiso   1.00
H977   H     0.74551   0.54866   0.96209   0.00000  Uiso   1.00
H978   H     0.81386   0.52450   0.67356   0.00000  Uiso   1.00
H979   H     0.76813   0.98538   0.68844   0.00000  Uiso   1.00
H980   H     0.81094   0.96644   0.97888   0.00000  Uiso   1.00
H981   H     0.67416   0.50780   0.89402   0.00000  Uiso   1.00
H982   H     0.65189   0.94831   0.89960   0.00000  Uiso   1.00
H983   H     0.78690   0.62158   0.90048   0.00000  Uiso   1.00
H984   H     0.60627   0.53287   0.84852   0.00000  Uiso   1.00
H985   H     0.59321   0.50887   0.90948   0.00000  Uiso   1.00
H986   H     0.58381   0.97380   0.85395   0.00000  Uiso   1.00
H987   H     0.67971   0.87869   0.82896   0.00000  Uiso   1.00
H988   H     0.52929   0.82034   0.86377   0.00000  Uiso   1.00
H989   H     0.97076   0.67977   0.86383   0.00000  Uiso   1.00
H990   H     0.97031   0.82023   0.80048   0.00000  Uiso   1.00
H991   H     0.52965   0.67989   0.80044   0.00000  Uiso   1.00
H992   H     0.61038   0.82065   0.86368   0.00000  Uiso   1.00
N993   N     0.75000   0.62624   0.83333   0.00000  Uiso   1.00
N994   N     0.75000   0.87377   0.83333   0.00000  Uiso   1.00
O995   O     0.68453   0.78974   0.83334   0.00000  Uiso   1.00
O996   O     0.83095   0.97043   0.83536   0.00000  Uiso   1.00
O997   O     0.79399   0.52977   0.90943   0.00000  Uiso   1.00
O998   O     0.66913   0.97036   0.82733   0.00000  Uiso   1.00
O999   O     0.81547   0.71026   0.83333   0.00000  Uiso   1.00
O1000  O     0.81547   0.78974   0.83333   0.00000  Uiso   1.00
O1001  O     0.68453   0.71026   0.83334   0.00000  Uiso   1.00
O1002  O     0.75000   0.78973   0.76178   0.00000  Uiso   1.00
O1003  O     0.75000   0.71027   0.90489   0.00000  Uiso   1.00
O1004  O     0.75000   0.78973   0.90489   0.00000  Uiso   1.00
O1005  O     0.75000   0.71027   0.76178   0.00000  Uiso   1.00
O1006  O     0.71269   0.52681   0.75316   0.00000  Uiso   1.00
Zn1007 Zn    0.75000   0.80307   0.83333   0.00000  Uiso   1.00
Zn1008 Zn    0.75000   0.69693   0.83333   0.00000  Uiso   1.00
loop_
_geom_bond_atom_site_label_1
_geom_bond_atom_site_label_2
_geom_bond_distance
_geom_bond_site_symmetry_2
_ccdc_geom_bond_type
C1     O77     1.286   .     A
C1     C18     1.437   .     S
C1     O71     1.286   .     A
C2     O74     1.382   .     S
C2     C6      1.416   .     A
C2     C33     1.411   .     A
C3     C7      1.364   .     S
C3     O81     1.273   .     A
C3     O78     1.274   .     A
C4     C8      1.364   .     S
C4     O80     1.274   .     A
C4     O79     1.274   .     A
C5     C36     1.417   .     A
C5     C34     1.415   .     A
C5     C174    1.512   1_545 S
C6     C35     1.414   .     A
C6     C173    1.512   .     S
C7     C680    1.164   1_554 S
C8     C343    1.164   .     S
C9     H64     1.083   .     S
C9     C14     1.380   .     A
C9     C20     1.399   .     A
C10    C15     1.380   .     A
C10    C21     1.399   .     A
C10    H65     1.083   .     S
C11    H66     1.083   .     S
C11    C21     1.399   .     A
C11    C16     1.380   .     A
C12    O76     1.286   .     A
C12    C19     1.437   .     S
C12    O75     1.286   .     A
C13    H67     1.083   .     S
C13    C20     1.399   .     A
C13    C17     1.380   .     A
C14    C18     1.399   .     A
C14    H68     1.084   .     S
C15    C19     1.399   .     A
C15    H38     1.084   .     S
C16    C19     1.399   .     A
C16    H39     1.084   .     S
C17    H40     1.084   .     S
C17    C18     1.399   .     A
C20    C105    1.444   1_455 S
C21    C104    1.444   .     S
C22    O82     1.412   .     S
C22    H41     1.112   .     S
C22    C24     1.521   .     S
C22    H42     1.115   .     S
C23    N69     1.362   .     A
C23    H37     1.079   .     S
C23    C34     1.425   .     A
C24    H43     1.110   .     S
C24    H212    1.111   1_545 S
C24    H213    1.111   1_545 S
C25    H47     1.115   .     S
C25    O72     1.411   .     S
C25    C194    1.520   .     S
C25    H214    1.113   .     S
C26    H50     1.111   .     S
C26    H51     1.111   .     S
C26    C193    1.520   1_545 S
C26    H217    1.111   1_545 S
C27    H53     1.115   .     S
C27    O73     1.410   .     S
C27    C196    1.520   1_545 S
C27    H220    1.111   1_545 S
C28    H56     1.111   .     S
C28    C195    1.520   .     S
C28    H558    1.110   .     S
C28    H391    1.110   .     S
C29    O74     1.410   .     S
C29    H58     1.115   .     S
C29    C198    1.520   .     S
C29    H225    1.112   .     S
C30    H60     1.111   .     S
C30    H61     1.111   .     S
C30    C197    1.520   1_545 S
C30    H230    1.111   1_545 S
C31    N70     1.364   .     A
C31    H48     1.080   .     S
C31    C35     1.410   .     A
C32    C36     1.408   .     A
C32    N69     1.361   .     A
C32    H59     1.082   .     S
C33    H63     1.080   .     S
C33    N70     1.364   .     A
C34    O82     1.394   .     S
C35    O72     1.381   .     S
C36    O73     1.382   .     S
H44    C192    1.111   .     S
H45    C192    1.111   .     S
H46    C193    1.113   1_545 S
H49    C194    1.111   .     S
H52    C195    1.111   .     S
H54    C868    1.110   1_544 S
H55    C700    1.110   1_554 S
H57    C197    1.112   1_545 S
H62    C198    1.111   .     S
N69    Zn84    2.004   .     S
N70    Zn83    2.004   .     S
O71    Zn83    2.002   .     S
O75    Zn84    2.002   .     S
O76    Zn83    2.001   .     S
O77    Zn84    2.001   .     S
O78    Zn83    1.949   .     S
O79    Zn84    1.949   .     S
O80    Zn83    1.949   .     S
O81    Zn84    1.949   .     S
C85    O161    1.286   .     A
C85    C102    1.437   .     S
C85    O155    1.286   .     A
C86    O158    1.382   .     S
C86    C90     1.416   .     A
C86    C117    1.411   .     A
C87    C91     1.364   .     S
C87    O165    1.273   .     A
C87    O162    1.274   .     A
C88    C92     1.364   .     S
C88    O164    1.274   .     A
C88    O163    1.274   .     A
C89    C120    1.417   .     A
C89    C118    1.415   .     A
C89    C258    1.512   1_545 S
C90    C119    1.414   .     A
C90    C257    1.512   .     S
C91    C764    1.164   1_554 S
C92    C427    1.164   .     S
C93    H148    1.083   .     S
C93    C98     1.380   .     A
C93    C104    1.399   .     A
C94    C99     1.380   .     A
C94    C105    1.399   .     A
C94    H149    1.083   .     S
C95    H150    1.083   .     S
C95    C105    1.399   .     A
C95    C100    1.380   .     A
C96    O160    1.286   .     A
C96    C103    1.437   .     S
C96    O159    1.286   .     A
C97    H151    1.083   .     S
C97    C104    1.399   .     A
C97    C101    1.380   .     A
C98    C102    1.399   .     A
C98    H152    1.084   .     S
C99    C103    1.399   .     A
C99    H122    1.084   .     S
C100   C103    1.399   .     A
C100   H123    1.084   .     S
C101   H124    1.084   .     S
C101   C102    1.399   .     A
C105   C20     1.444   1_655 S
C106   O166    1.412   .     S
C106   H125    1.112   .     S
C106   C108    1.521   .     S
C106   H126    1.115   .     S
C107   N153    1.362   .     A
C107   H121    1.079   .     S
C107   C118    1.425   .     A
C108   H127    1.110   .     S
C108   H296    1.111   1_545 S
C108   H297    1.111   1_545 S
C109   H131    1.115   .     S
C109   O156    1.411   .     S
C109   C278    1.520   .     S
C109   H298    1.113   .     S
C110   H134    1.111   .     S
C110   H135    1.111   .     S
C110   C277    1.520   1_545 S
C110   H301    1.111   1_545 S
C111   H137    1.115   .     S
C111   O157    1.410   .     S
C111   C280    1.520   1_545 S
C111   H304    1.111   1_545 S
C112   H140    1.111   .     S
C112   C279    1.520   .     S
C112   H642    1.110   .     S
C112   H475    1.110   .     S
C113   O158    1.410   .     S
C113   H142    1.115   .     S
C113   C282    1.520   .     S
C113   H309    1.112   .     S
C114   H144    1.111   .     S
C114   H145    1.111   .     S
C114   C281    1.520   1_545 S
C114   H314    1.111   1_545 S
C115   N154    1.364   .     A
C115   H132    1.080   .     S
C115   C119    1.410   .     A
C116   C120    1.408   .     A
C116   N153    1.361   .     A
C116   H143    1.082   .     S
C117   H147    1.080   .     S
C117   N154    1.364   .     A
C118   O166    1.394   .     S
C119   O156    1.381   .     S
C120   O157    1.382   .     S
H128   C276    1.111   .     S
H129   C276    1.111   .     S
H130   C277    1.113   1_545 S
H133   C278    1.111   .     S
H136   C279    1.111   .     S
H138   C952    1.110   1_544 S
H139   C784    1.110   1_554 S
H141   C281    1.112   1_545 S
H146   C282    1.111   .     S
N153   Zn168   2.004   .     S
N154   Zn167   2.004   .     S
O155   Zn167   2.002   .     S
O159   Zn168   2.002   .     S
O160   Zn167   2.001   .     S
O161   Zn168   2.001   .     S
O162   Zn167   1.949   .     S
O163   Zn168   1.949   .     S
O164   Zn167   1.949   .     S
O165   Zn168   1.949   .     S
C169   O245    1.286   .     A
C169   C186    1.437   .     S
C169   O239    1.286   .     A
C170   O242    1.382   .     S
C170   C174    1.416   .     A
C170   C201    1.411   .     A
C171   C175    1.364   .     S
C171   O249    1.273   .     A
C171   O246    1.274   .     A
C172   C176    1.364   .     S
C172   O248    1.274   .     A
C172   O247    1.274   .     A
C173   C204    1.417   .     A
C173   C202    1.415   .     A
C174   C203    1.414   .     A
C174   C5      1.512   1_565 S
C175   C848    1.164   1_554 S
C176   C511    1.164   .     S
C177   H232    1.083   .     S
C177   C182    1.380   .     A
C177   C188    1.399   .     A
C178   C183    1.380   .     A
C178   C189    1.399   .     A
C178   H233    1.083   .     S
C179   H234    1.083   .     S
C179   C189    1.399   .     A
C179   C184    1.380   .     A
C180   O244    1.286   .     A
C180   C187    1.437   .     S
C180   O243    1.286   .     A
C181   H235    1.083   .     S
C181   C188    1.399   .     A
C181   C185    1.380   .     A
C182   C186    1.399   .     A
C182   H236    1.084   .     S
C183   C187    1.399   .     A
C183   H206    1.084   .     S
C184   C187    1.399   .     A
C184   H207    1.084   .     S
C185   H208    1.084   .     S
C185   C186    1.399   .     A
C188   C273    1.444   1_455 S
C189   C272    1.444   .     S
C190   O250    1.412   .     S
C190   H209    1.112   .     S
C190   C192    1.521   .     S
C190   H210    1.115   .     S
C191   N237    1.362   .     A
C191   H205    1.079   .     S
C191   C202    1.425   .     A
C192   H211    1.110   .     S
C193   H215    1.115   .     S
C193   O240    1.411   .     S
C193   C26     1.520   1_565 S
C193   H46     1.113   1_565 S
C194   H218    1.111   .     S
C194   H219    1.111   .     S
C195   H221    1.115   .     S
C195   O241    1.410   .     S
C196   H224    1.111   .     S
C196   C27     1.520   1_565 S
C196   H390    1.110   1_565 S
C196   H559    1.110   .     S
C197   O242    1.410   .     S
C197   H226    1.115   .     S
C197   C30     1.520   1_565 S
C197   H57     1.112   1_565 S
C198   H228    1.111   .     S
C198   H229    1.111   .     S
C199   N238    1.364   .     A
C199   H216    1.080   .     S
C199   C203    1.410   .     A
C200   C204    1.408   .     A
C200   N237    1.361   .     A
C200   H227    1.082   .     S
C201   H231    1.080   .     S
C201   N238    1.364   .     A
C202   O250    1.394   .     S
C203   O240    1.381   .     S
C204   O241    1.382   .     S
H212   C24     1.111   1_565 S
H213   C24     1.111   1_565 S
H217   C26     1.111   1_565 S
H220   C27     1.111   1_565 S
H222   C700    1.110   1_554 S
H223   C868    1.110   1_554 S
H230   C30     1.111   1_565 S
N237   Zn252   2.004   .     S
N238   Zn251   2.004   .     S
O239   Zn251   2.002   .     S
O243   Zn252   2.002   .     S
O244   Zn251   2.001   .     S
O245   Zn252   2.001   .     S
O246   Zn251   1.949   .     S
O247   Zn252   1.949   .     S
O248   Zn251   1.949   .     S
O249   Zn252   1.949   .     S
C253   O329    1.286   .     A
C253   C270    1.437   .     S
C253   O323    1.286   .     A
C254   O326    1.382   .     S
C254   C258    1.416   .     A
C254   C285    1.411   .     A
C255   C259    1.364   .     S
C255   O333    1.273   .     A
C255   O330    1.274   .     A
C256   C260    1.364   .     S
C256   O332    1.274   .     A
C256   O331    1.274   .     A
C257   C288    1.417   .     A
C257   C286    1.415   .     A
C258   C287    1.414   .     A
C258   C89     1.512   1_565 S
C259   C932    1.164   1_554 S
C260   C595    1.164   .     S
C261   H316    1.083   .     S
C261   C266    1.380   .     A
C261   C272    1.399   .     A
C262   C267    1.380   .     A
C262   C273    1.399   .     A
C262   H317    1.083   .     S
C263   H318    1.083   .     S
C263   C273    1.399   .     A
C263   C268    1.380   .     A
C264   O328    1.286   .     A
C264   C271    1.437   .     S
C264   O327    1.286   .     A
C265   H319    1.083   .     S
C265   C272    1.399   .     A
C265   C269    1.380   .     A
C266   C270    1.399   .     A
C266   H320    1.084   .     S
C267   C271    1.399   .     A
C267   H290    1.084   .     S
C268   C271    1.399   .     A
C268   H291    1.084   .     S
C269   H292    1.084   .     S
C269   C270    1.399   .     A
C273   C188    1.444   1_655 S
C274   O334    1.412   .     S
C274   H293    1.112   .     S
C274   C276    1.521   .     S
C274   H294    1.115   .     S
C275   N321    1.362   .     A
C275   H289    1.079   .     S
C275   C286    1.425   .     A
C276   H295    1.110   .     S
C277   H299    1.115   .     S
C277   O324    1.411   .     S
C277   C110    1.520   1_565 S
C277   H130    1.113   1_565 S
C278   H302    1.111   .     S
C278   H303    1.111   .     S
C279   H305    1.115   .     S
C279   O325    1.410   .     S
C280   H308    1.111   .     S
C280   C111    1.520   1_565 S
C280   H474    1.110   1_565 S
C280   H643    1.110   .     S
C281   O326    1.410   .     S
C281   H310    1.115   .     S
C281   C114    1.520   1_565 S
C281   H141    1.112   1_565 S
C282   H312    1.111   .     S
C282   H313    1.111   .     S
C283   N322    1.364   .     A
C283   H300    1.080   .     S
C283   C287    1.410   .     A
C284   C288    1.408   .     A
C284   N321    1.361   .     A
C284   H311    1.082   .     S
C285   H315    1.080   .     S
C285   N322    1.364   .     A
C286   O334    1.394   .     S
C287   O324    1.381   .     S
C288   O325    1.382   .     S
H296   C108    1.111   1_565 S
H297   C108    1.111   1_565 S
H301   C110    1.111   1_565 S
H304   C111    1.111   1_565 S
H306   C784    1.110   1_554 S
H307   C952    1.110   1_554 S
H314   C114    1.111   1_565 S
N321   Zn336   2.004   .     S
N322   Zn335   2.004   .     S
O323   Zn335   2.002   .     S
O327   Zn336   2.002   .     S
O328   Zn335   2.001   .     S
O329   Zn336   2.001   .     S
O330   Zn335   1.949   .     S
O331   Zn336   1.949   .     S
O332   Zn335   1.949   .     S
O333   Zn336   1.949   .     S
C337   O413    1.286   .     A
C337   C354    1.437   .     S
C337   O407    1.286   .     A
C338   O410    1.382   .     S
C338   C342    1.416   .     A
C338   C369    1.411   .     A
C339   C343    1.364   .     S
C339   O417    1.273   .     A
C339   O414    1.274   .     A
C340   C344    1.364   .     S
C340   O416    1.274   .     A
C340   O415    1.274   .     A
C341   C372    1.417   .     A
C341   C370    1.415   .     A
C341   C510    1.512   1_545 S
C342   C371    1.414   .     A
C342   C509    1.512   .     S
C344   C679    1.164   .     S
C345   H400    1.083   .     S
C345   C350    1.380   .     A
C345   C356    1.399   .     A
C346   C351    1.380   .     A
C346   C357    1.399   .     A
C346   H401    1.083   .     S
C347   H402    1.083   .     S
C347   C357    1.399   .     A
C347   C352    1.380   .     A
C348   O412    1.286   .     A
C348   C355    1.437   .     S
C348   O411    1.286   .     A
C349   H403    1.083   .     S
C349   C356    1.399   .     A
C349   C353    1.380   .     A
C350   C354    1.399   .     A
C350   H404    1.084   .     S
C351   C355    1.399   .     A
C351   H374    1.084   .     S
C352   C355    1.399   .     A
C352   H375    1.084   .     S
C353   H376    1.084   .     S
C353   C354    1.399   .     A
C356   C441    1.444   1_455 S
C357   C440    1.444   .     S
C358   O418    1.412   .     S
C358   H377    1.112   .     S
C358   C360    1.521   .     S
C358   H378    1.115   .     S
C359   N405    1.362   .     A
C359   H373    1.079   .     S
C359   C370    1.425   .     A
C360   H379    1.110   .     S
C360   H548    1.111   1_545 S
C360   H549    1.111   1_545 S
C361   H383    1.115   .     S
C361   O408    1.411   .     S
C361   C530    1.520   .     S
C361   H550    1.113   .     S
C362   H386    1.111   .     S
C362   H387    1.111   .     S
C362   C529    1.520   1_545 S
C362   H553    1.111   1_545 S
C363   H389    1.115   .     S
C363   O409    1.410   .     S
C363   C532    1.520   1_545 S
C363   H556    1.111   1_545 S
C364   H392    1.111   .     S
C364   C531    1.520   .     S
C364   H894    1.110   .     S
C364   H727    1.110   .     S
C365   O410    1.410   .     S
C365   H394    1.115   .     S
C365   C534    1.520   .     S
C365   H561    1.112   .     S
C366   H396    1.111   .     S
C366   H397    1.111   .     S
C366   C533    1.520   1_545 S
C366   H566    1.111   1_545 S
C367   N406    1.364   .     A
C367   H384    1.080   .     S
C367   C371    1.410   .     A
C368   C372    1.408   .     A
C368   N405    1.361   .     A
C368   H395    1.082   .     S
C369   H399    1.080   .     S
C369   N406    1.364   .     A
C370   O418    1.394   .     S
C371   O408    1.381   .     S
C372   O409    1.382   .     S
H380   C528    1.111   .     S
H381   C528    1.111   .     S
H382   C529    1.113   1_545 S
H385   C530    1.111   .     S
H388   C531    1.111   .     S
H390   C196    1.110   1_545 S
H393   C533    1.112   1_545 S
H398   C534    1.111   .     S
N405   Zn420   2.004   .     S
N406   Zn419   2.004   .     S
O407   Zn419   2.002   .     S
O411   Zn420   2.002   .     S
O412   Zn419   2.001   .     S
O413   Zn420   2.001   .     S
O414   Zn419   1.949   .     S
O415   Zn420   1.949   .     S
O416   Zn419   1.949   .     S
O417   Zn420   1.949   .     S
C421   O497    1.286   .     A
C421   C438    1.437   .     S
C421   O491    1.286   .     A
C422   O494    1.382   .     S
C422   C426    1.416   .     A
C422   C453    1.411   .     A
C423   C427    1.364   .     S
C423   O501    1.273   .     A
C423   O498    1.274   .     A
C424   C428    1.364   .     S
C424   O500    1.274   .     A
C424   O499    1.274   .     A
C425   C456    1.417   .     A
C425   C454    1.415   .     A
C425   C594    1.512   1_545 S
C426   C455    1.414   .     A
C426   C593    1.512   .     S
C428   C763    1.164   .     S
C429   H484    1.083   .     S
C429   C434    1.380   .     A
C429   C440    1.399   .     A
C430   C435    1.380   .     A
C430   C441    1.399   .     A
C430   H485    1.083   .     S
C431   H486    1.083   .     S
C431   C441    1.399   .     A
C431   C436    1.380   .     A
C432   O496    1.286   .     A
C432   C439    1.437   .     S
C432   O495    1.286   .     A
C433   H487    1.083   .     S
C433   C440    1.399   .     A
C433   C437    1.380   .     A
C434   C438    1.399   .     A
C434   H488    1.084   .     S
C435   C439    1.399   .     A
C435   H458    1.084   .     S
C436   C439    1.399   .     A
C436   H459    1.084   .     S
C437   H460    1.084   .     S
C437   C438    1.399   .     A
C441   C356    1.444   1_655 S
C442   O502    1.412   .     S
C442   H461    1.112   .     S
C442   C444    1.521   .     S
C442   H462    1.115   .     S
C443   N489    1.362   .     A
C443   H457    1.079   .     S
C443   C454    1.425   .     A
C444   H463    1.110   .     S
C444   H632    1.111   1_545 S
C444   H633    1.111   1_545 S
C445   H467    1.115   .     S
C445   O492    1.411   .     S
C445   C614    1.520   .     S
C445   H634    1.113   .     S
C446   H470    1.111   .     S
C446   H471    1.111   .     S
C446   C613    1.520   1_545 S
C446   H637    1.111   1_545 S
C447   H473    1.115   .     S
C447   O493    1.410   .     S
C447   C616    1.520   1_545 S
C447   H640    1.111   1_545 S
C448   H476    1.111   .     S
C448   C615    1.520   .     S
C448   H978    1.110   .     S
C448   H811    1.110   .     S
C449   O494    1.410   .     S
C449   H478    1.115   .     S
C449   C618    1.520   .     S
C449   H645    1.112   .     S
C450   H480    1.111   .     S
C450   H481    1.111   .     S
C450   C617    1.520   1_545 S
C450   H650    1.111   1_545 S
C451   N490    1.364   .     A
C451   H468    1.080   .     S
C451   C455    1.410   .     A
C452   C456    1.408   .     A
C452   N489    1.361   .     A
C452   H479    1.082   .     S
C453   H483    1.080   .     S
C453   N490    1.364   .     A
C454   O502    1.394   .     S
C455   O492    1.381   .     S
C456   O493    1.382   .     S
H464   C612    1.111   .     S
H465   C612    1.111   .     S
H466   C613    1.113   1_545 S
H469   C614    1.111   .     S
H472   C615    1.111   .     S
H474   C280    1.110   1_545 S
H477   C617    1.112   1_545 S
H482   C618    1.111   .     S
N489   Zn504   2.004   .     S
N490   Zn503   2.004   .     S
O491   Zn503   2.002   .     S
O495   Zn504   2.002   .     S
O496   Zn503   2.001   .     S
O497   Zn504   2.001   .     S
O498   Zn503   1.949   .     S
O499   Zn504   1.949   .     S
O500   Zn503   1.949   .     S
O501   Zn504   1.949   .     S
C505   O581    1.286   .     A
C505   C522    1.437   .     S
C505   O575    1.286   .     A
C506   O578    1.382   .     S
C506   C510    1.416   .     A
C506   C537    1.411   .     A
C507   C511    1.364   .     S
C507   O585    1.273   .     A
C507   O582    1.274   .     A
C508   C512    1.364   .     S
C508   O584    1.274   .     A
C508   O583    1.274   .     A
C509   C540    1.417   .     A
C509   C538    1.415   .     A
C510   C539    1.414   .     A
C510   C341    1.512   1_565 S
C512   C847    1.164   .     S
C513   H568    1.083   .     S
C513   C518    1.380   .     A
C513   C524    1.399   .     A
C514   C519    1.380   .     A
C514   C525    1.399   .     A
C514   H569    1.083   .     S
C515   H570    1.083   .     S
C515   C525    1.399   .     A
C515   C520    1.380   .     A
C516   O580    1.286   .     A
C516   C523    1.437   .     S
C516   O579    1.286   .     A
C517   H571    1.083   .     S
C517   C524    1.399   .     A
C517   C521    1.380   .     A
C518   C522    1.399   .     A
C518   H572    1.084   .     S
C519   C523    1.399   .     A
C519   H542    1.084   .     S
C520   C523    1.399   .     A
C520   H543    1.084   .     S
C521   H544    1.084   .     S
C521   C522    1.399   .     A
C524   C609    1.444   1_455 S
C525   C608    1.444   .     S
C526   O586    1.412   .     S
C526   H545    1.112   .     S
C526   C528    1.521   .     S
C526   H546    1.115   .     S
C527   N573    1.362   .     A
C527   H541    1.079   .     S
C527   C538    1.425   .     A
C528   H547    1.110   .     S
C529   H551    1.115   .     S
C529   O576    1.411   .     S
C529   C362    1.520   1_565 S
C529   H382    1.113   1_565 S
C530   H554    1.111   .     S
C530   H555    1.111   .     S
C531   H557    1.115   .     S
C531   O577    1.410   .     S
C532   H560    1.111   .     S
C532   C363    1.520   1_565 S
C532   H726    1.110   1_565 S
C532   H895    1.110   .     S
C533   O578    1.410   .     S
C533   H562    1.115   .     S
C533   C366    1.520   1_565 S
C533   H393    1.112   1_565 S
C534   H564    1.111   .     S
C534   H565    1.111   .     S
C535   N574    1.364   .     A
C535   H552    1.080   .     S
C535   C539    1.410   .     A
C536   C540    1.408   .     A
C536   N573    1.361   .     A
C536   H563    1.082   .     S
C537   H567    1.080   .     S
C537   N574    1.364   .     A
C538   O586    1.394   .     S
C539   O576    1.381   .     S
C540   O577    1.382   .     S
H548   C360    1.111   1_565 S
H549   C360    1.111   1_565 S
H553   C362    1.111   1_565 S
H556   C363    1.111   1_565 S
H566   C366    1.111   1_565 S
N573   Zn588   2.004   .     S
N574   Zn587   2.004   .     S
O575   Zn587   2.002   .     S
O579   Zn588   2.002   .     S
O580   Zn587   2.001   .     S
O581   Zn588   2.001   .     S
O582   Zn587   1.949   .     S
O583   Zn588   1.949   .     S
O584   Zn587   1.949   .     S
O585   Zn588   1.949   .     S
C589   O665    1.286   .     A
C589   C606    1.437   .     S
C589   O659    1.286   .     A
C590   O662    1.382   .     S
C590   C594    1.416   .     A
C590   C621    1.411   .     A
C591   C595    1.364   .     S
C591   O669    1.273   .     A
C591   O666    1.274   .     A
C592   C596    1.364   .     S
C592   O668    1.274   .     A
C592   O667    1.274   .     A
C593   C624    1.417   .     A
C593   C622    1.415   .     A
C594   C623    1.414   .     A
C594   C425    1.512   1_565 S
C596   C931    1.164   .     S
C597   H652    1.083   .     S
C597   C602    1.380   .     A
C597   C608    1.399   .     A
C598   C603    1.380   .     A
C598   C609    1.399   .     A
C598   H653    1.083   .     S
C599   H654    1.083   .     S
C599   C609    1.399   .     A
C599   C604    1.380   .     A
C600   O664    1.286   .     A
C600   C607    1.437   .     S
C600   O663    1.286   .     A
C601   H655    1.083   .     S
C601   C608    1.399   .     A
C601   C605    1.380   .     A
C602   C606    1.399   .     A
C602   H656    1.084   .     S
C603   C607    1.399   .     A
C603   H626    1.084   .     S
C604   C607    1.399   .     A
C604   H627    1.084   .     S
C605   H628    1.084   .     S
C605   C606    1.399   .     A
C609   C524    1.444   1_655 S
C610   O670    1.412   .     S
C610   H629    1.112   .     S
C610   C612    1.521   .     S
C610   H630    1.115   .     S
C611   N657    1.362   .     A
C611   H625    1.079   .     S
C611   C622    1.425   .     A
C612   H631    1.110   .     S
C613   H635    1.115   .     S
C613   O660    1.411   .     S
C613   C446    1.520   1_565 S
C613   H466    1.113   1_565 S
C614   H638    1.111   .     S
C614   H639    1.111   .     S
C615   H641    1.115   .     S
C615   O661    1.410   .     S
C616   H644    1.111   .     S
C616   C447    1.520   1_565 S
C616   H810    1.110   1_565 S
C616   H979    1.110   .     S
C617   O662    1.410   .     S
C617   H646    1.115   .     S
C617   C450    1.520   1_565 S
C617   H477    1.112   1_565 S
C618   H648    1.111   .     S
C618   H649    1.111   .     S
C619   N658    1.364   .     A
C619   H636    1.080   .     S
C619   C623    1.410   .     A
C620   C624    1.408   .     A
C620   N657    1.361   .     A
C620   H647    1.082   .     S
C621   H651    1.080   .     S
C621   N658    1.364   .     A
C622   O670    1.394   .     S
C623   O660    1.381   .     S
C624   O661    1.382   .     S
H632   C444    1.111   1_565 S
H633   C444    1.111   1_565 S
H637   C446    1.111   1_565 S
H640   C447    1.111   1_565 S
H650   C450    1.111   1_565 S
N657   Zn672   2.004   .     S
N658   Zn671   2.004   .     S
O659   Zn671   2.002   .     S
O663   Zn672   2.002   .     S
O664   Zn671   2.001   .     S
O665   Zn672   2.001   .     S
O666   Zn671   1.949   .     S
O667   Zn672   1.949   .     S
O668   Zn671   1.949   .     S
O669   Zn672   1.949   .     S
C673   O749    1.286   .     A
C673   C690    1.437   .     S
C673   O743    1.286   .     A
C674   O746    1.382   .     S
C674   C678    1.416   .     A
C674   C705    1.411   .     A
C675   C679    1.364   .     S
C675   O753    1.273   .     A
C675   O750    1.274   .     A
C676   C680    1.364   .     S
C676   O752    1.274   .     A
C676   O751    1.274   .     A
C677   C708    1.417   .     A
C677   C706    1.415   .     A
C677   C846    1.512   1_545 S
C678   C707    1.414   .     A
C678   C845    1.512   .     S
C680   C7      1.164   1_556 S
C681   H736    1.083   .     S
C681   C686    1.380   .     A
C681   C692    1.399   .     A
C682   C687    1.380   .     A
C682   C693    1.399   .     A
C682   H737    1.083   .     S
C683   H738    1.083   .     S
C683   C693    1.399   .     A
C683   C688    1.380   .     A
C684   O748    1.286   .     A
C684   C691    1.437   .     S
C684   O747    1.286   .     A
C685   H739    1.083   .     S
C685   C692    1.399   .     A
C685   C689    1.380   .     A
C686   C690    1.399   .     A
C686   H740    1.084   .     S
C687   C691    1.399   .     A
C687   H710    1.084   .     S
C688   C691    1.399   .     A
C688   H711    1.084   .     S
C689   H712    1.084   .     S
C689   C690    1.399   .     A
C692   C777    1.444   1_455 S
C693   C776    1.444   .     S
C694   O754    1.412   .     S
C694   H713    1.112   .     S
C694   C696    1.521   .     S
C694   H714    1.115   .     S
C695   N741    1.362   .     A
C695   H709    1.079   .     S
C695   C706    1.425   .     A
C696   H715    1.110   .     S
C696   H884    1.111   1_545 S
C696   H885    1.111   1_545 S
C697   H719    1.115   .     S
C697   O744    1.411   .     S
C697   C866    1.520   .     S
C697   H886    1.113   .     S
C698   H722    1.111   .     S
C698   H723    1.111   .     S
C698   C865    1.520   1_545 S
C698   H889    1.111   1_545 S
C699   H725    1.115   .     S
C699   O745    1.410   .     S
C699   C868    1.520   1_545 S
C699   H892    1.111   1_545 S
C700   H728    1.111   .     S
C700   C867    1.520   .     S
C700   H222    1.110   1_556 S
C700   H55     1.110   1_556 S
C701   O746    1.410   .     S
C701   H730    1.115   .     S
C701   C870    1.520   .     S
C701   H897    1.112   .     S
C702   H732    1.111   .     S
C702   H733    1.111   .     S
C702   C869    1.520   1_545 S
C702   H902    1.111   1_545 S
C703   N742    1.364   .     A
C703   H720    1.080   .     S
C703   C707    1.410   .     A
C704   C708    1.408   .     A
C704   N741    1.361   .     A
C704   H731    1.082   .     S
C705   H735    1.080   .     S
C705   N742    1.364   .     A
C706   O754    1.394   .     S
C707   O744    1.381   .     S
C708   O745    1.382   .     S
H716   C864    1.111   .     S
H717   C864    1.111   .     S
H718   C865    1.113   1_545 S
H721   C866    1.111   .     S
H724   C867    1.111   .     S
H726   C532    1.110   1_545 S
H729   C869    1.112   1_545 S
H734   C870    1.111   .     S
N741   Zn756   2.004   .     S
N742   Zn755   2.004   .     S
O743   Zn755   2.002   .     S
O747   Zn756   2.002   .     S
O748   Zn755   2.001   .     S
O749   Zn756   2.001   .     S
O750   Zn755   1.949   .     S
O751   Zn756   1.949   .     S
O752   Zn755   1.949   .     S
O753   Zn756   1.949   .     S
C757   O833    1.286   .     A
C757   C774    1.437   .     S
C757   O827    1.286   .     A
C758   O830    1.382   .     S
C758   C762    1.416   .     A
C758   C789    1.411   .     A
C759   C763    1.364   .     S
C759   O837    1.273   .     A
C759   O834    1.274   .     A
C760   C764    1.364   .     S
C760   O836    1.274   .     A
C760   O835    1.274   .     A
C761   C792    1.417   .     A
C761   C790    1.415   .     A
C761   C930    1.512   1_545 S
C762   C791    1.414   .     A
C762   C929    1.512   .     S
C764   C91     1.164   1_556 S
C765   H820    1.083   .     S
C765   C770    1.380   .     A
C765   C776    1.399   .     A
C766   C771    1.380   .     A
C766   C777    1.399   .     A
C766   H821    1.083   .     S
C767   H822    1.083   .     S
C767   C777    1.399   .     A
C767   C772    1.380   .     A
C768   O832    1.286   .     A
C768   C775    1.437   .     S
C768   O831    1.286   .     A
C769   H823    1.083   .     S
C769   C776    1.399   .     A
C769   C773    1.380   .     A
C770   C774    1.399   .     A
C770   H824    1.084   .     S
C771   C775    1.399   .     A
C771   H794    1.084   .     S
C772   C775    1.399   .     A
C772   H795    1.084   .     S
C773   H796    1.084   .     S
C773   C774    1.399   .     A
C777   C692    1.444   1_655 S
C778   O838    1.412   .     S
C778   H797    1.112   .     S
C778   C780    1.521   .     S
C778   H798    1.115   .     S
C779   N825    1.362   .     A
C779   H793    1.079   .     S
C779   C790    1.425   .     A
C780   H799    1.110   .     S
C780   H968    1.111   1_545 S
C780   H969    1.111   1_545 S
C781   H803    1.115   .     S
C781   O828    1.411   .     S
C781   C950    1.520   .     S
C781   H970    1.113   .     S
C782   H806    1.111   .     S
C782   H807    1.111   .     S
C782   C949    1.520   1_545 S
C782   H973    1.111   1_545 S
C783   H809    1.115   .     S
C783   O829    1.410   .     S
C783   C952    1.520   1_545 S
C783   H976    1.111   1_545 S
C784   H812    1.111   .     S
C784   C951    1.520   .     S
C784   H306    1.110   1_556 S
C784   H139    1.110   1_556 S
C785   O830    1.410   .     S
C785   H814    1.115   .     S
C785   C954    1.520   .     S
C785   H981    1.112   .     S
C786   H816    1.111   .     S
C786   H817    1.111   .     S
C786   C953    1.520   1_545 S
C786   H986    1.111   1_545 S
C787   N826    1.364   .     A
C787   H804    1.080   .     S
C787   C791    1.410   .     A
C788   C792    1.408   .     A
C788   N825    1.361   .     A
C788   H815    1.082   .     S
C789   H819    1.080   .     S
C789   N826    1.364   .     A
C790   O838    1.394   .     S
C791   O828    1.381   .     S
C792   O829    1.382   .     S
H800   C948    1.111   .     S
H801   C948    1.111   .     S
H802   C949    1.113   1_545 S
H805   C950    1.111   .     S
H808   C951    1.111   .     S
H810   C616    1.110   1_545 S
H813   C953    1.112   1_545 S
H818   C954    1.111   .     S
N825   Zn840   2.004   .     S
N826   Zn839   2.004   .     S
O827   Zn839   2.002   .     S
O831   Zn840   2.002   .     S
O832   Zn839   2.001   .     S
O833   Zn840   2.001   .     S
O834   Zn839   1.949   .     S
O835   Zn840   1.949   .     S
O836   Zn839   1.949   .     S
O837   Zn840   1.949   .     S
C841   O917    1.286   .     A
C841   C858    1.437   .     S
C841   O911    1.286   .     A
C842   O914    1.382   .     S
C842   C846    1.416   .     A
C842   C873    1.411   .     A
C843   C847    1.364   .     S
C843   O921    1.273   .     A
C843   O918    1.274   .     A
C844   C848    1.364   .     S
C844   O920    1.274   .     A
C844   O919    1.274   .     A
C845   C876    1.417   .     A
C845   C874    1.415   .     A
C846   C875    1.414   .     A
C846   C677    1.512   1_565 S
C848   C175    1.164   1_556 S
C849   H904    1.083   .     S
C849   C854    1.380   .     A
C849   C860    1.399   .     A
C850   C855    1.380   .     A
C850   C861    1.399   .     A
C850   H905    1.083   .     S
C851   H906    1.083   .     S
C851   C861    1.399   .     A
C851   C856    1.380   .     A
C852   O916    1.286   .     A
C852   C859    1.437   .     S
C852   O915    1.286   .     A
C853   H907    1.083   .     S
C853   C860    1.399   .     A
C853   C857    1.380   .     A
C854   C858    1.399   .     A
C854   H908    1.084   .     S
C855   C859    1.399   .     A
C855   H878    1.084   .     S
C856   C859    1.399   .     A
C856   H879    1.084   .     S
C857   H880    1.084   .     S
C857   C858    1.399   .     A
C860   C945    1.444   1_455 S
C861   C944    1.444   .     S
C862   O922    1.412   .     S
C862   H881    1.112   .     S
C862   C864    1.521   .     S
C862   H882    1.115   .     S
C863   N909    1.362   .     A
C863   H877    1.079   .     S
C863   C874    1.425   .     A
C864   H883    1.110   .     S
C865   H887    1.115   .     S
C865   O912    1.411   .     S
C865   C698    1.520   1_565 S
C865   H718    1.113   1_565 S
C866   H890    1.111   .     S
C866   H891    1.111   .     S
C867   H893    1.115   .     S
C867   O913    1.410   .     S
C868   H896    1.111   .     S
C868   C699    1.520   1_565 S
C868   H54     1.110   1_566 S
C868   H223    1.110   1_556 S
C869   O914    1.410   .     S
C869   H898    1.115   .     S
C869   C702    1.520   1_565 S
C869   H729    1.112   1_565 S
C870   H900    1.111   .     S
C870   H901    1.111   .     S
C871   N910    1.364   .     A
C871   H888    1.080   .     S
C871   C875    1.410   .     A
C872   C876    1.408   .     A
C872   N909    1.361   .     A
C872   H899    1.082   .     S
C873   H903    1.080   .     S
C873   N910    1.364   .     A
C874   O922    1.394   .     S
C875   O912    1.381   .     S
C876   O913    1.382   .     S
H884   C696    1.111   1_565 S
H885   C696    1.111   1_565 S
H889   C698    1.111   1_565 S
H892   C699    1.111   1_565 S
H902   C702    1.111   1_565 S
N909   Zn924   2.004   .     S
N910   Zn923   2.004   .     S
O911   Zn923   2.002   .     S
O915   Zn924   2.002   .     S
O916   Zn923   2.001   .     S
O917   Zn924   2.001   .     S
O918   Zn923   1.949   .     S
O919   Zn924   1.949   .     S
O920   Zn923   1.949   .     S
O921   Zn924   1.949   .     S
C925   O1001   1.286   .     A
C925   C942    1.437   .     S
C925   O995    1.286   .     A
C926   O998    1.382   .     S
C926   C930    1.416   .     A
C926   C957    1.411   .     A
C927   C931    1.364   .     S
C927   O1005   1.273   .     A
C927   O1002   1.274   .     A
C928   C932    1.364   .     S
C928   O1004   1.274   .     A
C928   O1003   1.274   .     A
C929   C960    1.417   .     A
C929   C958    1.415   .     A
C930   C959    1.414   .     A
C930   C761    1.512   1_565 S
C932   C259    1.164   1_556 S
C933   H988    1.083   .     S
C933   C938    1.380   .     A
C933   C944    1.399   .     A
C934   C939    1.380   .     A
C934   C945    1.399   .     A
C934   H989    1.083   .     S
C935   H990    1.083   .     S
C935   C945    1.399   .     A
C935   C940    1.380   .     A
C936   O1000   1.286   .     A
C936   C943    1.437   .     S
C936   O999    1.286   .     A
C937   H991    1.083   .     S
C937   C944    1.399   .     A
C937   C941    1.380   .     A
C938   C942    1.399   .     A
C938   H992    1.084   .     S
C939   C943    1.399   .     A
C939   H962    1.084   .     S
C940   C943    1.399   .     A
C940   H963    1.084   .     S
C941   H964    1.084   .     S
C941   C942    1.399   .     A
C945   C860    1.444   1_655 S
C946   O1006   1.412   .     S
C946   H965    1.112   .     S
C946   C948    1.521   .     S
C946   H966    1.115   .     S
C947   N993    1.362   .     A
C947   H961    1.079   .     S
C947   C958    1.425   .     A
C948   H967    1.110   .     S
C949   H971    1.115   .     S
C949   O996    1.411   .     S
C949   C782    1.520   1_565 S
C949   H802    1.113   1_565 S
C950   H974    1.111   .     S
C950   H975    1.111   .     S
C951   H977    1.115   .     S
C951   O997    1.410   .     S
C952   H980    1.111   .     S
C952   C783    1.520   1_565 S
C952   H138    1.110   1_566 S
C952   H307    1.110   1_556 S
C953   O998    1.410   .     S
C953   H982    1.115   .     S
C953   C786    1.520   1_565 S
C953   H813    1.112   1_565 S
C954   H984    1.111   .     S
C954   H985    1.111   .     S
C955   N994    1.364   .     A
C955   H972    1.080   .     S
C955   C959    1.410   .     A
C956   C960    1.408   .     A
C956   N993    1.361   .     A
C956   H983    1.082   .     S
C957   H987    1.080   .     S
C957   N994    1.364   .     A
C958   O1006   1.394   .     S
C959   O996    1.381   .     S
C960   O997    1.382   .     S
H968   C780    1.111   1_565 S
H969   C780    1.111   1_565 S
H973   C782    1.111   1_565 S
H976   C783    1.111   1_565 S
H986   C786    1.111   1_565 S
N993   Zn1008  2.004   .     S
N994   Zn1007  2.004   .     S
O995   Zn1007  2.002   .     S
O999   Zn1008  2.002   .     S
O1000  Zn1007  2.001   .     S
O1001  Zn1008  2.001   .     S
O1002  Zn1007  1.949   .     S
O1003  Zn1008  1.949   .     S
O1004  Zn1007  1.949   .     S
O1005  Zn1008  1.949   .     S
