data_str_m2_o1_o17_pcu_sym.141
_audit_creation_date              2020-01-03
_audit_creation_method            'Materials Studio'
_symmetry_space_group_name_H-M    'P1'
_symmetry_Int_Tables_number       1
_symmetry_cell_setting            triclinic
loop_
_symmetry_equiv_pos_as_xyz
  x,y,z
_cell_length_a                    32.9888
_cell_length_b                    29.0223
_cell_length_c                    30.5319
_cell_angle_alpha                 88.8439
_cell_angle_beta                  91.7612
_cell_angle_gamma                 89.0962
loop_
_atom_site_label
_atom_site_type_symbol
_atom_site_fract_x
_atom_site_fract_y
_atom_site_fract_z
_atom_site_U_iso_or_equiv
_atom_site_adp_type
_atom_site_occupancy
C1     C     0.08738   0.16690   0.24858   0.00000  Uiso   1.00
C2     C     0.24568   0.16630   0.25447   0.00000  Uiso   1.00
C3     C     0.09495   0.17815   0.01730   0.00000  Uiso   1.00
C4     C     0.24328   0.18343   0.48116   0.00000  Uiso   1.00
C5     C     0.02201   0.12508   0.25380   0.00000  Uiso   1.00
C6     C     0.31125   0.20772   0.25396   0.00000  Uiso   1.00
C7     C     0.31314   0.12460   0.25633   0.00000  Uiso   1.00
C8     C     0.02008   0.20822   0.25118   0.00000  Uiso   1.00
C9     C     0.29056   0.16598   0.25579   0.00000  Uiso   1.00
C10    C     0.04261   0.16688   0.25065   0.00000  Uiso   1.00
C11    C     0.14778   0.02632   0.21637   0.00000  Uiso   1.00
C12    C     0.18560   0.30842   0.28324   0.00000  Uiso   1.00
C13    C     0.19064   0.02384   0.27902   0.00000  Uiso   1.00
C14    C     0.15104   0.31030   0.21427   0.00000  Uiso   1.00
C15    C     0.16628   0.16733   0.16453   0.00000  Uiso   1.00
C16    C     0.16929   0.16629   0.33564   0.00000  Uiso   1.00
C17    C     0.20748   0.16781   0.40920   0.00000  Uiso   1.00
C18    C     0.12962   0.17017   0.09137   0.00000  Uiso   1.00
C19    C     0.17044   0.16682   0.38454   0.00000  Uiso   1.00
C20    C     0.16640   0.16982   0.11591   0.00000  Uiso   1.00
C21    C     0.13390   0.17257   0.40617   0.00000  Uiso   1.00
C22    C     0.20314   0.17716   0.09505   0.00000  Uiso   1.00
C23    C     0.13401   0.17831   0.45180   0.00000  Uiso   1.00
C24    C     0.20487   0.17962   0.04869   0.00000  Uiso   1.00
C25    C     0.17027   0.17551   0.47694   0.00000  Uiso   1.00
C26    C     0.16860   0.17536   0.02351   0.00000  Uiso   1.00
C27    C     0.20764   0.17485   0.45551   0.00000  Uiso   1.00
C28    C     0.13045   0.17301   0.04453   0.00000  Uiso   1.00
C29    C     0.09802   0.18813   0.47274   0.00000  Uiso   1.00
C30    C     0.24158   0.18766   0.02685   0.00000  Uiso   1.00
Cu31   Cu    0.16667   0.21355   0.25000   0.00000  Uiso   1.00
Cu32   Cu    0.16667   0.11978   0.25000   0.00000  Uiso   1.00
H33    H     0.03844   0.09260   0.25418   0.00000  Uiso   1.00
H34    H     0.29481   0.24022   0.25391   0.00000  Uiso   1.00
H35    H     0.29813   0.09188   0.25805   0.00000  Uiso   1.00
H36    H     0.03502   0.24099   0.24935   0.00000  Uiso   1.00
N37    N     0.16667   0.28402   0.25000   0.00000  Uiso   1.00
N38    N     0.16667   0.04931   0.25000   0.00000  Uiso   1.00
O39    O     0.10655   0.20625   0.25000   0.00000  Uiso   1.00
O40    O     0.22679   0.12709   0.25000   0.00000  Uiso   1.00
O41    O     0.22679   0.20625   0.25000   0.00000  Uiso   1.00
O42    O     0.10655   0.12709   0.25000   0.00000  Uiso   1.00
O43    O     0.16666   0.20627   0.18513   0.00000  Uiso   1.00
O44    O     0.16668   0.12707   0.31487   0.00000  Uiso   1.00
O45    O     0.16668   0.20627   0.31487   0.00000  Uiso   1.00
O46    O     0.16666   0.12707   0.18513   0.00000  Uiso   1.00
C47    C     0.24537   0.15666   0.38732   0.00000  Uiso   1.00
H48    H     0.25973   0.12327   0.39272   0.00000  Uiso   1.00
O49    O     0.26288   0.18611   0.36657   0.00000  Uiso   1.00
C50    C     0.09184   0.17209   0.11730   0.00000  Uiso   1.00
H51    H     0.08899   0.19627   0.14328   0.00000  Uiso   1.00
O52    O     0.06624   0.14266   0.11436   0.00000  Uiso   1.00
O53    O     0.09736   0.16444   0.38456   0.00000  Uiso   1.00
C54    C     0.08599   0.20248   0.35744   0.00000  Uiso   1.00
H55    H     0.08949   0.19282   0.32378   0.00000  Uiso   1.00
H56    H     0.10315   0.23455   0.36360   0.00000  Uiso   1.00
H57    H     0.05337   0.21033   0.36109   0.00000  Uiso   1.00
O58    O     0.23689   0.18838   0.12047   0.00000  Uiso   1.00
C59    C     0.25254   0.14922   0.14361   0.00000  Uiso   1.00
H60    H     0.23668   0.11651   0.13756   0.00000  Uiso   1.00
H61    H     0.25204   0.15634   0.17810   0.00000  Uiso   1.00
H62    H     0.28485   0.14365   0.13664   0.00000  Uiso   1.00
C63    C     0.06885   0.22117   0.45111   0.00000  Uiso   1.00
H64    H     0.08009   0.25365   0.43791   0.00000  Uiso   1.00
O65    O     0.03341   0.21258   0.44525   0.00000  Uiso   1.00
C66    C     0.27796   0.20517   0.05017   0.00000  Uiso   1.00
H67    H     0.28356   0.24207   0.04980   0.00000  Uiso   1.00
O68    O     0.30208   0.17883   0.06863   0.00000  Uiso   1.00
C69    C     0.05344   0.17634   0.03404   0.00000  Uiso   1.00
H70    H     0.02430   0.17508   0.01682   0.00000  Uiso   1.00
O71    O     0.03539   0.14058   0.03332   0.00000  Uiso   1.00
C72    C     0.28272   0.19140   0.46137   0.00000  Uiso   1.00
H73    H     0.29049   0.22571   0.44978   0.00000  Uiso   1.00
O74    O     0.30647   0.15908   0.45812   0.00000  Uiso   1.00
O75    O     0.13549   0.05062   0.17868   0.00000  Uiso   1.00
C76    C     0.09378   0.06276   0.17909   0.00000  Uiso   1.00
H77    H     0.08950   0.10000   0.18319   0.00000  Uiso   1.00
H78    H     0.07606   0.04286   0.20315   0.00000  Uiso   1.00
H79    H     0.08012   0.05683   0.14611   0.00000  Uiso   1.00
O80    O     0.18925   0.28965   0.32521   0.00000  Uiso   1.00
C81    C     0.22903   0.27366   0.33519   0.00000  Uiso   1.00
H82    H     0.23533   0.24222   0.31741   0.00000  Uiso   1.00
H83    H     0.23147   0.26600   0.37105   0.00000  Uiso   1.00
H84    H     0.25253   0.29894   0.32752   0.00000  Uiso   1.00
O85    O     0.22869   0.04037   0.28918   0.00000  Uiso   1.00
C86    C     0.23094   0.05799   0.33157   0.00000  Uiso   1.00
H87    H     0.23407   0.09554   0.32868   0.00000  Uiso   1.00
H88    H     0.25941   0.04493   0.34800   0.00000  Uiso   1.00
H89    H     0.20530   0.04903   0.35275   0.00000  Uiso   1.00
O90    O     0.14854   0.29135   0.17296   0.00000  Uiso   1.00
C91    C     0.10811   0.28276   0.15969   0.00000  Uiso   1.00
H92    H     0.09246   0.26119   0.18418   0.00000  Uiso   1.00
H93    H     0.10893   0.26541   0.12792   0.00000  Uiso   1.00
H94    H     0.09031   0.31439   0.15259   0.00000  Uiso   1.00
C95    C     0.42071   0.16690   0.24858   0.00000  Uiso   1.00
C96    C     0.57902   0.16630   0.25447   0.00000  Uiso   1.00
C97    C     0.42828   0.17815   0.01730   0.00000  Uiso   1.00
C98    C     0.57661   0.18343   0.48116   0.00000  Uiso   1.00
C99    C     0.35535   0.12508   0.25380   0.00000  Uiso   1.00
C100   C     0.64459   0.20772   0.25396   0.00000  Uiso   1.00
C101   C     0.64648   0.12460   0.25633   0.00000  Uiso   1.00
C102   C     0.35341   0.20822   0.25118   0.00000  Uiso   1.00
C103   C     0.62389   0.16598   0.25579   0.00000  Uiso   1.00
C104   C     0.37594   0.16688   0.25065   0.00000  Uiso   1.00
C105   C     0.48111   0.02632   0.21637   0.00000  Uiso   1.00
C106   C     0.51893   0.30842   0.28324   0.00000  Uiso   1.00
C107   C     0.52397   0.02384   0.27902   0.00000  Uiso   1.00
C108   C     0.48437   0.31030   0.21427   0.00000  Uiso   1.00
C109   C     0.49962   0.16733   0.16453   0.00000  Uiso   1.00
C110   C     0.50263   0.16629   0.33564   0.00000  Uiso   1.00
C111   C     0.54081   0.16781   0.40920   0.00000  Uiso   1.00
C112   C     0.46295   0.17017   0.09137   0.00000  Uiso   1.00
C113   C     0.50378   0.16682   0.38454   0.00000  Uiso   1.00
C114   C     0.49973   0.16982   0.11591   0.00000  Uiso   1.00
C115   C     0.46723   0.17257   0.40617   0.00000  Uiso   1.00
C116   C     0.53647   0.17716   0.09505   0.00000  Uiso   1.00
C117   C     0.46735   0.17831   0.45180   0.00000  Uiso   1.00
C118   C     0.53820   0.17962   0.04869   0.00000  Uiso   1.00
C119   C     0.50360   0.17551   0.47694   0.00000  Uiso   1.00
C120   C     0.50193   0.17536   0.02351   0.00000  Uiso   1.00
C121   C     0.54098   0.17485   0.45551   0.00000  Uiso   1.00
C122   C     0.46378   0.17301   0.04453   0.00000  Uiso   1.00
C123   C     0.43136   0.18813   0.47274   0.00000  Uiso   1.00
C124   C     0.57492   0.18766   0.02685   0.00000  Uiso   1.00
Cu125  Cu    0.50000   0.21355   0.25000   0.00000  Uiso   1.00
Cu126  Cu    0.50000   0.11978   0.25000   0.00000  Uiso   1.00
H127   H     0.37178   0.09260   0.25418   0.00000  Uiso   1.00
H128   H     0.62815   0.24022   0.25391   0.00000  Uiso   1.00
H129   H     0.63147   0.09188   0.25805   0.00000  Uiso   1.00
H130   H     0.36836   0.24099   0.24935   0.00000  Uiso   1.00
N131   N     0.50000   0.28402   0.25000   0.00000  Uiso   1.00
N132   N     0.50000   0.04931   0.25000   0.00000  Uiso   1.00
O133   O     0.43988   0.20625   0.25000   0.00000  Uiso   1.00
O134   O     0.56012   0.12709   0.25000   0.00000  Uiso   1.00
O135   O     0.56012   0.20625   0.25000   0.00000  Uiso   1.00
O136   O     0.43988   0.12709   0.25000   0.00000  Uiso   1.00
O137   O     0.49999   0.20627   0.18513   0.00000  Uiso   1.00
O138   O     0.50001   0.12707   0.31487   0.00000  Uiso   1.00
O139   O     0.50001   0.20627   0.31487   0.00000  Uiso   1.00
O140   O     0.49999   0.12707   0.18513   0.00000  Uiso   1.00
C141   C     0.57871   0.15666   0.38732   0.00000  Uiso   1.00
H142   H     0.59307   0.12327   0.39272   0.00000  Uiso   1.00
O143   O     0.59621   0.18611   0.36657   0.00000  Uiso   1.00
C144   C     0.42518   0.17209   0.11730   0.00000  Uiso   1.00
H145   H     0.42232   0.19627   0.14328   0.00000  Uiso   1.00
O146   O     0.39957   0.14266   0.11436   0.00000  Uiso   1.00
O147   O     0.43070   0.16444   0.38456   0.00000  Uiso   1.00
C148   C     0.41932   0.20248   0.35744   0.00000  Uiso   1.00
H149   H     0.42282   0.19282   0.32378   0.00000  Uiso   1.00
H150   H     0.43649   0.23455   0.36360   0.00000  Uiso   1.00
H151   H     0.38670   0.21033   0.36109   0.00000  Uiso   1.00
O152   O     0.57022   0.18838   0.12047   0.00000  Uiso   1.00
C153   C     0.58588   0.14922   0.14361   0.00000  Uiso   1.00
H154   H     0.57001   0.11651   0.13756   0.00000  Uiso   1.00
H155   H     0.58538   0.15634   0.17810   0.00000  Uiso   1.00
H156   H     0.61819   0.14365   0.13664   0.00000  Uiso   1.00
C157   C     0.40218   0.22117   0.45111   0.00000  Uiso   1.00
H158   H     0.41342   0.25365   0.43791   0.00000  Uiso   1.00
O159   O     0.36674   0.21258   0.44525   0.00000  Uiso   1.00
C160   C     0.61130   0.20517   0.05017   0.00000  Uiso   1.00
H161   H     0.61689   0.24207   0.04980   0.00000  Uiso   1.00
O162   O     0.63541   0.17883   0.06863   0.00000  Uiso   1.00
C163   C     0.38677   0.17634   0.03404   0.00000  Uiso   1.00
H164   H     0.35763   0.17508   0.01682   0.00000  Uiso   1.00
O165   O     0.36873   0.14058   0.03332   0.00000  Uiso   1.00
C166   C     0.61606   0.19140   0.46137   0.00000  Uiso   1.00
H167   H     0.62382   0.22571   0.44978   0.00000  Uiso   1.00
O168   O     0.63980   0.15908   0.45812   0.00000  Uiso   1.00
O169   O     0.46883   0.05062   0.17868   0.00000  Uiso   1.00
C170   C     0.42711   0.06276   0.17909   0.00000  Uiso   1.00
H171   H     0.42284   0.10000   0.18319   0.00000  Uiso   1.00
H172   H     0.40939   0.04286   0.20315   0.00000  Uiso   1.00
H173   H     0.41346   0.05683   0.14611   0.00000  Uiso   1.00
O174   O     0.52258   0.28965   0.32521   0.00000  Uiso   1.00
C175   C     0.56236   0.27366   0.33519   0.00000  Uiso   1.00
H176   H     0.56866   0.24222   0.31741   0.00000  Uiso   1.00
H177   H     0.56481   0.26600   0.37105   0.00000  Uiso   1.00
H178   H     0.58586   0.29894   0.32752   0.00000  Uiso   1.00
O179   O     0.56202   0.04037   0.28918   0.00000  Uiso   1.00
C180   C     0.56427   0.05799   0.33157   0.00000  Uiso   1.00
H181   H     0.56740   0.09554   0.32868   0.00000  Uiso   1.00
H182   H     0.59274   0.04493   0.34800   0.00000  Uiso   1.00
H183   H     0.53864   0.04903   0.35275   0.00000  Uiso   1.00
O184   O     0.48187   0.29135   0.17296   0.00000  Uiso   1.00
C185   C     0.44144   0.28276   0.15969   0.00000  Uiso   1.00
H186   H     0.42579   0.26119   0.18418   0.00000  Uiso   1.00
H187   H     0.44227   0.26541   0.12792   0.00000  Uiso   1.00
H188   H     0.42365   0.31439   0.15259   0.00000  Uiso   1.00
C189   C     0.75405   0.16690   0.24858   0.00000  Uiso   1.00
C190   C     0.91235   0.16630   0.25447   0.00000  Uiso   1.00
C191   C     0.76162   0.17815   0.01730   0.00000  Uiso   1.00
C192   C     0.90995   0.18343   0.48116   0.00000  Uiso   1.00
C193   C     0.68868   0.12508   0.25380   0.00000  Uiso   1.00
C194   C     0.97792   0.20772   0.25396   0.00000  Uiso   1.00
C195   C     0.97981   0.12460   0.25633   0.00000  Uiso   1.00
C196   C     0.68675   0.20822   0.25118   0.00000  Uiso   1.00
C197   C     0.95722   0.16598   0.25579   0.00000  Uiso   1.00
C198   C     0.70927   0.16688   0.25065   0.00000  Uiso   1.00
C199   C     0.81445   0.02632   0.21637   0.00000  Uiso   1.00
C200   C     0.85227   0.30842   0.28324   0.00000  Uiso   1.00
C201   C     0.85730   0.02384   0.27902   0.00000  Uiso   1.00
C202   C     0.81770   0.31030   0.21427   0.00000  Uiso   1.00
C203   C     0.83295   0.16733   0.16453   0.00000  Uiso   1.00
C204   C     0.83596   0.16629   0.33564   0.00000  Uiso   1.00
C205   C     0.87414   0.16781   0.40920   0.00000  Uiso   1.00
C206   C     0.79629   0.17017   0.09137   0.00000  Uiso   1.00
C207   C     0.83711   0.16682   0.38454   0.00000  Uiso   1.00
C208   C     0.83307   0.16982   0.11591   0.00000  Uiso   1.00
C209   C     0.80057   0.17257   0.40617   0.00000  Uiso   1.00
C210   C     0.86980   0.17716   0.09505   0.00000  Uiso   1.00
C211   C     0.80068   0.17831   0.45180   0.00000  Uiso   1.00
C212   C     0.87154   0.17962   0.04869   0.00000  Uiso   1.00
C213   C     0.83694   0.17551   0.47694   0.00000  Uiso   1.00
C214   C     0.83527   0.17536   0.02351   0.00000  Uiso   1.00
C215   C     0.87431   0.17485   0.45551   0.00000  Uiso   1.00
C216   C     0.79712   0.17301   0.04453   0.00000  Uiso   1.00
C217   C     0.76469   0.18813   0.47274   0.00000  Uiso   1.00
C218   C     0.90825   0.18766   0.02685   0.00000  Uiso   1.00
Cu219  Cu    0.83333   0.21355   0.25000   0.00000  Uiso   1.00
Cu220  Cu    0.83333   0.11978   0.25000   0.00000  Uiso   1.00
H221   H     0.70511   0.09260   0.25418   0.00000  Uiso   1.00
H222   H     0.96148   0.24022   0.25391   0.00000  Uiso   1.00
H223   H     0.96480   0.09188   0.25805   0.00000  Uiso   1.00
H224   H     0.70169   0.24099   0.24935   0.00000  Uiso   1.00
N225   N     0.83333   0.28402   0.25000   0.00000  Uiso   1.00
N226   N     0.83333   0.04931   0.25000   0.00000  Uiso   1.00
O227   O     0.77321   0.20625   0.25000   0.00000  Uiso   1.00
O228   O     0.89345   0.12709   0.25000   0.00000  Uiso   1.00
O229   O     0.89345   0.20625   0.25000   0.00000  Uiso   1.00
O230   O     0.77321   0.12709   0.25000   0.00000  Uiso   1.00
O231   O     0.83332   0.20627   0.18513   0.00000  Uiso   1.00
O232   O     0.83334   0.12707   0.31487   0.00000  Uiso   1.00
O233   O     0.83334   0.20627   0.31487   0.00000  Uiso   1.00
O234   O     0.83332   0.12707   0.18513   0.00000  Uiso   1.00
C235   C     0.91204   0.15666   0.38732   0.00000  Uiso   1.00
H236   H     0.92640   0.12327   0.39272   0.00000  Uiso   1.00
O237   O     0.92954   0.18611   0.36657   0.00000  Uiso   1.00
C238   C     0.75851   0.17209   0.11730   0.00000  Uiso   1.00
H239   H     0.75566   0.19627   0.14328   0.00000  Uiso   1.00
O240   O     0.73291   0.14266   0.11436   0.00000  Uiso   1.00
O241   O     0.76403   0.16444   0.38456   0.00000  Uiso   1.00
C242   C     0.75266   0.20248   0.35744   0.00000  Uiso   1.00
H243   H     0.75616   0.19282   0.32378   0.00000  Uiso   1.00
H244   H     0.76982   0.23455   0.36360   0.00000  Uiso   1.00
H245   H     0.72003   0.21033   0.36109   0.00000  Uiso   1.00
O246   O     0.90355   0.18838   0.12047   0.00000  Uiso   1.00
C247   C     0.91921   0.14922   0.14361   0.00000  Uiso   1.00
H248   H     0.90335   0.11651   0.13756   0.00000  Uiso   1.00
H249   H     0.91871   0.15634   0.17810   0.00000  Uiso   1.00
H250   H     0.95152   0.14365   0.13664   0.00000  Uiso   1.00
C251   C     0.73551   0.22117   0.45111   0.00000  Uiso   1.00
H252   H     0.74676   0.25365   0.43791   0.00000  Uiso   1.00
O253   O     0.70008   0.21258   0.44525   0.00000  Uiso   1.00
C254   C     0.94463   0.20517   0.05017   0.00000  Uiso   1.00
H255   H     0.95022   0.24207   0.04980   0.00000  Uiso   1.00
O256   O     0.96875   0.17883   0.06863   0.00000  Uiso   1.00
C257   C     0.72010   0.17634   0.03404   0.00000  Uiso   1.00
H258   H     0.69096   0.17508   0.01682   0.00000  Uiso   1.00
O259   O     0.70206   0.14058   0.03332   0.00000  Uiso   1.00
C260   C     0.94939   0.19140   0.46137   0.00000  Uiso   1.00
H261   H     0.95715   0.22571   0.44978   0.00000  Uiso   1.00
O262   O     0.97314   0.15908   0.45812   0.00000  Uiso   1.00
O263   O     0.80216   0.05062   0.17868   0.00000  Uiso   1.00
C264   C     0.76045   0.06276   0.17909   0.00000  Uiso   1.00
H265   H     0.75617   0.10000   0.18319   0.00000  Uiso   1.00
H266   H     0.74272   0.04286   0.20315   0.00000  Uiso   1.00
H267   H     0.74679   0.05683   0.14611   0.00000  Uiso   1.00
O268   O     0.85592   0.28965   0.32521   0.00000  Uiso   1.00
C269   C     0.89569   0.27366   0.33519   0.00000  Uiso   1.00
H270   H     0.90199   0.24222   0.31741   0.00000  Uiso   1.00
H271   H     0.89814   0.26600   0.37105   0.00000  Uiso   1.00
H272   H     0.91920   0.29894   0.32752   0.00000  Uiso   1.00
O273   O     0.89535   0.04037   0.28918   0.00000  Uiso   1.00
C274   C     0.89760   0.05799   0.33157   0.00000  Uiso   1.00
H275   H     0.90074   0.09554   0.32868   0.00000  Uiso   1.00
H276   H     0.92607   0.04493   0.34800   0.00000  Uiso   1.00
H277   H     0.87197   0.04903   0.35275   0.00000  Uiso   1.00
O278   O     0.81520   0.29135   0.17296   0.00000  Uiso   1.00
C279   C     0.77478   0.28276   0.15969   0.00000  Uiso   1.00
H280   H     0.75912   0.26119   0.18418   0.00000  Uiso   1.00
H281   H     0.77560   0.26541   0.12792   0.00000  Uiso   1.00
H282   H     0.75698   0.31439   0.15259   0.00000  Uiso   1.00
C283   C     0.08738   0.50023   0.24858   0.00000  Uiso   1.00
C284   C     0.24568   0.49963   0.25447   0.00000  Uiso   1.00
C285   C     0.09495   0.51148   0.01730   0.00000  Uiso   1.00
C286   C     0.24328   0.51676   0.48116   0.00000  Uiso   1.00
C287   C     0.02201   0.45841   0.25380   0.00000  Uiso   1.00
C288   C     0.31125   0.54106   0.25396   0.00000  Uiso   1.00
C289   C     0.31314   0.45794   0.25633   0.00000  Uiso   1.00
C290   C     0.02008   0.54155   0.25118   0.00000  Uiso   1.00
C291   C     0.29056   0.49932   0.25579   0.00000  Uiso   1.00
C292   C     0.04261   0.50022   0.25065   0.00000  Uiso   1.00
C293   C     0.14778   0.35965   0.21637   0.00000  Uiso   1.00
C294   C     0.18560   0.64175   0.28324   0.00000  Uiso   1.00
C295   C     0.19064   0.35717   0.27902   0.00000  Uiso   1.00
C296   C     0.15104   0.64364   0.21427   0.00000  Uiso   1.00
C297   C     0.16628   0.50066   0.16453   0.00000  Uiso   1.00
C298   C     0.16929   0.49962   0.33564   0.00000  Uiso   1.00
C299   C     0.20748   0.50115   0.40920   0.00000  Uiso   1.00
C300   C     0.12962   0.50350   0.09137   0.00000  Uiso   1.00
C301   C     0.17044   0.50016   0.38454   0.00000  Uiso   1.00
C302   C     0.16640   0.50316   0.11591   0.00000  Uiso   1.00
C303   C     0.13390   0.50590   0.40617   0.00000  Uiso   1.00
C304   C     0.20314   0.51049   0.09505   0.00000  Uiso   1.00
C305   C     0.13401   0.51164   0.45180   0.00000  Uiso   1.00
C306   C     0.20487   0.51295   0.04869   0.00000  Uiso   1.00
C307   C     0.17027   0.50884   0.47694   0.00000  Uiso   1.00
C308   C     0.16860   0.50869   0.02351   0.00000  Uiso   1.00
C309   C     0.20764   0.50819   0.45551   0.00000  Uiso   1.00
C310   C     0.13045   0.50635   0.04453   0.00000  Uiso   1.00
C311   C     0.09802   0.52146   0.47274   0.00000  Uiso   1.00
C312   C     0.24158   0.52099   0.02685   0.00000  Uiso   1.00
Cu313  Cu    0.16667   0.54689   0.25000   0.00000  Uiso   1.00
Cu314  Cu    0.16667   0.45311   0.25000   0.00000  Uiso   1.00
H315   H     0.03844   0.42593   0.25418   0.00000  Uiso   1.00
H316   H     0.29481   0.57355   0.25391   0.00000  Uiso   1.00
H317   H     0.29813   0.42521   0.25805   0.00000  Uiso   1.00
H318   H     0.03502   0.57432   0.24935   0.00000  Uiso   1.00
N319   N     0.16667   0.61736   0.25000   0.00000  Uiso   1.00
N320   N     0.16667   0.38264   0.25000   0.00000  Uiso   1.00
O321   O     0.10655   0.53958   0.25000   0.00000  Uiso   1.00
O322   O     0.22679   0.46042   0.25000   0.00000  Uiso   1.00
O323   O     0.22679   0.53958   0.25000   0.00000  Uiso   1.00
O324   O     0.10655   0.46042   0.25000   0.00000  Uiso   1.00
O325   O     0.16666   0.53960   0.18513   0.00000  Uiso   1.00
O326   O     0.16668   0.46040   0.31487   0.00000  Uiso   1.00
O327   O     0.16668   0.53960   0.31487   0.00000  Uiso   1.00
O328   O     0.16666   0.46040   0.18513   0.00000  Uiso   1.00
C329   C     0.24537   0.48999   0.38732   0.00000  Uiso   1.00
H330   H     0.25973   0.45660   0.39272   0.00000  Uiso   1.00
O331   O     0.26288   0.51944   0.36657   0.00000  Uiso   1.00
C332   C     0.09184   0.50543   0.11730   0.00000  Uiso   1.00
H333   H     0.08899   0.52961   0.14328   0.00000  Uiso   1.00
O334   O     0.06624   0.47599   0.11436   0.00000  Uiso   1.00
O335   O     0.09736   0.49778   0.38456   0.00000  Uiso   1.00
C336   C     0.08599   0.53581   0.35744   0.00000  Uiso   1.00
H337   H     0.08949   0.52616   0.32378   0.00000  Uiso   1.00
H338   H     0.10315   0.56788   0.36360   0.00000  Uiso   1.00
H339   H     0.05337   0.54366   0.36109   0.00000  Uiso   1.00
O340   O     0.23689   0.52171   0.12047   0.00000  Uiso   1.00
C341   C     0.25254   0.48256   0.14361   0.00000  Uiso   1.00
H342   H     0.23668   0.44985   0.13756   0.00000  Uiso   1.00
H343   H     0.25204   0.48968   0.17810   0.00000  Uiso   1.00
H344   H     0.28485   0.47698   0.13664   0.00000  Uiso   1.00
C345   C     0.06885   0.55450   0.45111   0.00000  Uiso   1.00
H346   H     0.08009   0.58698   0.43791   0.00000  Uiso   1.00
O347   O     0.03341   0.54592   0.44525   0.00000  Uiso   1.00
C348   C     0.27796   0.53850   0.05017   0.00000  Uiso   1.00
H349   H     0.28356   0.57540   0.04980   0.00000  Uiso   1.00
O350   O     0.30208   0.51216   0.06863   0.00000  Uiso   1.00
C351   C     0.05344   0.50968   0.03404   0.00000  Uiso   1.00
H352   H     0.02430   0.50842   0.01682   0.00000  Uiso   1.00
O353   O     0.03539   0.47391   0.03332   0.00000  Uiso   1.00
C354   C     0.28272   0.52474   0.46137   0.00000  Uiso   1.00
H355   H     0.29049   0.55904   0.44978   0.00000  Uiso   1.00
O356   O     0.30647   0.49242   0.45812   0.00000  Uiso   1.00
O357   O     0.13549   0.38395   0.17868   0.00000  Uiso   1.00
C358   C     0.09378   0.39609   0.17909   0.00000  Uiso   1.00
H359   H     0.08950   0.43333   0.18319   0.00000  Uiso   1.00
H360   H     0.07606   0.37619   0.20315   0.00000  Uiso   1.00
H361   H     0.08012   0.39016   0.14611   0.00000  Uiso   1.00
O362   O     0.18925   0.62299   0.32521   0.00000  Uiso   1.00
C363   C     0.22903   0.60699   0.33519   0.00000  Uiso   1.00
H364   H     0.23533   0.57556   0.31741   0.00000  Uiso   1.00
H365   H     0.23147   0.59933   0.37105   0.00000  Uiso   1.00
H366   H     0.25253   0.63228   0.32752   0.00000  Uiso   1.00
O367   O     0.22869   0.37370   0.28918   0.00000  Uiso   1.00
C368   C     0.23094   0.39133   0.33157   0.00000  Uiso   1.00
H369   H     0.23407   0.42887   0.32868   0.00000  Uiso   1.00
H370   H     0.25941   0.37827   0.34800   0.00000  Uiso   1.00
H371   H     0.20530   0.38236   0.35275   0.00000  Uiso   1.00
O372   O     0.14854   0.62468   0.17296   0.00000  Uiso   1.00
C373   C     0.10811   0.61609   0.15969   0.00000  Uiso   1.00
H374   H     0.09246   0.59452   0.18418   0.00000  Uiso   1.00
H375   H     0.10893   0.59874   0.12792   0.00000  Uiso   1.00
H376   H     0.09031   0.64773   0.15259   0.00000  Uiso   1.00
C377   C     0.42071   0.50023   0.24858   0.00000  Uiso   1.00
C378   C     0.57902   0.49963   0.25447   0.00000  Uiso   1.00
C379   C     0.42828   0.51148   0.01730   0.00000  Uiso   1.00
C380   C     0.57661   0.51676   0.48116   0.00000  Uiso   1.00
C381   C     0.35535   0.45841   0.25380   0.00000  Uiso   1.00
C382   C     0.64459   0.54106   0.25396   0.00000  Uiso   1.00
C383   C     0.64648   0.45794   0.25633   0.00000  Uiso   1.00
C384   C     0.35341   0.54155   0.25118   0.00000  Uiso   1.00
C385   C     0.62389   0.49932   0.25579   0.00000  Uiso   1.00
C386   C     0.37594   0.50022   0.25065   0.00000  Uiso   1.00
C387   C     0.48111   0.35965   0.21637   0.00000  Uiso   1.00
C388   C     0.51893   0.64175   0.28324   0.00000  Uiso   1.00
C389   C     0.52397   0.35717   0.27902   0.00000  Uiso   1.00
C390   C     0.48437   0.64364   0.21427   0.00000  Uiso   1.00
C391   C     0.49962   0.50066   0.16453   0.00000  Uiso   1.00
C392   C     0.50263   0.49962   0.33564   0.00000  Uiso   1.00
C393   C     0.54081   0.50115   0.40920   0.00000  Uiso   1.00
C394   C     0.46295   0.50350   0.09137   0.00000  Uiso   1.00
C395   C     0.50378   0.50016   0.38454   0.00000  Uiso   1.00
C396   C     0.49973   0.50316   0.11591   0.00000  Uiso   1.00
C397   C     0.46723   0.50590   0.40617   0.00000  Uiso   1.00
C398   C     0.53647   0.51049   0.09505   0.00000  Uiso   1.00
C399   C     0.46735   0.51164   0.45180   0.00000  Uiso   1.00
C400   C     0.53820   0.51295   0.04869   0.00000  Uiso   1.00
C401   C     0.50360   0.50884   0.47694   0.00000  Uiso   1.00
C402   C     0.50193   0.50869   0.02351   0.00000  Uiso   1.00
C403   C     0.54098   0.50819   0.45551   0.00000  Uiso   1.00
C404   C     0.46378   0.50635   0.04453   0.00000  Uiso   1.00
C405   C     0.43136   0.52146   0.47274   0.00000  Uiso   1.00
C406   C     0.57492   0.52099   0.02685   0.00000  Uiso   1.00
Cu407  Cu    0.50000   0.54689   0.25000   0.00000  Uiso   1.00
Cu408  Cu    0.50000   0.45311   0.25000   0.00000  Uiso   1.00
H409   H     0.37178   0.42593   0.25418   0.00000  Uiso   1.00
H410   H     0.62815   0.57355   0.25391   0.00000  Uiso   1.00
H411   H     0.63147   0.42521   0.25805   0.00000  Uiso   1.00
H412   H     0.36836   0.57432   0.24935   0.00000  Uiso   1.00
N413   N     0.50000   0.61736   0.25000   0.00000  Uiso   1.00
N414   N     0.50000   0.38264   0.25000   0.00000  Uiso   1.00
O415   O     0.43988   0.53958   0.25000   0.00000  Uiso   1.00
O416   O     0.56012   0.46042   0.25000   0.00000  Uiso   1.00
O417   O     0.56012   0.53958   0.25000   0.00000  Uiso   1.00
O418   O     0.43988   0.46042   0.25000   0.00000  Uiso   1.00
O419   O     0.49999   0.53960   0.18513   0.00000  Uiso   1.00
O420   O     0.50001   0.46040   0.31487   0.00000  Uiso   1.00
O421   O     0.50001   0.53960   0.31487   0.00000  Uiso   1.00
O422   O     0.49999   0.46040   0.18513   0.00000  Uiso   1.00
C423   C     0.57871   0.48999   0.38732   0.00000  Uiso   1.00
H424   H     0.59307   0.45660   0.39272   0.00000  Uiso   1.00
O425   O     0.59621   0.51944   0.36657   0.00000  Uiso   1.00
C426   C     0.42518   0.50543   0.11730   0.00000  Uiso   1.00
H427   H     0.42232   0.52961   0.14328   0.00000  Uiso   1.00
O428   O     0.39957   0.47599   0.11436   0.00000  Uiso   1.00
O429   O     0.43070   0.49778   0.38456   0.00000  Uiso   1.00
C430   C     0.41932   0.53581   0.35744   0.00000  Uiso   1.00
H431   H     0.42282   0.52616   0.32378   0.00000  Uiso   1.00
H432   H     0.43649   0.56788   0.36360   0.00000  Uiso   1.00
H433   H     0.38670   0.54366   0.36109   0.00000  Uiso   1.00
O434   O     0.57022   0.52171   0.12047   0.00000  Uiso   1.00
C435   C     0.58588   0.48256   0.14361   0.00000  Uiso   1.00
H436   H     0.57001   0.44985   0.13756   0.00000  Uiso   1.00
H437   H     0.58538   0.48968   0.17810   0.00000  Uiso   1.00
H438   H     0.61819   0.47698   0.13664   0.00000  Uiso   1.00
C439   C     0.40218   0.55450   0.45111   0.00000  Uiso   1.00
H440   H     0.41342   0.58698   0.43791   0.00000  Uiso   1.00
O441   O     0.36674   0.54592   0.44525   0.00000  Uiso   1.00
C442   C     0.61130   0.53850   0.05017   0.00000  Uiso   1.00
H443   H     0.61689   0.57540   0.04980   0.00000  Uiso   1.00
O444   O     0.63541   0.51216   0.06863   0.00000  Uiso   1.00
C445   C     0.38677   0.50968   0.03404   0.00000  Uiso   1.00
H446   H     0.35763   0.50842   0.01682   0.00000  Uiso   1.00
O447   O     0.36873   0.47391   0.03332   0.00000  Uiso   1.00
C448   C     0.61606   0.52474   0.46137   0.00000  Uiso   1.00
H449   H     0.62382   0.55904   0.44978   0.00000  Uiso   1.00
O450   O     0.63980   0.49242   0.45812   0.00000  Uiso   1.00
O451   O     0.46883   0.38395   0.17868   0.00000  Uiso   1.00
C452   C     0.42711   0.39609   0.17909   0.00000  Uiso   1.00
H453   H     0.42284   0.43333   0.18319   0.00000  Uiso   1.00
H454   H     0.40939   0.37619   0.20315   0.00000  Uiso   1.00
H455   H     0.41346   0.39016   0.14611   0.00000  Uiso   1.00
O456   O     0.52258   0.62299   0.32521   0.00000  Uiso   1.00
C457   C     0.56236   0.60699   0.33519   0.00000  Uiso   1.00
H458   H     0.56866   0.57556   0.31741   0.00000  Uiso   1.00
H459   H     0.56481   0.59933   0.37105   0.00000  Uiso   1.00
H460   H     0.58586   0.63228   0.32752   0.00000  Uiso   1.00
O461   O     0.56202   0.37370   0.28918   0.00000  Uiso   1.00
C462   C     0.56427   0.39133   0.33157   0.00000  Uiso   1.00
H463   H     0.56740   0.42887   0.32868   0.00000  Uiso   1.00
H464   H     0.59274   0.37827   0.34800   0.00000  Uiso   1.00
H465   H     0.53864   0.38236   0.35275   0.00000  Uiso   1.00
O466   O     0.48187   0.62468   0.17296   0.00000  Uiso   1.00
C467   C     0.44144   0.61609   0.15969   0.00000  Uiso   1.00
H468   H     0.42579   0.59452   0.18418   0.00000  Uiso   1.00
H469   H     0.44227   0.59874   0.12792   0.00000  Uiso   1.00
H470   H     0.42365   0.64773   0.15259   0.00000  Uiso   1.00
C471   C     0.75405   0.50023   0.24858   0.00000  Uiso   1.00
C472   C     0.91235   0.49963   0.25447   0.00000  Uiso   1.00
C473   C     0.76162   0.51148   0.01730   0.00000  Uiso   1.00
C474   C     0.90995   0.51676   0.48116   0.00000  Uiso   1.00
C475   C     0.68868   0.45841   0.25380   0.00000  Uiso   1.00
C476   C     0.97792   0.54106   0.25396   0.00000  Uiso   1.00
C477   C     0.97981   0.45794   0.25633   0.00000  Uiso   1.00
C478   C     0.68675   0.54155   0.25118   0.00000  Uiso   1.00
C479   C     0.95722   0.49932   0.25579   0.00000  Uiso   1.00
C480   C     0.70927   0.50022   0.25065   0.00000  Uiso   1.00
C481   C     0.81445   0.35965   0.21637   0.00000  Uiso   1.00
C482   C     0.85227   0.64175   0.28324   0.00000  Uiso   1.00
C483   C     0.85730   0.35717   0.27902   0.00000  Uiso   1.00
C484   C     0.81770   0.64364   0.21427   0.00000  Uiso   1.00
C485   C     0.83295   0.50066   0.16453   0.00000  Uiso   1.00
C486   C     0.83596   0.49962   0.33564   0.00000  Uiso   1.00
C487   C     0.87414   0.50115   0.40920   0.00000  Uiso   1.00
C488   C     0.79629   0.50350   0.09137   0.00000  Uiso   1.00
C489   C     0.83711   0.50016   0.38454   0.00000  Uiso   1.00
C490   C     0.83307   0.50316   0.11591   0.00000  Uiso   1.00
C491   C     0.80057   0.50590   0.40617   0.00000  Uiso   1.00
C492   C     0.86980   0.51049   0.09505   0.00000  Uiso   1.00
C493   C     0.80068   0.51164   0.45180   0.00000  Uiso   1.00
C494   C     0.87154   0.51295   0.04869   0.00000  Uiso   1.00
C495   C     0.83694   0.50884   0.47694   0.00000  Uiso   1.00
C496   C     0.83527   0.50869   0.02351   0.00000  Uiso   1.00
C497   C     0.87431   0.50819   0.45551   0.00000  Uiso   1.00
C498   C     0.79712   0.50635   0.04453   0.00000  Uiso   1.00
C499   C     0.76469   0.52146   0.47274   0.00000  Uiso   1.00
C500   C     0.90825   0.52099   0.02685   0.00000  Uiso   1.00
Cu501  Cu    0.83333   0.54689   0.25000   0.00000  Uiso   1.00
Cu502  Cu    0.83333   0.45311   0.25000   0.00000  Uiso   1.00
H503   H     0.70511   0.42593   0.25418   0.00000  Uiso   1.00
H504   H     0.96148   0.57355   0.25391   0.00000  Uiso   1.00
H505   H     0.96480   0.42521   0.25805   0.00000  Uiso   1.00
H506   H     0.70169   0.57432   0.24935   0.00000  Uiso   1.00
N507   N     0.83333   0.61736   0.25000   0.00000  Uiso   1.00
N508   N     0.83333   0.38264   0.25000   0.00000  Uiso   1.00
O509   O     0.77321   0.53958   0.25000   0.00000  Uiso   1.00
O510   O     0.89345   0.46042   0.25000   0.00000  Uiso   1.00
O511   O     0.89345   0.53958   0.25000   0.00000  Uiso   1.00
O512   O     0.77321   0.46042   0.25000   0.00000  Uiso   1.00
O513   O     0.83332   0.53960   0.18513   0.00000  Uiso   1.00
O514   O     0.83334   0.46040   0.31487   0.00000  Uiso   1.00
O515   O     0.83334   0.53960   0.31487   0.00000  Uiso   1.00
O516   O     0.83332   0.46040   0.18513   0.00000  Uiso   1.00
C517   C     0.91204   0.48999   0.38732   0.00000  Uiso   1.00
H518   H     0.92640   0.45660   0.39272   0.00000  Uiso   1.00
O519   O     0.92954   0.51944   0.36657   0.00000  Uiso   1.00
C520   C     0.75851   0.50543   0.11730   0.00000  Uiso   1.00
H521   H     0.75566   0.52961   0.14328   0.00000  Uiso   1.00
O522   O     0.73291   0.47599   0.11436   0.00000  Uiso   1.00
O523   O     0.76403   0.49778   0.38456   0.00000  Uiso   1.00
C524   C     0.75266   0.53581   0.35744   0.00000  Uiso   1.00
H525   H     0.75616   0.52616   0.32378   0.00000  Uiso   1.00
H526   H     0.76982   0.56788   0.36360   0.00000  Uiso   1.00
H527   H     0.72003   0.54366   0.36109   0.00000  Uiso   1.00
O528   O     0.90355   0.52171   0.12047   0.00000  Uiso   1.00
C529   C     0.91921   0.48256   0.14361   0.00000  Uiso   1.00
H530   H     0.90335   0.44985   0.13756   0.00000  Uiso   1.00
H531   H     0.91871   0.48968   0.17810   0.00000  Uiso   1.00
H532   H     0.95152   0.47698   0.13664   0.00000  Uiso   1.00
C533   C     0.73551   0.55450   0.45111   0.00000  Uiso   1.00
H534   H     0.74676   0.58698   0.43791   0.00000  Uiso   1.00
O535   O     0.70008   0.54592   0.44525   0.00000  Uiso   1.00
C536   C     0.94463   0.53850   0.05017   0.00000  Uiso   1.00
H537   H     0.95022   0.57540   0.04980   0.00000  Uiso   1.00
O538   O     0.96875   0.51216   0.06863   0.00000  Uiso   1.00
C539   C     0.72010   0.50968   0.03404   0.00000  Uiso   1.00
H540   H     0.69096   0.50842   0.01682   0.00000  Uiso   1.00
O541   O     0.70206   0.47391   0.03332   0.00000  Uiso   1.00
C542   C     0.94939   0.52474   0.46137   0.00000  Uiso   1.00
H543   H     0.95715   0.55904   0.44978   0.00000  Uiso   1.00
O544   O     0.97314   0.49242   0.45812   0.00000  Uiso   1.00
O545   O     0.80216   0.38395   0.17868   0.00000  Uiso   1.00
C546   C     0.76045   0.39609   0.17909   0.00000  Uiso   1.00
H547   H     0.75617   0.43333   0.18319   0.00000  Uiso   1.00
H548   H     0.74272   0.37619   0.20315   0.00000  Uiso   1.00
H549   H     0.74679   0.39016   0.14611   0.00000  Uiso   1.00
O550   O     0.85592   0.62299   0.32521   0.00000  Uiso   1.00
C551   C     0.89569   0.60699   0.33519   0.00000  Uiso   1.00
H552   H     0.90199   0.57556   0.31741   0.00000  Uiso   1.00
H553   H     0.89814   0.59933   0.37105   0.00000  Uiso   1.00
H554   H     0.91920   0.63228   0.32752   0.00000  Uiso   1.00
O555   O     0.89535   0.37370   0.28918   0.00000  Uiso   1.00
C556   C     0.89760   0.39133   0.33157   0.00000  Uiso   1.00
H557   H     0.90074   0.42887   0.32868   0.00000  Uiso   1.00
H558   H     0.92607   0.37827   0.34800   0.00000  Uiso   1.00
H559   H     0.87197   0.38236   0.35275   0.00000  Uiso   1.00
O560   O     0.81520   0.62468   0.17296   0.00000  Uiso   1.00
C561   C     0.77478   0.61609   0.15969   0.00000  Uiso   1.00
H562   H     0.75912   0.59452   0.18418   0.00000  Uiso   1.00
H563   H     0.77560   0.59874   0.12792   0.00000  Uiso   1.00
H564   H     0.75698   0.64773   0.15259   0.00000  Uiso   1.00
C565   C     0.08738   0.83356   0.24858   0.00000  Uiso   1.00
C566   C     0.24568   0.83297   0.25447   0.00000  Uiso   1.00
C567   C     0.09495   0.84482   0.01730   0.00000  Uiso   1.00
C568   C     0.24328   0.85010   0.48116   0.00000  Uiso   1.00
C569   C     0.02201   0.79175   0.25380   0.00000  Uiso   1.00
C570   C     0.31125   0.87439   0.25396   0.00000  Uiso   1.00
C571   C     0.31314   0.79127   0.25633   0.00000  Uiso   1.00
C572   C     0.02008   0.87488   0.25118   0.00000  Uiso   1.00
C573   C     0.29056   0.83265   0.25579   0.00000  Uiso   1.00
C574   C     0.04261   0.83355   0.25065   0.00000  Uiso   1.00
C575   C     0.14778   0.69299   0.21637   0.00000  Uiso   1.00
C576   C     0.18560   0.97509   0.28324   0.00000  Uiso   1.00
C577   C     0.19064   0.69051   0.27902   0.00000  Uiso   1.00
C578   C     0.15104   0.97697   0.21427   0.00000  Uiso   1.00
C579   C     0.16628   0.83399   0.16453   0.00000  Uiso   1.00
C580   C     0.16929   0.83295   0.33564   0.00000  Uiso   1.00
C581   C     0.20748   0.83448   0.40920   0.00000  Uiso   1.00
C582   C     0.12962   0.83683   0.09137   0.00000  Uiso   1.00
C583   C     0.17044   0.83349   0.38454   0.00000  Uiso   1.00
C584   C     0.16640   0.83649   0.11591   0.00000  Uiso   1.00
C585   C     0.13390   0.83924   0.40617   0.00000  Uiso   1.00
C586   C     0.20314   0.84383   0.09505   0.00000  Uiso   1.00
C587   C     0.13401   0.84498   0.45180   0.00000  Uiso   1.00
C588   C     0.20487   0.84629   0.04869   0.00000  Uiso   1.00
C589   C     0.17027   0.84218   0.47694   0.00000  Uiso   1.00
C590   C     0.16860   0.84202   0.02351   0.00000  Uiso   1.00
C591   C     0.20764   0.84152   0.45551   0.00000  Uiso   1.00
C592   C     0.13045   0.83968   0.04453   0.00000  Uiso   1.00
C593   C     0.09802   0.85480   0.47274   0.00000  Uiso   1.00
C594   C     0.24158   0.85432   0.02685   0.00000  Uiso   1.00
Cu595  Cu    0.16667   0.88022   0.25000   0.00000  Uiso   1.00
Cu596  Cu    0.16667   0.78645   0.25000   0.00000  Uiso   1.00
H597   H     0.03844   0.75926   0.25418   0.00000  Uiso   1.00
H598   H     0.29481   0.90689   0.25391   0.00000  Uiso   1.00
H599   H     0.29813   0.75855   0.25805   0.00000  Uiso   1.00
H600   H     0.03502   0.90765   0.24935   0.00000  Uiso   1.00
N601   N     0.16667   0.95069   0.25000   0.00000  Uiso   1.00
N602   N     0.16667   0.71598   0.25000   0.00000  Uiso   1.00
O603   O     0.10655   0.87291   0.25000   0.00000  Uiso   1.00
O604   O     0.22679   0.79375   0.25000   0.00000  Uiso   1.00
O605   O     0.22679   0.87291   0.25000   0.00000  Uiso   1.00
O606   O     0.10655   0.79375   0.25000   0.00000  Uiso   1.00
O607   O     0.16666   0.87293   0.18513   0.00000  Uiso   1.00
O608   O     0.16668   0.79373   0.31487   0.00000  Uiso   1.00
O609   O     0.16668   0.87293   0.31487   0.00000  Uiso   1.00
O610   O     0.16666   0.79373   0.18513   0.00000  Uiso   1.00
C611   C     0.24537   0.82333   0.38732   0.00000  Uiso   1.00
H612   H     0.25973   0.78994   0.39272   0.00000  Uiso   1.00
O613   O     0.26288   0.85278   0.36657   0.00000  Uiso   1.00
C614   C     0.09184   0.83876   0.11730   0.00000  Uiso   1.00
H615   H     0.08899   0.86294   0.14328   0.00000  Uiso   1.00
O616   O     0.06624   0.80933   0.11436   0.00000  Uiso   1.00
O617   O     0.09736   0.83111   0.38456   0.00000  Uiso   1.00
C618   C     0.08599   0.86915   0.35744   0.00000  Uiso   1.00
H619   H     0.08949   0.85949   0.32378   0.00000  Uiso   1.00
H620   H     0.10315   0.90122   0.36360   0.00000  Uiso   1.00
H621   H     0.05337   0.87699   0.36109   0.00000  Uiso   1.00
O622   O     0.23689   0.85505   0.12047   0.00000  Uiso   1.00
C623   C     0.25254   0.81589   0.14361   0.00000  Uiso   1.00
H624   H     0.23668   0.78318   0.13756   0.00000  Uiso   1.00
H625   H     0.25204   0.82301   0.17810   0.00000  Uiso   1.00
H626   H     0.28485   0.81032   0.13664   0.00000  Uiso   1.00
C627   C     0.06885   0.88783   0.45111   0.00000  Uiso   1.00
H628   H     0.08009   0.92031   0.43791   0.00000  Uiso   1.00
O629   O     0.03341   0.87925   0.44525   0.00000  Uiso   1.00
C630   C     0.27796   0.87184   0.05017   0.00000  Uiso   1.00
H631   H     0.28356   0.90874   0.04980   0.00000  Uiso   1.00
O632   O     0.30208   0.84550   0.06863   0.00000  Uiso   1.00
C633   C     0.05344   0.84301   0.03404   0.00000  Uiso   1.00
H634   H     0.02430   0.84175   0.01682   0.00000  Uiso   1.00
O635   O     0.03539   0.80724   0.03332   0.00000  Uiso   1.00
C636   C     0.28272   0.85807   0.46137   0.00000  Uiso   1.00
H637   H     0.29049   0.89237   0.44978   0.00000  Uiso   1.00
O638   O     0.30647   0.82575   0.45812   0.00000  Uiso   1.00
O639   O     0.13549   0.71729   0.17868   0.00000  Uiso   1.00
C640   C     0.09378   0.72942   0.17909   0.00000  Uiso   1.00
H641   H     0.08950   0.76667   0.18319   0.00000  Uiso   1.00
H642   H     0.07606   0.70952   0.20315   0.00000  Uiso   1.00
H643   H     0.08012   0.72350   0.14611   0.00000  Uiso   1.00
O644   O     0.18925   0.95632   0.32521   0.00000  Uiso   1.00
C645   C     0.22903   0.94033   0.33519   0.00000  Uiso   1.00
H646   H     0.23533   0.90889   0.31741   0.00000  Uiso   1.00
H647   H     0.23147   0.93266   0.37105   0.00000  Uiso   1.00
H648   H     0.25253   0.96561   0.32752   0.00000  Uiso   1.00
O649   O     0.22869   0.70704   0.28918   0.00000  Uiso   1.00
C650   C     0.23094   0.72466   0.33157   0.00000  Uiso   1.00
H651   H     0.23407   0.76220   0.32868   0.00000  Uiso   1.00
H652   H     0.25941   0.71160   0.34800   0.00000  Uiso   1.00
H653   H     0.20530   0.71570   0.35275   0.00000  Uiso   1.00
O654   O     0.14854   0.95802   0.17296   0.00000  Uiso   1.00
C655   C     0.10811   0.94943   0.15969   0.00000  Uiso   1.00
H656   H     0.09246   0.92786   0.18418   0.00000  Uiso   1.00
H657   H     0.10893   0.93208   0.12792   0.00000  Uiso   1.00
H658   H     0.09031   0.98106   0.15259   0.00000  Uiso   1.00
C659   C     0.42071   0.83356   0.24858   0.00000  Uiso   1.00
C660   C     0.57902   0.83297   0.25447   0.00000  Uiso   1.00
C661   C     0.42828   0.84482   0.01730   0.00000  Uiso   1.00
C662   C     0.57661   0.85010   0.48116   0.00000  Uiso   1.00
C663   C     0.35535   0.79175   0.25380   0.00000  Uiso   1.00
C664   C     0.64459   0.87439   0.25396   0.00000  Uiso   1.00
C665   C     0.64648   0.79127   0.25633   0.00000  Uiso   1.00
C666   C     0.35341   0.87488   0.25118   0.00000  Uiso   1.00
C667   C     0.62389   0.83265   0.25579   0.00000  Uiso   1.00
C668   C     0.37594   0.83355   0.25065   0.00000  Uiso   1.00
C669   C     0.48111   0.69299   0.21637   0.00000  Uiso   1.00
C670   C     0.51893   0.97509   0.28324   0.00000  Uiso   1.00
C671   C     0.52397   0.69051   0.27902   0.00000  Uiso   1.00
C672   C     0.48437   0.97697   0.21427   0.00000  Uiso   1.00
C673   C     0.49962   0.83399   0.16453   0.00000  Uiso   1.00
C674   C     0.50263   0.83295   0.33564   0.00000  Uiso   1.00
C675   C     0.54081   0.83448   0.40920   0.00000  Uiso   1.00
C676   C     0.46295   0.83683   0.09137   0.00000  Uiso   1.00
C677   C     0.50378   0.83349   0.38454   0.00000  Uiso   1.00
C678   C     0.49973   0.83649   0.11591   0.00000  Uiso   1.00
C679   C     0.46723   0.83924   0.40617   0.00000  Uiso   1.00
C680   C     0.53647   0.84383   0.09505   0.00000  Uiso   1.00
C681   C     0.46735   0.84498   0.45180   0.00000  Uiso   1.00
C682   C     0.53820   0.84629   0.04869   0.00000  Uiso   1.00
C683   C     0.50360   0.84218   0.47694   0.00000  Uiso   1.00
C684   C     0.50193   0.84202   0.02351   0.00000  Uiso   1.00
C685   C     0.54098   0.84152   0.45551   0.00000  Uiso   1.00
C686   C     0.46378   0.83968   0.04453   0.00000  Uiso   1.00
C687   C     0.43136   0.85480   0.47274   0.00000  Uiso   1.00
C688   C     0.57492   0.85432   0.02685   0.00000  Uiso   1.00
Cu689  Cu    0.50000   0.88022   0.25000   0.00000  Uiso   1.00
Cu690  Cu    0.50000   0.78645   0.25000   0.00000  Uiso   1.00
H691   H     0.37178   0.75926   0.25418   0.00000  Uiso   1.00
H692   H     0.62815   0.90689   0.25391   0.00000  Uiso   1.00
H693   H     0.63147   0.75855   0.25805   0.00000  Uiso   1.00
H694   H     0.36836   0.90765   0.24935   0.00000  Uiso   1.00
N695   N     0.50000   0.95069   0.25000   0.00000  Uiso   1.00
N696   N     0.50000   0.71598   0.25000   0.00000  Uiso   1.00
O697   O     0.43988   0.87291   0.25000   0.00000  Uiso   1.00
O698   O     0.56012   0.79375   0.25000   0.00000  Uiso   1.00
O699   O     0.56012   0.87291   0.25000   0.00000  Uiso   1.00
O700   O     0.43988   0.79375   0.25000   0.00000  Uiso   1.00
O701   O     0.49999   0.87293   0.18513   0.00000  Uiso   1.00
O702   O     0.50001   0.79373   0.31487   0.00000  Uiso   1.00
O703   O     0.50001   0.87293   0.31487   0.00000  Uiso   1.00
O704   O     0.49999   0.79373   0.18513   0.00000  Uiso   1.00
C705   C     0.57871   0.82333   0.38732   0.00000  Uiso   1.00
H706   H     0.59307   0.78994   0.39272   0.00000  Uiso   1.00
O707   O     0.59621   0.85278   0.36657   0.00000  Uiso   1.00
C708   C     0.42518   0.83876   0.11730   0.00000  Uiso   1.00
H709   H     0.42232   0.86294   0.14328   0.00000  Uiso   1.00
O710   O     0.39957   0.80933   0.11436   0.00000  Uiso   1.00
O711   O     0.43070   0.83111   0.38456   0.00000  Uiso   1.00
C712   C     0.41932   0.86915   0.35744   0.00000  Uiso   1.00
H713   H     0.42282   0.85949   0.32378   0.00000  Uiso   1.00
H714   H     0.43649   0.90122   0.36360   0.00000  Uiso   1.00
H715   H     0.38670   0.87699   0.36109   0.00000  Uiso   1.00
O716   O     0.57022   0.85505   0.12047   0.00000  Uiso   1.00
C717   C     0.58588   0.81589   0.14361   0.00000  Uiso   1.00
H718   H     0.57001   0.78318   0.13756   0.00000  Uiso   1.00
H719   H     0.58538   0.82301   0.17810   0.00000  Uiso   1.00
H720   H     0.61819   0.81032   0.13664   0.00000  Uiso   1.00
C721   C     0.40218   0.88783   0.45111   0.00000  Uiso   1.00
H722   H     0.41342   0.92031   0.43791   0.00000  Uiso   1.00
O723   O     0.36674   0.87925   0.44525   0.00000  Uiso   1.00
C724   C     0.61130   0.87184   0.05017   0.00000  Uiso   1.00
H725   H     0.61689   0.90874   0.04980   0.00000  Uiso   1.00
O726   O     0.63541   0.84550   0.06863   0.00000  Uiso   1.00
C727   C     0.38677   0.84301   0.03404   0.00000  Uiso   1.00
H728   H     0.35763   0.84175   0.01682   0.00000  Uiso   1.00
O729   O     0.36873   0.80724   0.03332   0.00000  Uiso   1.00
C730   C     0.61606   0.85807   0.46137   0.00000  Uiso   1.00
H731   H     0.62382   0.89237   0.44978   0.00000  Uiso   1.00
O732   O     0.63980   0.82575   0.45812   0.00000  Uiso   1.00
O733   O     0.46883   0.71729   0.17868   0.00000  Uiso   1.00
C734   C     0.42711   0.72942   0.17909   0.00000  Uiso   1.00
H735   H     0.42284   0.76667   0.18319   0.00000  Uiso   1.00
H736   H     0.40939   0.70952   0.20315   0.00000  Uiso   1.00
H737   H     0.41346   0.72350   0.14611   0.00000  Uiso   1.00
O738   O     0.52258   0.95632   0.32521   0.00000  Uiso   1.00
C739   C     0.56236   0.94033   0.33519   0.00000  Uiso   1.00
H740   H     0.56866   0.90889   0.31741   0.00000  Uiso   1.00
H741   H     0.56481   0.93266   0.37105   0.00000  Uiso   1.00
H742   H     0.58586   0.96561   0.32752   0.00000  Uiso   1.00
O743   O     0.56202   0.70704   0.28918   0.00000  Uiso   1.00
C744   C     0.56427   0.72466   0.33157   0.00000  Uiso   1.00
H745   H     0.56740   0.76220   0.32868   0.00000  Uiso   1.00
H746   H     0.59274   0.71160   0.34800   0.00000  Uiso   1.00
H747   H     0.53864   0.71570   0.35275   0.00000  Uiso   1.00
O748   O     0.48187   0.95802   0.17296   0.00000  Uiso   1.00
C749   C     0.44144   0.94943   0.15969   0.00000  Uiso   1.00
H750   H     0.42579   0.92786   0.18418   0.00000  Uiso   1.00
H751   H     0.44227   0.93208   0.12792   0.00000  Uiso   1.00
H752   H     0.42365   0.98106   0.15259   0.00000  Uiso   1.00
C753   C     0.75405   0.83356   0.24858   0.00000  Uiso   1.00
C754   C     0.91235   0.83297   0.25447   0.00000  Uiso   1.00
C755   C     0.76162   0.84482   0.01730   0.00000  Uiso   1.00
C756   C     0.90995   0.85010   0.48116   0.00000  Uiso   1.00
C757   C     0.68868   0.79175   0.25380   0.00000  Uiso   1.00
C758   C     0.97792   0.87439   0.25396   0.00000  Uiso   1.00
C759   C     0.97981   0.79127   0.25633   0.00000  Uiso   1.00
C760   C     0.68675   0.87488   0.25118   0.00000  Uiso   1.00
C761   C     0.95722   0.83265   0.25579   0.00000  Uiso   1.00
C762   C     0.70927   0.83355   0.25065   0.00000  Uiso   1.00
C763   C     0.81445   0.69299   0.21637   0.00000  Uiso   1.00
C764   C     0.85227   0.97509   0.28324   0.00000  Uiso   1.00
C765   C     0.85730   0.69051   0.27902   0.00000  Uiso   1.00
C766   C     0.81770   0.97697   0.21427   0.00000  Uiso   1.00
C767   C     0.83295   0.83399   0.16453   0.00000  Uiso   1.00
C768   C     0.83596   0.83295   0.33564   0.00000  Uiso   1.00
C769   C     0.87414   0.83448   0.40920   0.00000  Uiso   1.00
C770   C     0.79629   0.83683   0.09137   0.00000  Uiso   1.00
C771   C     0.83711   0.83349   0.38454   0.00000  Uiso   1.00
C772   C     0.83307   0.83649   0.11591   0.00000  Uiso   1.00
C773   C     0.80057   0.83924   0.40617   0.00000  Uiso   1.00
C774   C     0.86980   0.84383   0.09505   0.00000  Uiso   1.00
C775   C     0.80068   0.84498   0.45180   0.00000  Uiso   1.00
C776   C     0.87154   0.84629   0.04869   0.00000  Uiso   1.00
C777   C     0.83694   0.84218   0.47694   0.00000  Uiso   1.00
C778   C     0.83527   0.84202   0.02351   0.00000  Uiso   1.00
C779   C     0.87431   0.84152   0.45551   0.00000  Uiso   1.00
C780   C     0.79712   0.83968   0.04453   0.00000  Uiso   1.00
C781   C     0.76469   0.85480   0.47274   0.00000  Uiso   1.00
C782   C     0.90825   0.85432   0.02685   0.00000  Uiso   1.00
Cu783  Cu    0.83333   0.88022   0.25000   0.00000  Uiso   1.00
Cu784  Cu    0.83333   0.78645   0.25000   0.00000  Uiso   1.00
H785   H     0.70511   0.75926   0.25418   0.00000  Uiso   1.00
H786   H     0.96148   0.90689   0.25391   0.00000  Uiso   1.00
H787   H     0.96480   0.75855   0.25805   0.00000  Uiso   1.00
H788   H     0.70169   0.90765   0.24935   0.00000  Uiso   1.00
N789   N     0.83333   0.95069   0.25000   0.00000  Uiso   1.00
N790   N     0.83333   0.71598   0.25000   0.00000  Uiso   1.00
O791   O     0.77321   0.87291   0.25000   0.00000  Uiso   1.00
O792   O     0.89345   0.79375   0.25000   0.00000  Uiso   1.00
O793   O     0.89345   0.87291   0.25000   0.00000  Uiso   1.00
O794   O     0.77321   0.79375   0.25000   0.00000  Uiso   1.00
O795   O     0.83332   0.87293   0.18513   0.00000  Uiso   1.00
O796   O     0.83334   0.79373   0.31487   0.00000  Uiso   1.00
O797   O     0.83334   0.87293   0.31487   0.00000  Uiso   1.00
O798   O     0.83332   0.79373   0.18513   0.00000  Uiso   1.00
C799   C     0.91204   0.82333   0.38732   0.00000  Uiso   1.00
H800   H     0.92640   0.78994   0.39272   0.00000  Uiso   1.00
O801   O     0.92954   0.85278   0.36657   0.00000  Uiso   1.00
C802   C     0.75851   0.83876   0.11730   0.00000  Uiso   1.00
H803   H     0.75566   0.86294   0.14328   0.00000  Uiso   1.00
O804   O     0.73291   0.80933   0.11436   0.00000  Uiso   1.00
O805   O     0.76403   0.83111   0.38456   0.00000  Uiso   1.00
C806   C     0.75266   0.86915   0.35744   0.00000  Uiso   1.00
H807   H     0.75616   0.85949   0.32378   0.00000  Uiso   1.00
H808   H     0.76982   0.90122   0.36360   0.00000  Uiso   1.00
H809   H     0.72003   0.87699   0.36109   0.00000  Uiso   1.00
O810   O     0.90355   0.85505   0.12047   0.00000  Uiso   1.00
C811   C     0.91921   0.81589   0.14361   0.00000  Uiso   1.00
H812   H     0.90335   0.78318   0.13756   0.00000  Uiso   1.00
H813   H     0.91871   0.82301   0.17810   0.00000  Uiso   1.00
H814   H     0.95152   0.81032   0.13664   0.00000  Uiso   1.00
C815   C     0.73551   0.88783   0.45111   0.00000  Uiso   1.00
H816   H     0.74676   0.92031   0.43791   0.00000  Uiso   1.00
O817   O     0.70008   0.87925   0.44525   0.00000  Uiso   1.00
C818   C     0.94463   0.87184   0.05017   0.00000  Uiso   1.00
H819   H     0.95022   0.90874   0.04980   0.00000  Uiso   1.00
O820   O     0.96875   0.84550   0.06863   0.00000  Uiso   1.00
C821   C     0.72010   0.84301   0.03404   0.00000  Uiso   1.00
H822   H     0.69096   0.84175   0.01682   0.00000  Uiso   1.00
O823   O     0.70206   0.80724   0.03332   0.00000  Uiso   1.00
C824   C     0.94939   0.85807   0.46137   0.00000  Uiso   1.00
H825   H     0.95715   0.89237   0.44978   0.00000  Uiso   1.00
O826   O     0.97314   0.82575   0.45812   0.00000  Uiso   1.00
O827   O     0.80216   0.71729   0.17868   0.00000  Uiso   1.00
C828   C     0.76045   0.72942   0.17909   0.00000  Uiso   1.00
H829   H     0.75617   0.76667   0.18319   0.00000  Uiso   1.00
H830   H     0.74272   0.70952   0.20315   0.00000  Uiso   1.00
H831   H     0.74679   0.72350   0.14611   0.00000  Uiso   1.00
O832   O     0.85592   0.95632   0.32521   0.00000  Uiso   1.00
C833   C     0.89569   0.94033   0.33519   0.00000  Uiso   1.00
H834   H     0.90199   0.90889   0.31741   0.00000  Uiso   1.00
H835   H     0.89814   0.93266   0.37105   0.00000  Uiso   1.00
H836   H     0.91920   0.96561   0.32752   0.00000  Uiso   1.00
O837   O     0.89535   0.70704   0.28918   0.00000  Uiso   1.00
C838   C     0.89760   0.72466   0.33157   0.00000  Uiso   1.00
H839   H     0.90074   0.76220   0.32868   0.00000  Uiso   1.00
H840   H     0.92607   0.71160   0.34800   0.00000  Uiso   1.00
H841   H     0.87197   0.71570   0.35275   0.00000  Uiso   1.00
O842   O     0.81520   0.95802   0.17296   0.00000  Uiso   1.00
C843   C     0.77478   0.94943   0.15969   0.00000  Uiso   1.00
H844   H     0.75912   0.92786   0.18418   0.00000  Uiso   1.00
H845   H     0.77560   0.93208   0.12792   0.00000  Uiso   1.00
H846   H     0.75698   0.98106   0.15259   0.00000  Uiso   1.00
C847   C     0.08738   0.16690   0.74858   0.00000  Uiso   1.00
C848   C     0.24568   0.16630   0.75447   0.00000  Uiso   1.00
C849   C     0.09495   0.17815   0.51730   0.00000  Uiso   1.00
C850   C     0.24328   0.18343   0.98116   0.00000  Uiso   1.00
C851   C     0.02201   0.12508   0.75380   0.00000  Uiso   1.00
C852   C     0.31125   0.20772   0.75396   0.00000  Uiso   1.00
C853   C     0.31314   0.12460   0.75633   0.00000  Uiso   1.00
C854   C     0.02008   0.20822   0.75118   0.00000  Uiso   1.00
C855   C     0.29056   0.16598   0.75579   0.00000  Uiso   1.00
C856   C     0.04261   0.16688   0.75065   0.00000  Uiso   1.00
C857   C     0.14778   0.02632   0.71637   0.00000  Uiso   1.00
C858   C     0.18560   0.30842   0.78324   0.00000  Uiso   1.00
C859   C     0.19064   0.02384   0.77902   0.00000  Uiso   1.00
C860   C     0.15104   0.31030   0.71427   0.00000  Uiso   1.00
C861   C     0.16628   0.16733   0.66453   0.00000  Uiso   1.00
C862   C     0.16929   0.16629   0.83564   0.00000  Uiso   1.00
C863   C     0.20748   0.16781   0.90920   0.00000  Uiso   1.00
C864   C     0.12962   0.17017   0.59137   0.00000  Uiso   1.00
C865   C     0.17044   0.16682   0.88454   0.00000  Uiso   1.00
C866   C     0.16640   0.16982   0.61591   0.00000  Uiso   1.00
C867   C     0.13390   0.17257   0.90617   0.00000  Uiso   1.00
C868   C     0.20314   0.17716   0.59505   0.00000  Uiso   1.00
C869   C     0.13401   0.17831   0.95180   0.00000  Uiso   1.00
C870   C     0.20487   0.17962   0.54869   0.00000  Uiso   1.00
C871   C     0.17027   0.17551   0.97694   0.00000  Uiso   1.00
C872   C     0.16860   0.17536   0.52351   0.00000  Uiso   1.00
C873   C     0.20764   0.17485   0.95551   0.00000  Uiso   1.00
C874   C     0.13045   0.17301   0.54453   0.00000  Uiso   1.00
C875   C     0.09802   0.18813   0.97274   0.00000  Uiso   1.00
C876   C     0.24158   0.18766   0.52685   0.00000  Uiso   1.00
Cu877  Cu    0.16667   0.21355   0.75000   0.00000  Uiso   1.00
Cu878  Cu    0.16667   0.11978   0.75000   0.00000  Uiso   1.00
H879   H     0.03844   0.09260   0.75418   0.00000  Uiso   1.00
H880   H     0.29481   0.24022   0.75391   0.00000  Uiso   1.00
H881   H     0.29813   0.09188   0.75805   0.00000  Uiso   1.00
H882   H     0.03502   0.24099   0.74935   0.00000  Uiso   1.00
N883   N     0.16667   0.28402   0.75000   0.00000  Uiso   1.00
N884   N     0.16667   0.04931   0.75000   0.00000  Uiso   1.00
O885   O     0.10655   0.20625   0.75000   0.00000  Uiso   1.00
O886   O     0.22679   0.12709   0.75000   0.00000  Uiso   1.00
O887   O     0.22679   0.20625   0.75000   0.00000  Uiso   1.00
O888   O     0.10655   0.12709   0.75000   0.00000  Uiso   1.00
O889   O     0.16666   0.20627   0.68513   0.00000  Uiso   1.00
O890   O     0.16668   0.12707   0.81487   0.00000  Uiso   1.00
O891   O     0.16668   0.20627   0.81487   0.00000  Uiso   1.00
O892   O     0.16666   0.12707   0.68513   0.00000  Uiso   1.00
C893   C     0.24537   0.15666   0.88732   0.00000  Uiso   1.00
H894   H     0.25973   0.12327   0.89272   0.00000  Uiso   1.00
O895   O     0.26288   0.18611   0.86657   0.00000  Uiso   1.00
C896   C     0.09184   0.17209   0.61730   0.00000  Uiso   1.00
H897   H     0.08899   0.19627   0.64328   0.00000  Uiso   1.00
O898   O     0.06624   0.14266   0.61436   0.00000  Uiso   1.00
O899   O     0.09736   0.16444   0.88456   0.00000  Uiso   1.00
C900   C     0.08599   0.20248   0.85744   0.00000  Uiso   1.00
H901   H     0.08949   0.19282   0.82378   0.00000  Uiso   1.00
H902   H     0.10315   0.23455   0.86360   0.00000  Uiso   1.00
H903   H     0.05337   0.21033   0.86109   0.00000  Uiso   1.00
O904   O     0.23689   0.18838   0.62047   0.00000  Uiso   1.00
C905   C     0.25254   0.14922   0.64361   0.00000  Uiso   1.00
H906   H     0.23668   0.11651   0.63756   0.00000  Uiso   1.00
H907   H     0.25204   0.15634   0.67810   0.00000  Uiso   1.00
H908   H     0.28485   0.14365   0.63664   0.00000  Uiso   1.00
C909   C     0.06885   0.22117   0.95111   0.00000  Uiso   1.00
H910   H     0.08009   0.25365   0.93791   0.00000  Uiso   1.00
O911   O     0.03341   0.21258   0.94525   0.00000  Uiso   1.00
C912   C     0.27796   0.20517   0.55017   0.00000  Uiso   1.00
H913   H     0.28356   0.24207   0.54980   0.00000  Uiso   1.00
O914   O     0.30208   0.17883   0.56863   0.00000  Uiso   1.00
C915   C     0.05344   0.17634   0.53404   0.00000  Uiso   1.00
H916   H     0.02430   0.17508   0.51682   0.00000  Uiso   1.00
O917   O     0.03539   0.14058   0.53332   0.00000  Uiso   1.00
C918   C     0.28272   0.19140   0.96137   0.00000  Uiso   1.00
H919   H     0.29049   0.22571   0.94978   0.00000  Uiso   1.00
O920   O     0.30647   0.15908   0.95812   0.00000  Uiso   1.00
O921   O     0.13549   0.05062   0.67868   0.00000  Uiso   1.00
C922   C     0.09378   0.06276   0.67909   0.00000  Uiso   1.00
H923   H     0.08950   0.10000   0.68319   0.00000  Uiso   1.00
H924   H     0.07606   0.04286   0.70315   0.00000  Uiso   1.00
H925   H     0.08012   0.05683   0.64611   0.00000  Uiso   1.00
O926   O     0.18925   0.28965   0.82521   0.00000  Uiso   1.00
C927   C     0.22903   0.27366   0.83519   0.00000  Uiso   1.00
H928   H     0.23533   0.24222   0.81741   0.00000  Uiso   1.00
H929   H     0.23147   0.26600   0.87105   0.00000  Uiso   1.00
H930   H     0.25253   0.29894   0.82752   0.00000  Uiso   1.00
O931   O     0.22869   0.04037   0.78918   0.00000  Uiso   1.00
C932   C     0.23094   0.05799   0.83157   0.00000  Uiso   1.00
H933   H     0.23407   0.09554   0.82868   0.00000  Uiso   1.00
H934   H     0.25941   0.04493   0.84800   0.00000  Uiso   1.00
H935   H     0.20530   0.04903   0.85275   0.00000  Uiso   1.00
O936   O     0.14854   0.29135   0.67296   0.00000  Uiso   1.00
C937   C     0.10811   0.28276   0.65969   0.00000  Uiso   1.00
H938   H     0.09246   0.26119   0.68418   0.00000  Uiso   1.00
H939   H     0.10893   0.26541   0.62792   0.00000  Uiso   1.00
H940   H     0.09031   0.31439   0.65259   0.00000  Uiso   1.00
C941   C     0.42071   0.16690   0.74858   0.00000  Uiso   1.00
C942   C     0.57902   0.16630   0.75447   0.00000  Uiso   1.00
C943   C     0.42828   0.17815   0.51730   0.00000  Uiso   1.00
C944   C     0.57661   0.18343   0.98116   0.00000  Uiso   1.00
C945   C     0.35535   0.12508   0.75380   0.00000  Uiso   1.00
C946   C     0.64459   0.20772   0.75396   0.00000  Uiso   1.00
C947   C     0.64648   0.12460   0.75633   0.00000  Uiso   1.00
C948   C     0.35341   0.20822   0.75118   0.00000  Uiso   1.00
C949   C     0.62389   0.16598   0.75579   0.00000  Uiso   1.00
C950   C     0.37594   0.16688   0.75065   0.00000  Uiso   1.00
C951   C     0.48111   0.02632   0.71637   0.00000  Uiso   1.00
C952   C     0.51893   0.30842   0.78324   0.00000  Uiso   1.00
C953   C     0.52397   0.02384   0.77902   0.00000  Uiso   1.00
C954   C     0.48437   0.31030   0.71427   0.00000  Uiso   1.00
C955   C     0.49962   0.16733   0.66453   0.00000  Uiso   1.00
C956   C     0.50263   0.16629   0.83564   0.00000  Uiso   1.00
C957   C     0.54081   0.16781   0.90920   0.00000  Uiso   1.00
C958   C     0.46295   0.17017   0.59137   0.00000  Uiso   1.00
C959   C     0.50378   0.16682   0.88454   0.00000  Uiso   1.00
C960   C     0.49973   0.16982   0.61591   0.00000  Uiso   1.00
C961   C     0.46723   0.17257   0.90617   0.00000  Uiso   1.00
C962   C     0.53647   0.17716   0.59505   0.00000  Uiso   1.00
C963   C     0.46735   0.17831   0.95180   0.00000  Uiso   1.00
C964   C     0.53820   0.17962   0.54869   0.00000  Uiso   1.00
C965   C     0.50360   0.17551   0.97694   0.00000  Uiso   1.00
C966   C     0.50193   0.17536   0.52351   0.00000  Uiso   1.00
C967   C     0.54098   0.17485   0.95551   0.00000  Uiso   1.00
C968   C     0.46378   0.17301   0.54453   0.00000  Uiso   1.00
C969   C     0.43136   0.18813   0.97274   0.00000  Uiso   1.00
C970   C     0.57492   0.18766   0.52685   0.00000  Uiso   1.00
Cu971  Cu    0.50000   0.21355   0.75000   0.00000  Uiso   1.00
Cu972  Cu    0.50000   0.11978   0.75000   0.00000  Uiso   1.00
H973   H     0.37178   0.09260   0.75418   0.00000  Uiso   1.00
H974   H     0.62815   0.24022   0.75391   0.00000  Uiso   1.00
H975   H     0.63147   0.09188   0.75805   0.00000  Uiso   1.00
H976   H     0.36836   0.24099   0.74935   0.00000  Uiso   1.00
N977   N     0.50000   0.28402   0.75000   0.00000  Uiso   1.00
N978   N     0.50000   0.04931   0.75000   0.00000  Uiso   1.00
O979   O     0.43988   0.20625   0.75000   0.00000  Uiso   1.00
O980   O     0.56012   0.12709   0.75000   0.00000  Uiso   1.00
O981   O     0.56012   0.20625   0.75000   0.00000  Uiso   1.00
O982   O     0.43988   0.12709   0.75000   0.00000  Uiso   1.00
O983   O     0.49999   0.20627   0.68513   0.00000  Uiso   1.00
O984   O     0.50001   0.12707   0.81487   0.00000  Uiso   1.00
O985   O     0.50001   0.20627   0.81487   0.00000  Uiso   1.00
O986   O     0.49999   0.12707   0.68513   0.00000  Uiso   1.00
C987   C     0.57871   0.15666   0.88732   0.00000  Uiso   1.00
H988   H     0.59307   0.12327   0.89272   0.00000  Uiso   1.00
O989   O     0.59621   0.18611   0.86657   0.00000  Uiso   1.00
C990   C     0.42518   0.17209   0.61730   0.00000  Uiso   1.00
H991   H     0.42232   0.19627   0.64328   0.00000  Uiso   1.00
O992   O     0.39957   0.14266   0.61436   0.00000  Uiso   1.00
O993   O     0.43070   0.16444   0.88456   0.00000  Uiso   1.00
C994   C     0.41932   0.20248   0.85744   0.00000  Uiso   1.00
H995   H     0.42282   0.19282   0.82378   0.00000  Uiso   1.00
H996   H     0.43649   0.23455   0.86360   0.00000  Uiso   1.00
H997   H     0.38670   0.21033   0.86109   0.00000  Uiso   1.00
O998   O     0.57022   0.18838   0.62047   0.00000  Uiso   1.00
C999   C     0.58588   0.14922   0.64361   0.00000  Uiso   1.00
H1000  H     0.57001   0.11651   0.63756   0.00000  Uiso   1.00
H1001  H     0.58538   0.15634   0.67810   0.00000  Uiso   1.00
H1002  H     0.61819   0.14365   0.63664   0.00000  Uiso   1.00
C1003  C     0.40218   0.22117   0.95111   0.00000  Uiso   1.00
H1004  H     0.41342   0.25365   0.93791   0.00000  Uiso   1.00
O1005  O     0.36674   0.21258   0.94525   0.00000  Uiso   1.00
C1006  C     0.61130   0.20517   0.55017   0.00000  Uiso   1.00
H1007  H     0.61689   0.24207   0.54980   0.00000  Uiso   1.00
O1008  O     0.63541   0.17883   0.56863   0.00000  Uiso   1.00
C1009  C     0.38677   0.17634   0.53404   0.00000  Uiso   1.00
H1010  H     0.35763   0.17508   0.51682   0.00000  Uiso   1.00
O1011  O     0.36873   0.14058   0.53332   0.00000  Uiso   1.00
C1012  C     0.61606   0.19140   0.96137   0.00000  Uiso   1.00
H1013  H     0.62382   0.22571   0.94978   0.00000  Uiso   1.00
O1014  O     0.63980   0.15908   0.95812   0.00000  Uiso   1.00
O1015  O     0.46883   0.05062   0.67868   0.00000  Uiso   1.00
C1016  C     0.42711   0.06276   0.67909   0.00000  Uiso   1.00
H1017  H     0.42284   0.10000   0.68319   0.00000  Uiso   1.00
H1018  H     0.40939   0.04286   0.70315   0.00000  Uiso   1.00
H1019  H     0.41346   0.05683   0.64611   0.00000  Uiso   1.00
O1020  O     0.52258   0.28965   0.82521   0.00000  Uiso   1.00
C1021  C     0.56236   0.27366   0.83519   0.00000  Uiso   1.00
H1022  H     0.56866   0.24222   0.81741   0.00000  Uiso   1.00
H1023  H     0.56481   0.26600   0.87105   0.00000  Uiso   1.00
H1024  H     0.58586   0.29894   0.82752   0.00000  Uiso   1.00
O1025  O     0.56202   0.04037   0.78918   0.00000  Uiso   1.00
C1026  C     0.56427   0.05799   0.83157   0.00000  Uiso   1.00
H1027  H     0.56740   0.09554   0.82868   0.00000  Uiso   1.00
H1028  H     0.59274   0.04493   0.84800   0.00000  Uiso   1.00
H1029  H     0.53864   0.04903   0.85275   0.00000  Uiso   1.00
O1030  O     0.48187   0.29135   0.67296   0.00000  Uiso   1.00
C1031  C     0.44144   0.28276   0.65969   0.00000  Uiso   1.00
H1032  H     0.42579   0.26119   0.68418   0.00000  Uiso   1.00
H1033  H     0.44227   0.26541   0.62792   0.00000  Uiso   1.00
H1034  H     0.42365   0.31439   0.65259   0.00000  Uiso   1.00
C1035  C     0.75405   0.16690   0.74858   0.00000  Uiso   1.00
C1036  C     0.91235   0.16630   0.75447   0.00000  Uiso   1.00
C1037  C     0.76162   0.17815   0.51730   0.00000  Uiso   1.00
C1038  C     0.90995   0.18343   0.98116   0.00000  Uiso   1.00
C1039  C     0.68868   0.12508   0.75380   0.00000  Uiso   1.00
C1040  C     0.97792   0.20772   0.75396   0.00000  Uiso   1.00
C1041  C     0.97981   0.12460   0.75633   0.00000  Uiso   1.00
C1042  C     0.68675   0.20822   0.75118   0.00000  Uiso   1.00
C1043  C     0.95722   0.16598   0.75579   0.00000  Uiso   1.00
C1044  C     0.70927   0.16688   0.75065   0.00000  Uiso   1.00
C1045  C     0.81445   0.02632   0.71637   0.00000  Uiso   1.00
C1046  C     0.85227   0.30842   0.78324   0.00000  Uiso   1.00
C1047  C     0.85730   0.02384   0.77902   0.00000  Uiso   1.00
C1048  C     0.81770   0.31030   0.71427   0.00000  Uiso   1.00
C1049  C     0.83295   0.16733   0.66453   0.00000  Uiso   1.00
C1050  C     0.83596   0.16629   0.83564   0.00000  Uiso   1.00
C1051  C     0.87414   0.16781   0.90920   0.00000  Uiso   1.00
C1052  C     0.79629   0.17017   0.59137   0.00000  Uiso   1.00
C1053  C     0.83711   0.16682   0.88454   0.00000  Uiso   1.00
C1054  C     0.83307   0.16982   0.61591   0.00000  Uiso   1.00
C1055  C     0.80057   0.17257   0.90617   0.00000  Uiso   1.00
C1056  C     0.86980   0.17716   0.59505   0.00000  Uiso   1.00
C1057  C     0.80068   0.17831   0.95180   0.00000  Uiso   1.00
C1058  C     0.87154   0.17962   0.54869   0.00000  Uiso   1.00
C1059  C     0.83694   0.17551   0.97694   0.00000  Uiso   1.00
C1060  C     0.83527   0.17536   0.52351   0.00000  Uiso   1.00
C1061  C     0.87431   0.17485   0.95551   0.00000  Uiso   1.00
C1062  C     0.79712   0.17301   0.54453   0.00000  Uiso   1.00
C1063  C     0.76469   0.18813   0.97274   0.00000  Uiso   1.00
C1064  C     0.90825   0.18766   0.52685   0.00000  Uiso   1.00
Cu1065 Cu    0.83333   0.21355   0.75000   0.00000  Uiso   1.00
Cu1066 Cu    0.83333   0.11978   0.75000   0.00000  Uiso   1.00
H1067  H     0.70511   0.09260   0.75418   0.00000  Uiso   1.00
H1068  H     0.96148   0.24022   0.75391   0.00000  Uiso   1.00
H1069  H     0.96480   0.09188   0.75805   0.00000  Uiso   1.00
H1070  H     0.70169   0.24099   0.74935   0.00000  Uiso   1.00
N1071  N     0.83333   0.28402   0.75000   0.00000  Uiso   1.00
N1072  N     0.83333   0.04931   0.75000   0.00000  Uiso   1.00
O1073  O     0.77321   0.20625   0.75000   0.00000  Uiso   1.00
O1074  O     0.89345   0.12709   0.75000   0.00000  Uiso   1.00
O1075  O     0.89345   0.20625   0.75000   0.00000  Uiso   1.00
O1076  O     0.77321   0.12709   0.75000   0.00000  Uiso   1.00
O1077  O     0.83332   0.20627   0.68513   0.00000  Uiso   1.00
O1078  O     0.83334   0.12707   0.81487   0.00000  Uiso   1.00
O1079  O     0.83334   0.20627   0.81487   0.00000  Uiso   1.00
O1080  O     0.83332   0.12707   0.68513   0.00000  Uiso   1.00
C1081  C     0.91204   0.15666   0.88732   0.00000  Uiso   1.00
H1082  H     0.92640   0.12327   0.89272   0.00000  Uiso   1.00
O1083  O     0.92954   0.18611   0.86657   0.00000  Uiso   1.00
C1084  C     0.75851   0.17209   0.61730   0.00000  Uiso   1.00
H1085  H     0.75566   0.19627   0.64328   0.00000  Uiso   1.00
O1086  O     0.73291   0.14266   0.61436   0.00000  Uiso   1.00
O1087  O     0.76403   0.16444   0.88456   0.00000  Uiso   1.00
C1088  C     0.75266   0.20248   0.85744   0.00000  Uiso   1.00
H1089  H     0.75616   0.19282   0.82378   0.00000  Uiso   1.00
H1090  H     0.76982   0.23455   0.86360   0.00000  Uiso   1.00
H1091  H     0.72003   0.21033   0.86109   0.00000  Uiso   1.00
O1092  O     0.90355   0.18838   0.62047   0.00000  Uiso   1.00
C1093  C     0.91921   0.14922   0.64361   0.00000  Uiso   1.00
H1094  H     0.90335   0.11651   0.63756   0.00000  Uiso   1.00
H1095  H     0.91871   0.15634   0.67810   0.00000  Uiso   1.00
H1096  H     0.95152   0.14365   0.63664   0.00000  Uiso   1.00
C1097  C     0.73551   0.22117   0.95111   0.00000  Uiso   1.00
H1098  H     0.74676   0.25365   0.93791   0.00000  Uiso   1.00
O1099  O     0.70008   0.21258   0.94525   0.00000  Uiso   1.00
C1100  C     0.94463   0.20517   0.55017   0.00000  Uiso   1.00
H1101  H     0.95022   0.24207   0.54980   0.00000  Uiso   1.00
O1102  O     0.96875   0.17883   0.56863   0.00000  Uiso   1.00
C1103  C     0.72010   0.17634   0.53404   0.00000  Uiso   1.00
H1104  H     0.69096   0.17508   0.51682   0.00000  Uiso   1.00
O1105  O     0.70206   0.14058   0.53332   0.00000  Uiso   1.00
C1106  C     0.94939   0.19140   0.96137   0.00000  Uiso   1.00
H1107  H     0.95715   0.22571   0.94978   0.00000  Uiso   1.00
O1108  O     0.97314   0.15908   0.95812   0.00000  Uiso   1.00
O1109  O     0.80216   0.05062   0.67868   0.00000  Uiso   1.00
C1110  C     0.76045   0.06276   0.67909   0.00000  Uiso   1.00
H1111  H     0.75617   0.10000   0.68319   0.00000  Uiso   1.00
H1112  H     0.74272   0.04286   0.70315   0.00000  Uiso   1.00
H1113  H     0.74679   0.05683   0.64611   0.00000  Uiso   1.00
O1114  O     0.85592   0.28965   0.82521   0.00000  Uiso   1.00
C1115  C     0.89569   0.27366   0.83519   0.00000  Uiso   1.00
H1116  H     0.90199   0.24222   0.81741   0.00000  Uiso   1.00
H1117  H     0.89814   0.26600   0.87105   0.00000  Uiso   1.00
H1118  H     0.91920   0.29894   0.82752   0.00000  Uiso   1.00
O1119  O     0.89535   0.04037   0.78918   0.00000  Uiso   1.00
C1120  C     0.89760   0.05799   0.83157   0.00000  Uiso   1.00
H1121  H     0.90074   0.09554   0.82868   0.00000  Uiso   1.00
H1122  H     0.92607   0.04493   0.84800   0.00000  Uiso   1.00
H1123  H     0.87197   0.04903   0.85275   0.00000  Uiso   1.00
O1124  O     0.81520   0.29135   0.67296   0.00000  Uiso   1.00
C1125  C     0.77478   0.28276   0.65969   0.00000  Uiso   1.00
H1126  H     0.75912   0.26119   0.68418   0.00000  Uiso   1.00
H1127  H     0.77560   0.26541   0.62792   0.00000  Uiso   1.00
H1128  H     0.75698   0.31439   0.65259   0.00000  Uiso   1.00
C1129  C     0.08738   0.50023   0.74858   0.00000  Uiso   1.00
C1130  C     0.24568   0.49963   0.75447   0.00000  Uiso   1.00
C1131  C     0.09495   0.51148   0.51730   0.00000  Uiso   1.00
C1132  C     0.24328   0.51676   0.98116   0.00000  Uiso   1.00
C1133  C     0.02201   0.45841   0.75380   0.00000  Uiso   1.00
C1134  C     0.31125   0.54106   0.75396   0.00000  Uiso   1.00
C1135  C     0.31314   0.45794   0.75633   0.00000  Uiso   1.00
C1136  C     0.02008   0.54155   0.75118   0.00000  Uiso   1.00
C1137  C     0.29056   0.49932   0.75579   0.00000  Uiso   1.00
C1138  C     0.04261   0.50022   0.75065   0.00000  Uiso   1.00
C1139  C     0.14778   0.35965   0.71637   0.00000  Uiso   1.00
C1140  C     0.18560   0.64175   0.78324   0.00000  Uiso   1.00
C1141  C     0.19064   0.35717   0.77902   0.00000  Uiso   1.00
C1142  C     0.15104   0.64364   0.71427   0.00000  Uiso   1.00
C1143  C     0.16628   0.50066   0.66453   0.00000  Uiso   1.00
C1144  C     0.16929   0.49962   0.83564   0.00000  Uiso   1.00
C1145  C     0.20748   0.50115   0.90920   0.00000  Uiso   1.00
C1146  C     0.12962   0.50350   0.59137   0.00000  Uiso   1.00
C1147  C     0.17044   0.50016   0.88454   0.00000  Uiso   1.00
C1148  C     0.16640   0.50316   0.61591   0.00000  Uiso   1.00
C1149  C     0.13390   0.50590   0.90617   0.00000  Uiso   1.00
C1150  C     0.20314   0.51049   0.59505   0.00000  Uiso   1.00
C1151  C     0.13401   0.51164   0.95180   0.00000  Uiso   1.00
C1152  C     0.20487   0.51295   0.54869   0.00000  Uiso   1.00
C1153  C     0.17027   0.50884   0.97694   0.00000  Uiso   1.00
C1154  C     0.16860   0.50869   0.52351   0.00000  Uiso   1.00
C1155  C     0.20764   0.50819   0.95551   0.00000  Uiso   1.00
C1156  C     0.13045   0.50635   0.54453   0.00000  Uiso   1.00
C1157  C     0.09802   0.52146   0.97274   0.00000  Uiso   1.00
C1158  C     0.24158   0.52099   0.52685   0.00000  Uiso   1.00
Cu1159 Cu    0.16667   0.54689   0.75000   0.00000  Uiso   1.00
Cu1160 Cu    0.16667   0.45311   0.75000   0.00000  Uiso   1.00
H1161  H     0.03844   0.42593   0.75418   0.00000  Uiso   1.00
H1162  H     0.29481   0.57355   0.75391   0.00000  Uiso   1.00
H1163  H     0.29813   0.42521   0.75805   0.00000  Uiso   1.00
H1164  H     0.03502   0.57432   0.74935   0.00000  Uiso   1.00
N1165  N     0.16667   0.61736   0.75000   0.00000  Uiso   1.00
N1166  N     0.16667   0.38264   0.75000   0.00000  Uiso   1.00
O1167  O     0.10655   0.53958   0.75000   0.00000  Uiso   1.00
O1168  O     0.22679   0.46042   0.75000   0.00000  Uiso   1.00
O1169  O     0.22679   0.53958   0.75000   0.00000  Uiso   1.00
O1170  O     0.10655   0.46042   0.75000   0.00000  Uiso   1.00
O1171  O     0.16666   0.53960   0.68513   0.00000  Uiso   1.00
O1172  O     0.16668   0.46040   0.81487   0.00000  Uiso   1.00
O1173  O     0.16668   0.53960   0.81487   0.00000  Uiso   1.00
O1174  O     0.16666   0.46040   0.68513   0.00000  Uiso   1.00
C1175  C     0.24537   0.48999   0.88732   0.00000  Uiso   1.00
H1176  H     0.25973   0.45660   0.89272   0.00000  Uiso   1.00
O1177  O     0.26288   0.51944   0.86657   0.00000  Uiso   1.00
C1178  C     0.09184   0.50543   0.61730   0.00000  Uiso   1.00
H1179  H     0.08899   0.52961   0.64328   0.00000  Uiso   1.00
O1180  O     0.06624   0.47599   0.61436   0.00000  Uiso   1.00
O1181  O     0.09736   0.49778   0.88456   0.00000  Uiso   1.00
C1182  C     0.08599   0.53581   0.85744   0.00000  Uiso   1.00
H1183  H     0.08949   0.52616   0.82378   0.00000  Uiso   1.00
H1184  H     0.10315   0.56788   0.86360   0.00000  Uiso   1.00
H1185  H     0.05337   0.54366   0.86109   0.00000  Uiso   1.00
O1186  O     0.23689   0.52171   0.62047   0.00000  Uiso   1.00
C1187  C     0.25254   0.48256   0.64361   0.00000  Uiso   1.00
H1188  H     0.23668   0.44985   0.63756   0.00000  Uiso   1.00
H1189  H     0.25204   0.48968   0.67810   0.00000  Uiso   1.00
H1190  H     0.28485   0.47698   0.63664   0.00000  Uiso   1.00
C1191  C     0.06885   0.55450   0.95111   0.00000  Uiso   1.00
H1192  H     0.08009   0.58698   0.93791   0.00000  Uiso   1.00
O1193  O     0.03341   0.54592   0.94525   0.00000  Uiso   1.00
C1194  C     0.27796   0.53850   0.55017   0.00000  Uiso   1.00
H1195  H     0.28356   0.57540   0.54980   0.00000  Uiso   1.00
O1196  O     0.30208   0.51216   0.56863   0.00000  Uiso   1.00
C1197  C     0.05344   0.50968   0.53404   0.00000  Uiso   1.00
H1198  H     0.02430   0.50842   0.51682   0.00000  Uiso   1.00
O1199  O     0.03539   0.47391   0.53332   0.00000  Uiso   1.00
C1200  C     0.28272   0.52474   0.96137   0.00000  Uiso   1.00
H1201  H     0.29049   0.55904   0.94978   0.00000  Uiso   1.00
O1202  O     0.30647   0.49242   0.95812   0.00000  Uiso   1.00
O1203  O     0.13549   0.38395   0.67868   0.00000  Uiso   1.00
C1204  C     0.09378   0.39609   0.67909   0.00000  Uiso   1.00
H1205  H     0.08950   0.43333   0.68319   0.00000  Uiso   1.00
H1206  H     0.07606   0.37619   0.70315   0.00000  Uiso   1.00
H1207  H     0.08012   0.39016   0.64611   0.00000  Uiso   1.00
O1208  O     0.18925   0.62299   0.82521   0.00000  Uiso   1.00
C1209  C     0.22903   0.60699   0.83519   0.00000  Uiso   1.00
H1210  H     0.23533   0.57556   0.81741   0.00000  Uiso   1.00
H1211  H     0.23147   0.59933   0.87105   0.00000  Uiso   1.00
H1212  H     0.25253   0.63228   0.82752   0.00000  Uiso   1.00
O1213  O     0.22869   0.37370   0.78918   0.00000  Uiso   1.00
C1214  C     0.23094   0.39133   0.83157   0.00000  Uiso   1.00
H1215  H     0.23407   0.42887   0.82868   0.00000  Uiso   1.00
H1216  H     0.25941   0.37827   0.84800   0.00000  Uiso   1.00
H1217  H     0.20530   0.38236   0.85275   0.00000  Uiso   1.00
O1218  O     0.14854   0.62468   0.67296   0.00000  Uiso   1.00
C1219  C     0.10811   0.61609   0.65969   0.00000  Uiso   1.00
H1220  H     0.09246   0.59452   0.68418   0.00000  Uiso   1.00
H1221  H     0.10893   0.59874   0.62792   0.00000  Uiso   1.00
H1222  H     0.09031   0.64773   0.65259   0.00000  Uiso   1.00
C1223  C     0.42071   0.50023   0.74858   0.00000  Uiso   1.00
C1224  C     0.57902   0.49963   0.75447   0.00000  Uiso   1.00
C1225  C     0.42828   0.51148   0.51730   0.00000  Uiso   1.00
C1226  C     0.57661   0.51676   0.98116   0.00000  Uiso   1.00
C1227  C     0.35535   0.45841   0.75380   0.00000  Uiso   1.00
C1228  C     0.64459   0.54106   0.75396   0.00000  Uiso   1.00
C1229  C     0.64648   0.45794   0.75633   0.00000  Uiso   1.00
C1230  C     0.35341   0.54155   0.75118   0.00000  Uiso   1.00
C1231  C     0.62389   0.49932   0.75579   0.00000  Uiso   1.00
C1232  C     0.37594   0.50022   0.75065   0.00000  Uiso   1.00
C1233  C     0.48111   0.35965   0.71637   0.00000  Uiso   1.00
C1234  C     0.51893   0.64175   0.78324   0.00000  Uiso   1.00
C1235  C     0.52397   0.35717   0.77902   0.00000  Uiso   1.00
C1236  C     0.48437   0.64364   0.71427   0.00000  Uiso   1.00
C1237  C     0.49962   0.50066   0.66453   0.00000  Uiso   1.00
C1238  C     0.50263   0.49962   0.83564   0.00000  Uiso   1.00
C1239  C     0.54081   0.50115   0.90920   0.00000  Uiso   1.00
C1240  C     0.46295   0.50350   0.59137   0.00000  Uiso   1.00
C1241  C     0.50378   0.50016   0.88454   0.00000  Uiso   1.00
C1242  C     0.49973   0.50316   0.61591   0.00000  Uiso   1.00
C1243  C     0.46723   0.50590   0.90617   0.00000  Uiso   1.00
C1244  C     0.53647   0.51049   0.59505   0.00000  Uiso   1.00
C1245  C     0.46735   0.51164   0.95180   0.00000  Uiso   1.00
C1246  C     0.53820   0.51295   0.54869   0.00000  Uiso   1.00
C1247  C     0.50360   0.50884   0.97694   0.00000  Uiso   1.00
C1248  C     0.50193   0.50869   0.52351   0.00000  Uiso   1.00
C1249  C     0.54098   0.50819   0.95551   0.00000  Uiso   1.00
C1250  C     0.46378   0.50635   0.54453   0.00000  Uiso   1.00
C1251  C     0.43136   0.52146   0.97274   0.00000  Uiso   1.00
C1252  C     0.57492   0.52099   0.52685   0.00000  Uiso   1.00
Cu1253 Cu    0.50000   0.54689   0.75000   0.00000  Uiso   1.00
Cu1254 Cu    0.50000   0.45311   0.75000   0.00000  Uiso   1.00
H1255  H     0.37178   0.42593   0.75418   0.00000  Uiso   1.00
H1256  H     0.62815   0.57355   0.75391   0.00000  Uiso   1.00
H1257  H     0.63147   0.42521   0.75805   0.00000  Uiso   1.00
H1258  H     0.36836   0.57432   0.74935   0.00000  Uiso   1.00
N1259  N     0.50000   0.61736   0.75000   0.00000  Uiso   1.00
N1260  N     0.50000   0.38264   0.75000   0.00000  Uiso   1.00
O1261  O     0.43988   0.53958   0.75000   0.00000  Uiso   1.00
O1262  O     0.56012   0.46042   0.75000   0.00000  Uiso   1.00
O1263  O     0.56012   0.53958   0.75000   0.00000  Uiso   1.00
O1264  O     0.43988   0.46042   0.75000   0.00000  Uiso   1.00
O1265  O     0.49999   0.53960   0.68513   0.00000  Uiso   1.00
O1266  O     0.50001   0.46040   0.81487   0.00000  Uiso   1.00
O1267  O     0.50001   0.53960   0.81487   0.00000  Uiso   1.00
O1268  O     0.49999   0.46040   0.68513   0.00000  Uiso   1.00
C1269  C     0.57871   0.48999   0.88732   0.00000  Uiso   1.00
H1270  H     0.59307   0.45660   0.89272   0.00000  Uiso   1.00
O1271  O     0.59621   0.51944   0.86657   0.00000  Uiso   1.00
C1272  C     0.42518   0.50543   0.61730   0.00000  Uiso   1.00
H1273  H     0.42232   0.52961   0.64328   0.00000  Uiso   1.00
O1274  O     0.39957   0.47599   0.61436   0.00000  Uiso   1.00
O1275  O     0.43070   0.49778   0.88456   0.00000  Uiso   1.00
C1276  C     0.41932   0.53581   0.85744   0.00000  Uiso   1.00
H1277  H     0.42282   0.52616   0.82378   0.00000  Uiso   1.00
H1278  H     0.43649   0.56788   0.86360   0.00000  Uiso   1.00
H1279  H     0.38670   0.54366   0.86109   0.00000  Uiso   1.00
O1280  O     0.57022   0.52171   0.62047   0.00000  Uiso   1.00
C1281  C     0.58588   0.48256   0.64361   0.00000  Uiso   1.00
H1282  H     0.57001   0.44985   0.63756   0.00000  Uiso   1.00
H1283  H     0.58538   0.48968   0.67810   0.00000  Uiso   1.00
H1284  H     0.61819   0.47698   0.63664   0.00000  Uiso   1.00
C1285  C     0.40218   0.55450   0.95111   0.00000  Uiso   1.00
H1286  H     0.41342   0.58698   0.93791   0.00000  Uiso   1.00
O1287  O     0.36674   0.54592   0.94525   0.00000  Uiso   1.00
C1288  C     0.61130   0.53850   0.55017   0.00000  Uiso   1.00
H1289  H     0.61689   0.57540   0.54980   0.00000  Uiso   1.00
O1290  O     0.63541   0.51216   0.56863   0.00000  Uiso   1.00
C1291  C     0.38677   0.50968   0.53404   0.00000  Uiso   1.00
H1292  H     0.35763   0.50842   0.51682   0.00000  Uiso   1.00
O1293  O     0.36873   0.47391   0.53332   0.00000  Uiso   1.00
C1294  C     0.61606   0.52474   0.96137   0.00000  Uiso   1.00
H1295  H     0.62382   0.55904   0.94978   0.00000  Uiso   1.00
O1296  O     0.63980   0.49242   0.95812   0.00000  Uiso   1.00
O1297  O     0.46883   0.38395   0.67868   0.00000  Uiso   1.00
C1298  C     0.42711   0.39609   0.67909   0.00000  Uiso   1.00
H1299  H     0.42284   0.43333   0.68319   0.00000  Uiso   1.00
H1300  H     0.40939   0.37619   0.70315   0.00000  Uiso   1.00
H1301  H     0.41346   0.39016   0.64611   0.00000  Uiso   1.00
O1302  O     0.52258   0.62299   0.82521   0.00000  Uiso   1.00
C1303  C     0.56236   0.60699   0.83519   0.00000  Uiso   1.00
H1304  H     0.56866   0.57556   0.81741   0.00000  Uiso   1.00
H1305  H     0.56481   0.59933   0.87105   0.00000  Uiso   1.00
H1306  H     0.58586   0.63228   0.82752   0.00000  Uiso   1.00
O1307  O     0.56202   0.37370   0.78918   0.00000  Uiso   1.00
C1308  C     0.56427   0.39133   0.83157   0.00000  Uiso   1.00
H1309  H     0.56740   0.42887   0.82868   0.00000  Uiso   1.00
H1310  H     0.59274   0.37827   0.84800   0.00000  Uiso   1.00
H1311  H     0.53864   0.38236   0.85275   0.00000  Uiso   1.00
O1312  O     0.48187   0.62468   0.67296   0.00000  Uiso   1.00
C1313  C     0.44144   0.61609   0.65969   0.00000  Uiso   1.00
H1314  H     0.42579   0.59452   0.68418   0.00000  Uiso   1.00
H1315  H     0.44227   0.59874   0.62792   0.00000  Uiso   1.00
H1316  H     0.42365   0.64773   0.65259   0.00000  Uiso   1.00
C1317  C     0.75405   0.50023   0.74858   0.00000  Uiso   1.00
C1318  C     0.91235   0.49963   0.75447   0.00000  Uiso   1.00
C1319  C     0.76162   0.51148   0.51730   0.00000  Uiso   1.00
C1320  C     0.90995   0.51676   0.98116   0.00000  Uiso   1.00
C1321  C     0.68868   0.45841   0.75380   0.00000  Uiso   1.00
C1322  C     0.97792   0.54106   0.75396   0.00000  Uiso   1.00
C1323  C     0.97981   0.45794   0.75633   0.00000  Uiso   1.00
C1324  C     0.68675   0.54155   0.75118   0.00000  Uiso   1.00
C1325  C     0.95722   0.49932   0.75579   0.00000  Uiso   1.00
C1326  C     0.70927   0.50022   0.75065   0.00000  Uiso   1.00
C1327  C     0.81445   0.35965   0.71637   0.00000  Uiso   1.00
C1328  C     0.85227   0.64175   0.78324   0.00000  Uiso   1.00
C1329  C     0.85730   0.35717   0.77902   0.00000  Uiso   1.00
C1330  C     0.81770   0.64364   0.71427   0.00000  Uiso   1.00
C1331  C     0.83295   0.50066   0.66453   0.00000  Uiso   1.00
C1332  C     0.83596   0.49962   0.83564   0.00000  Uiso   1.00
C1333  C     0.87414   0.50115   0.90920   0.00000  Uiso   1.00
C1334  C     0.79629   0.50350   0.59137   0.00000  Uiso   1.00
C1335  C     0.83711   0.50016   0.88454   0.00000  Uiso   1.00
C1336  C     0.83307   0.50316   0.61591   0.00000  Uiso   1.00
C1337  C     0.80057   0.50590   0.90617   0.00000  Uiso   1.00
C1338  C     0.86980   0.51049   0.59505   0.00000  Uiso   1.00
C1339  C     0.80068   0.51164   0.95180   0.00000  Uiso   1.00
C1340  C     0.87154   0.51295   0.54869   0.00000  Uiso   1.00
C1341  C     0.83694   0.50884   0.97694   0.00000  Uiso   1.00
C1342  C     0.83527   0.50869   0.52351   0.00000  Uiso   1.00
C1343  C     0.87431   0.50819   0.95551   0.00000  Uiso   1.00
C1344  C     0.79712   0.50635   0.54453   0.00000  Uiso   1.00
C1345  C     0.76469   0.52146   0.97274   0.00000  Uiso   1.00
C1346  C     0.90825   0.52099   0.52685   0.00000  Uiso   1.00
Cu1347 Cu    0.83333   0.54689   0.75000   0.00000  Uiso   1.00
Cu1348 Cu    0.83333   0.45311   0.75000   0.00000  Uiso   1.00
H1349  H     0.70511   0.42593   0.75418   0.00000  Uiso   1.00
H1350  H     0.96148   0.57355   0.75391   0.00000  Uiso   1.00
H1351  H     0.96480   0.42521   0.75805   0.00000  Uiso   1.00
H1352  H     0.70169   0.57432   0.74935   0.00000  Uiso   1.00
N1353  N     0.83333   0.61736   0.75000   0.00000  Uiso   1.00
N1354  N     0.83333   0.38264   0.75000   0.00000  Uiso   1.00
O1355  O     0.77321   0.53958   0.75000   0.00000  Uiso   1.00
O1356  O     0.89345   0.46042   0.75000   0.00000  Uiso   1.00
O1357  O     0.89345   0.53958   0.75000   0.00000  Uiso   1.00
O1358  O     0.77321   0.46042   0.75000   0.00000  Uiso   1.00
O1359  O     0.83332   0.53960   0.68513   0.00000  Uiso   1.00
O1360  O     0.83334   0.46040   0.81487   0.00000  Uiso   1.00
O1361  O     0.83334   0.53960   0.81487   0.00000  Uiso   1.00
O1362  O     0.83332   0.46040   0.68513   0.00000  Uiso   1.00
C1363  C     0.91204   0.48999   0.88732   0.00000  Uiso   1.00
H1364  H     0.92640   0.45660   0.89272   0.00000  Uiso   1.00
O1365  O     0.92954   0.51944   0.86657   0.00000  Uiso   1.00
C1366  C     0.75851   0.50543   0.61730   0.00000  Uiso   1.00
H1367  H     0.75566   0.52961   0.64328   0.00000  Uiso   1.00
O1368  O     0.73291   0.47599   0.61436   0.00000  Uiso   1.00
O1369  O     0.76403   0.49778   0.88456   0.00000  Uiso   1.00
C1370  C     0.75266   0.53581   0.85744   0.00000  Uiso   1.00
H1371  H     0.75616   0.52616   0.82378   0.00000  Uiso   1.00
H1372  H     0.76982   0.56788   0.86360   0.00000  Uiso   1.00
H1373  H     0.72003   0.54366   0.86109   0.00000  Uiso   1.00
O1374  O     0.90355   0.52171   0.62047   0.00000  Uiso   1.00
C1375  C     0.91921   0.48256   0.64361   0.00000  Uiso   1.00
H1376  H     0.90335   0.44985   0.63756   0.00000  Uiso   1.00
H1377  H     0.91871   0.48968   0.67810   0.00000  Uiso   1.00
H1378  H     0.95152   0.47698   0.63664   0.00000  Uiso   1.00
C1379  C     0.73551   0.55450   0.95111   0.00000  Uiso   1.00
H1380  H     0.74676   0.58698   0.93791   0.00000  Uiso   1.00
O1381  O     0.70008   0.54592   0.94525   0.00000  Uiso   1.00
C1382  C     0.94463   0.53850   0.55017   0.00000  Uiso   1.00
H1383  H     0.95022   0.57540   0.54980   0.00000  Uiso   1.00
O1384  O     0.96875   0.51216   0.56863   0.00000  Uiso   1.00
C1385  C     0.72010   0.50968   0.53404   0.00000  Uiso   1.00
H1386  H     0.69096   0.50842   0.51682   0.00000  Uiso   1.00
O1387  O     0.70206   0.47391   0.53332   0.00000  Uiso   1.00
C1388  C     0.94939   0.52474   0.96137   0.00000  Uiso   1.00
H1389  H     0.95715   0.55904   0.94978   0.00000  Uiso   1.00
O1390  O     0.97314   0.49242   0.95812   0.00000  Uiso   1.00
O1391  O     0.80216   0.38395   0.67868   0.00000  Uiso   1.00
C1392  C     0.76045   0.39609   0.67909   0.00000  Uiso   1.00
H1393  H     0.75617   0.43333   0.68319   0.00000  Uiso   1.00
H1394  H     0.74272   0.37619   0.70315   0.00000  Uiso   1.00
H1395  H     0.74679   0.39016   0.64611   0.00000  Uiso   1.00
O1396  O     0.85592   0.62299   0.82521   0.00000  Uiso   1.00
C1397  C     0.89569   0.60699   0.83519   0.00000  Uiso   1.00
H1398  H     0.90199   0.57556   0.81741   0.00000  Uiso   1.00
H1399  H     0.89814   0.59933   0.87105   0.00000  Uiso   1.00
H1400  H     0.91920   0.63228   0.82752   0.00000  Uiso   1.00
O1401  O     0.89535   0.37370   0.78918   0.00000  Uiso   1.00
C1402  C     0.89760   0.39133   0.83157   0.00000  Uiso   1.00
H1403  H     0.90074   0.42887   0.82868   0.00000  Uiso   1.00
H1404  H     0.92607   0.37827   0.84800   0.00000  Uiso   1.00
H1405  H     0.87197   0.38236   0.85275   0.00000  Uiso   1.00
O1406  O     0.81520   0.62468   0.67296   0.00000  Uiso   1.00
C1407  C     0.77478   0.61609   0.65969   0.00000  Uiso   1.00
H1408  H     0.75912   0.59452   0.68418   0.00000  Uiso   1.00
H1409  H     0.77560   0.59874   0.62792   0.00000  Uiso   1.00
H1410  H     0.75698   0.64773   0.65259   0.00000  Uiso   1.00
C1411  C     0.08738   0.83356   0.74858   0.00000  Uiso   1.00
C1412  C     0.24568   0.83297   0.75447   0.00000  Uiso   1.00
C1413  C     0.09495   0.84482   0.51730   0.00000  Uiso   1.00
C1414  C     0.24328   0.85010   0.98116   0.00000  Uiso   1.00
C1415  C     0.02201   0.79175   0.75380   0.00000  Uiso   1.00
C1416  C     0.31125   0.87439   0.75396   0.00000  Uiso   1.00
C1417  C     0.31314   0.79127   0.75633   0.00000  Uiso   1.00
C1418  C     0.02008   0.87488   0.75118   0.00000  Uiso   1.00
C1419  C     0.29056   0.83265   0.75579   0.00000  Uiso   1.00
C1420  C     0.04261   0.83355   0.75065   0.00000  Uiso   1.00
C1421  C     0.14778   0.69299   0.71637   0.00000  Uiso   1.00
C1422  C     0.18560   0.97509   0.78324   0.00000  Uiso   1.00
C1423  C     0.19064   0.69051   0.77902   0.00000  Uiso   1.00
C1424  C     0.15104   0.97697   0.71427   0.00000  Uiso   1.00
C1425  C     0.16628   0.83399   0.66453   0.00000  Uiso   1.00
C1426  C     0.16929   0.83295   0.83564   0.00000  Uiso   1.00
C1427  C     0.20748   0.83448   0.90920   0.00000  Uiso   1.00
C1428  C     0.12962   0.83683   0.59137   0.00000  Uiso   1.00
C1429  C     0.17044   0.83349   0.88454   0.00000  Uiso   1.00
C1430  C     0.16640   0.83649   0.61591   0.00000  Uiso   1.00
C1431  C     0.13390   0.83924   0.90617   0.00000  Uiso   1.00
C1432  C     0.20314   0.84383   0.59505   0.00000  Uiso   1.00
C1433  C     0.13401   0.84498   0.95180   0.00000  Uiso   1.00
C1434  C     0.20487   0.84629   0.54869   0.00000  Uiso   1.00
C1435  C     0.17027   0.84218   0.97694   0.00000  Uiso   1.00
C1436  C     0.16860   0.84202   0.52351   0.00000  Uiso   1.00
C1437  C     0.20764   0.84152   0.95551   0.00000  Uiso   1.00
C1438  C     0.13045   0.83968   0.54453   0.00000  Uiso   1.00
C1439  C     0.09802   0.85480   0.97274   0.00000  Uiso   1.00
C1440  C     0.24158   0.85432   0.52685   0.00000  Uiso   1.00
Cu1441 Cu    0.16667   0.88022   0.75000   0.00000  Uiso   1.00
Cu1442 Cu    0.16667   0.78645   0.75000   0.00000  Uiso   1.00
H1443  H     0.03844   0.75926   0.75418   0.00000  Uiso   1.00
H1444  H     0.29481   0.90689   0.75391   0.00000  Uiso   1.00
H1445  H     0.29813   0.75855   0.75805   0.00000  Uiso   1.00
H1446  H     0.03502   0.90765   0.74935   0.00000  Uiso   1.00
N1447  N     0.16667   0.95069   0.75000   0.00000  Uiso   1.00
N1448  N     0.16667   0.71598   0.75000   0.00000  Uiso   1.00
O1449  O     0.10655   0.87291   0.75000   0.00000  Uiso   1.00
O1450  O     0.22679   0.79375   0.75000   0.00000  Uiso   1.00
O1451  O     0.22679   0.87291   0.75000   0.00000  Uiso   1.00
O1452  O     0.10655   0.79375   0.75000   0.00000  Uiso   1.00
O1453  O     0.16666   0.87293   0.68513   0.00000  Uiso   1.00
O1454  O     0.16668   0.79373   0.81487   0.00000  Uiso   1.00
O1455  O     0.16668   0.87293   0.81487   0.00000  Uiso   1.00
O1456  O     0.16666   0.79373   0.68513   0.00000  Uiso   1.00
C1457  C     0.24537   0.82333   0.88732   0.00000  Uiso   1.00
H1458  H     0.25973   0.78994   0.89272   0.00000  Uiso   1.00
O1459  O     0.26288   0.85278   0.86657   0.00000  Uiso   1.00
C1460  C     0.09184   0.83876   0.61730   0.00000  Uiso   1.00
H1461  H     0.08899   0.86294   0.64328   0.00000  Uiso   1.00
O1462  O     0.06624   0.80933   0.61436   0.00000  Uiso   1.00
O1463  O     0.09736   0.83111   0.88456   0.00000  Uiso   1.00
C1464  C     0.08599   0.86915   0.85744   0.00000  Uiso   1.00
H1465  H     0.08949   0.85949   0.82378   0.00000  Uiso   1.00
H1466  H     0.10315   0.90122   0.86360   0.00000  Uiso   1.00
H1467  H     0.05337   0.87699   0.86109   0.00000  Uiso   1.00
O1468  O     0.23689   0.85505   0.62047   0.00000  Uiso   1.00
C1469  C     0.25254   0.81589   0.64361   0.00000  Uiso   1.00
H1470  H     0.23668   0.78318   0.63756   0.00000  Uiso   1.00
H1471  H     0.25204   0.82301   0.67810   0.00000  Uiso   1.00
H1472  H     0.28485   0.81032   0.63664   0.00000  Uiso   1.00
C1473  C     0.06885   0.88783   0.95111   0.00000  Uiso   1.00
H1474  H     0.08009   0.92031   0.93791   0.00000  Uiso   1.00
O1475  O     0.03341   0.87925   0.94525   0.00000  Uiso   1.00
C1476  C     0.27796   0.87184   0.55017   0.00000  Uiso   1.00
H1477  H     0.28356   0.90874   0.54980   0.00000  Uiso   1.00
O1478  O     0.30208   0.84550   0.56863   0.00000  Uiso   1.00
C1479  C     0.05344   0.84301   0.53404   0.00000  Uiso   1.00
H1480  H     0.02430   0.84175   0.51682   0.00000  Uiso   1.00
O1481  O     0.03539   0.80724   0.53332   0.00000  Uiso   1.00
C1482  C     0.28272   0.85807   0.96137   0.00000  Uiso   1.00
H1483  H     0.29049   0.89237   0.94978   0.00000  Uiso   1.00
O1484  O     0.30647   0.82575   0.95812   0.00000  Uiso   1.00
O1485  O     0.13549   0.71729   0.67868   0.00000  Uiso   1.00
C1486  C     0.09378   0.72942   0.67909   0.00000  Uiso   1.00
H1487  H     0.08950   0.76667   0.68319   0.00000  Uiso   1.00
H1488  H     0.07606   0.70952   0.70315   0.00000  Uiso   1.00
H1489  H     0.08012   0.72350   0.64611   0.00000  Uiso   1.00
O1490  O     0.18925   0.95632   0.82521   0.00000  Uiso   1.00
C1491  C     0.22903   0.94033   0.83519   0.00000  Uiso   1.00
H1492  H     0.23533   0.90889   0.81741   0.00000  Uiso   1.00
H1493  H     0.23147   0.93266   0.87105   0.00000  Uiso   1.00
H1494  H     0.25253   0.96561   0.82752   0.00000  Uiso   1.00
O1495  O     0.22869   0.70704   0.78918   0.00000  Uiso   1.00
C1496  C     0.23094   0.72466   0.83157   0.00000  Uiso   1.00
H1497  H     0.23407   0.76220   0.82868   0.00000  Uiso   1.00
H1498  H     0.25941   0.71160   0.84800   0.00000  Uiso   1.00
H1499  H     0.20530   0.71570   0.85275   0.00000  Uiso   1.00
O1500  O     0.14854   0.95802   0.67296   0.00000  Uiso   1.00
C1501  C     0.10811   0.94943   0.65969   0.00000  Uiso   1.00
H1502  H     0.09246   0.92786   0.68418   0.00000  Uiso   1.00
H1503  H     0.10893   0.93208   0.62792   0.00000  Uiso   1.00
H1504  H     0.09031   0.98106   0.65259   0.00000  Uiso   1.00
C1505  C     0.42071   0.83356   0.74858   0.00000  Uiso   1.00
C1506  C     0.57902   0.83297   0.75447   0.00000  Uiso   1.00
C1507  C     0.42828   0.84482   0.51730   0.00000  Uiso   1.00
C1508  C     0.57661   0.85010   0.98116   0.00000  Uiso   1.00
C1509  C     0.35535   0.79175   0.75380   0.00000  Uiso   1.00
C1510  C     0.64459   0.87439   0.75396   0.00000  Uiso   1.00
C1511  C     0.64648   0.79127   0.75633   0.00000  Uiso   1.00
C1512  C     0.35341   0.87488   0.75118   0.00000  Uiso   1.00
C1513  C     0.62389   0.83265   0.75579   0.00000  Uiso   1.00
C1514  C     0.37594   0.83355   0.75065   0.00000  Uiso   1.00
C1515  C     0.48111   0.69299   0.71637   0.00000  Uiso   1.00
C1516  C     0.51893   0.97509   0.78324   0.00000  Uiso   1.00
C1517  C     0.52397   0.69051   0.77902   0.00000  Uiso   1.00
C1518  C     0.48437   0.97697   0.71427   0.00000  Uiso   1.00
C1519  C     0.49962   0.83399   0.66453   0.00000  Uiso   1.00
C1520  C     0.50263   0.83295   0.83564   0.00000  Uiso   1.00
C1521  C     0.54081   0.83448   0.90920   0.00000  Uiso   1.00
C1522  C     0.46295   0.83683   0.59137   0.00000  Uiso   1.00
C1523  C     0.50378   0.83349   0.88454   0.00000  Uiso   1.00
C1524  C     0.49973   0.83649   0.61591   0.00000  Uiso   1.00
C1525  C     0.46723   0.83924   0.90617   0.00000  Uiso   1.00
C1526  C     0.53647   0.84383   0.59505   0.00000  Uiso   1.00
C1527  C     0.46735   0.84498   0.95180   0.00000  Uiso   1.00
C1528  C     0.53820   0.84629   0.54869   0.00000  Uiso   1.00
C1529  C     0.50360   0.84218   0.97694   0.00000  Uiso   1.00
C1530  C     0.50193   0.84202   0.52351   0.00000  Uiso   1.00
C1531  C     0.54098   0.84152   0.95551   0.00000  Uiso   1.00
C1532  C     0.46378   0.83968   0.54453   0.00000  Uiso   1.00
C1533  C     0.43136   0.85480   0.97274   0.00000  Uiso   1.00
C1534  C     0.57492   0.85432   0.52685   0.00000  Uiso   1.00
Cu1535 Cu    0.50000   0.88022   0.75000   0.00000  Uiso   1.00
Cu1536 Cu    0.50000   0.78645   0.75000   0.00000  Uiso   1.00
H1537  H     0.37178   0.75926   0.75418   0.00000  Uiso   1.00
H1538  H     0.62815   0.90689   0.75391   0.00000  Uiso   1.00
H1539  H     0.63147   0.75855   0.75805   0.00000  Uiso   1.00
H1540  H     0.36836   0.90765   0.74935   0.00000  Uiso   1.00
N1541  N     0.50000   0.95069   0.75000   0.00000  Uiso   1.00
N1542  N     0.50000   0.71598   0.75000   0.00000  Uiso   1.00
O1543  O     0.43988   0.87291   0.75000   0.00000  Uiso   1.00
O1544  O     0.56012   0.79375   0.75000   0.00000  Uiso   1.00
O1545  O     0.56012   0.87291   0.75000   0.00000  Uiso   1.00
O1546  O     0.43988   0.79375   0.75000   0.00000  Uiso   1.00
O1547  O     0.49999   0.87293   0.68513   0.00000  Uiso   1.00
O1548  O     0.50001   0.79373   0.81487   0.00000  Uiso   1.00
O1549  O     0.50001   0.87293   0.81487   0.00000  Uiso   1.00
O1550  O     0.49999   0.79373   0.68513   0.00000  Uiso   1.00
C1551  C     0.57871   0.82333   0.88732   0.00000  Uiso   1.00
H1552  H     0.59307   0.78994   0.89272   0.00000  Uiso   1.00
O1553  O     0.59621   0.85278   0.86657   0.00000  Uiso   1.00
C1554  C     0.42518   0.83876   0.61730   0.00000  Uiso   1.00
H1555  H     0.42232   0.86294   0.64328   0.00000  Uiso   1.00
O1556  O     0.39957   0.80933   0.61436   0.00000  Uiso   1.00
O1557  O     0.43070   0.83111   0.88456   0.00000  Uiso   1.00
C1558  C     0.41932   0.86915   0.85744   0.00000  Uiso   1.00
H1559  H     0.42282   0.85949   0.82378   0.00000  Uiso   1.00
H1560  H     0.43649   0.90122   0.86360   0.00000  Uiso   1.00
H1561  H     0.38670   0.87699   0.86109   0.00000  Uiso   1.00
O1562  O     0.57022   0.85505   0.62047   0.00000  Uiso   1.00
C1563  C     0.58588   0.81589   0.64361   0.00000  Uiso   1.00
H1564  H     0.57001   0.78318   0.63756   0.00000  Uiso   1.00
H1565  H     0.58538   0.82301   0.67810   0.00000  Uiso   1.00
H1566  H     0.61819   0.81032   0.63664   0.00000  Uiso   1.00
C1567  C     0.40218   0.88783   0.95111   0.00000  Uiso   1.00
H1568  H     0.41342   0.92031   0.93791   0.00000  Uiso   1.00
O1569  O     0.36674   0.87925   0.94525   0.00000  Uiso   1.00
C1570  C     0.61130   0.87184   0.55017   0.00000  Uiso   1.00
H1571  H     0.61689   0.90874   0.54980   0.00000  Uiso   1.00
O1572  O     0.63541   0.84550   0.56863   0.00000  Uiso   1.00
C1573  C     0.38677   0.84301   0.53404   0.00000  Uiso   1.00
H1574  H     0.35763   0.84175   0.51682   0.00000  Uiso   1.00
O1575  O     0.36873   0.80724   0.53332   0.00000  Uiso   1.00
C1576  C     0.61606   0.85807   0.96137   0.00000  Uiso   1.00
H1577  H     0.62382   0.89237   0.94978   0.00000  Uiso   1.00
O1578  O     0.63980   0.82575   0.95812   0.00000  Uiso   1.00
O1579  O     0.46883   0.71729   0.67868   0.00000  Uiso   1.00
C1580  C     0.42711   0.72942   0.67909   0.00000  Uiso   1.00
H1581  H     0.42284   0.76667   0.68319   0.00000  Uiso   1.00
H1582  H     0.40939   0.70952   0.70315   0.00000  Uiso   1.00
H1583  H     0.41346   0.72350   0.64611   0.00000  Uiso   1.00
O1584  O     0.52258   0.95632   0.82521   0.00000  Uiso   1.00
C1585  C     0.56236   0.94033   0.83519   0.00000  Uiso   1.00
H1586  H     0.56866   0.90889   0.81741   0.00000  Uiso   1.00
H1587  H     0.56481   0.93266   0.87105   0.00000  Uiso   1.00
H1588  H     0.58586   0.96561   0.82752   0.00000  Uiso   1.00
O1589  O     0.56202   0.70704   0.78918   0.00000  Uiso   1.00
C1590  C     0.56427   0.72466   0.83157   0.00000  Uiso   1.00
H1591  H     0.56740   0.76220   0.82868   0.00000  Uiso   1.00
H1592  H     0.59274   0.71160   0.84800   0.00000  Uiso   1.00
H1593  H     0.53864   0.71570   0.85275   0.00000  Uiso   1.00
O1594  O     0.48187   0.95802   0.67296   0.00000  Uiso   1.00
C1595  C     0.44144   0.94943   0.65969   0.00000  Uiso   1.00
H1596  H     0.42579   0.92786   0.68418   0.00000  Uiso   1.00
H1597  H     0.44227   0.93208   0.62792   0.00000  Uiso   1.00
H1598  H     0.42365   0.98106   0.65259   0.00000  Uiso   1.00
C1599  C     0.75405   0.83356   0.74858   0.00000  Uiso   1.00
C1600  C     0.91235   0.83297   0.75447   0.00000  Uiso   1.00
C1601  C     0.76162   0.84482   0.51730   0.00000  Uiso   1.00
C1602  C     0.90995   0.85010   0.98116   0.00000  Uiso   1.00
C1603  C     0.68868   0.79175   0.75380   0.00000  Uiso   1.00
C1604  C     0.97792   0.87439   0.75396   0.00000  Uiso   1.00
C1605  C     0.97981   0.79127   0.75633   0.00000  Uiso   1.00
C1606  C     0.68675   0.87488   0.75118   0.00000  Uiso   1.00
C1607  C     0.95722   0.83265   0.75579   0.00000  Uiso   1.00
C1608  C     0.70927   0.83355   0.75065   0.00000  Uiso   1.00
C1609  C     0.81445   0.69299   0.71637   0.00000  Uiso   1.00
C1610  C     0.85227   0.97509   0.78324   0.00000  Uiso   1.00
C1611  C     0.85730   0.69051   0.77902   0.00000  Uiso   1.00
C1612  C     0.81770   0.97697   0.71427   0.00000  Uiso   1.00
C1613  C     0.83295   0.83399   0.66453   0.00000  Uiso   1.00
C1614  C     0.83596   0.83295   0.83564   0.00000  Uiso   1.00
C1615  C     0.87414   0.83448   0.90920   0.00000  Uiso   1.00
C1616  C     0.79629   0.83683   0.59137   0.00000  Uiso   1.00
C1617  C     0.83711   0.83349   0.88454   0.00000  Uiso   1.00
C1618  C     0.83307   0.83649   0.61591   0.00000  Uiso   1.00
C1619  C     0.80057   0.83924   0.90617   0.00000  Uiso   1.00
C1620  C     0.86980   0.84383   0.59505   0.00000  Uiso   1.00
C1621  C     0.80068   0.84498   0.95180   0.00000  Uiso   1.00
C1622  C     0.87154   0.84629   0.54869   0.00000  Uiso   1.00
C1623  C     0.83694   0.84218   0.97694   0.00000  Uiso   1.00
C1624  C     0.83527   0.84202   0.52351   0.00000  Uiso   1.00
C1625  C     0.87431   0.84152   0.95551   0.00000  Uiso   1.00
C1626  C     0.79712   0.83968   0.54453   0.00000  Uiso   1.00
C1627  C     0.76469   0.85480   0.97274   0.00000  Uiso   1.00
C1628  C     0.90825   0.85432   0.52685   0.00000  Uiso   1.00
Cu1629 Cu    0.83333   0.88022   0.75000   0.00000  Uiso   1.00
Cu1630 Cu    0.83333   0.78645   0.75000   0.00000  Uiso   1.00
H1631  H     0.70511   0.75926   0.75418   0.00000  Uiso   1.00
H1632  H     0.96148   0.90689   0.75391   0.00000  Uiso   1.00
H1633  H     0.96480   0.75855   0.75805   0.00000  Uiso   1.00
H1634  H     0.70169   0.90765   0.74935   0.00000  Uiso   1.00
N1635  N     0.83333   0.95069   0.75000   0.00000  Uiso   1.00
N1636  N     0.83333   0.71598   0.75000   0.00000  Uiso   1.00
O1637  O     0.77321   0.87291   0.75000   0.00000  Uiso   1.00
O1638  O     0.89345   0.79375   0.75000   0.00000  Uiso   1.00
O1639  O     0.89345   0.87291   0.75000   0.00000  Uiso   1.00
O1640  O     0.77321   0.79375   0.75000   0.00000  Uiso   1.00
O1641  O     0.83332   0.87293   0.68513   0.00000  Uiso   1.00
O1642  O     0.83334   0.79373   0.81487   0.00000  Uiso   1.00
O1643  O     0.83334   0.87293   0.81487   0.00000  Uiso   1.00
O1644  O     0.83332   0.79373   0.68513   0.00000  Uiso   1.00
C1645  C     0.91204   0.82333   0.88732   0.00000  Uiso   1.00
H1646  H     0.92640   0.78994   0.89272   0.00000  Uiso   1.00
O1647  O     0.92954   0.85278   0.86657   0.00000  Uiso   1.00
C1648  C     0.75851   0.83876   0.61730   0.00000  Uiso   1.00
H1649  H     0.75566   0.86294   0.64328   0.00000  Uiso   1.00
O1650  O     0.73291   0.80933   0.61436   0.00000  Uiso   1.00
O1651  O     0.76403   0.83111   0.88456   0.00000  Uiso   1.00
C1652  C     0.75266   0.86915   0.85744   0.00000  Uiso   1.00
H1653  H     0.75616   0.85949   0.82378   0.00000  Uiso   1.00
H1654  H     0.76982   0.90122   0.86360   0.00000  Uiso   1.00
H1655  H     0.72003   0.87699   0.86109   0.00000  Uiso   1.00
O1656  O     0.90355   0.85505   0.62047   0.00000  Uiso   1.00
C1657  C     0.91921   0.81589   0.64361   0.00000  Uiso   1.00
H1658  H     0.90335   0.78318   0.63756   0.00000  Uiso   1.00
H1659  H     0.91871   0.82301   0.67810   0.00000  Uiso   1.00
H1660  H     0.95152   0.81032   0.63664   0.00000  Uiso   1.00
C1661  C     0.73551   0.88783   0.95111   0.00000  Uiso   1.00
H1662  H     0.74676   0.92031   0.93791   0.00000  Uiso   1.00
O1663  O     0.70008   0.87925   0.94525   0.00000  Uiso   1.00
C1664  C     0.94463   0.87184   0.55017   0.00000  Uiso   1.00
H1665  H     0.95022   0.90874   0.54980   0.00000  Uiso   1.00
O1666  O     0.96875   0.84550   0.56863   0.00000  Uiso   1.00
C1667  C     0.72010   0.84301   0.53404   0.00000  Uiso   1.00
H1668  H     0.69096   0.84175   0.51682   0.00000  Uiso   1.00
O1669  O     0.70206   0.80724   0.53332   0.00000  Uiso   1.00
C1670  C     0.94939   0.85807   0.96137   0.00000  Uiso   1.00
H1671  H     0.95715   0.89237   0.94978   0.00000  Uiso   1.00
O1672  O     0.97314   0.82575   0.95812   0.00000  Uiso   1.00
O1673  O     0.80216   0.71729   0.67868   0.00000  Uiso   1.00
C1674  C     0.76045   0.72942   0.67909   0.00000  Uiso   1.00
H1675  H     0.75617   0.76667   0.68319   0.00000  Uiso   1.00
H1676  H     0.74272   0.70952   0.70315   0.00000  Uiso   1.00
H1677  H     0.74679   0.72350   0.64611   0.00000  Uiso   1.00
O1678  O     0.85592   0.95632   0.82521   0.00000  Uiso   1.00
C1679  C     0.89569   0.94033   0.83519   0.00000  Uiso   1.00
H1680  H     0.90199   0.90889   0.81741   0.00000  Uiso   1.00
H1681  H     0.89814   0.93266   0.87105   0.00000  Uiso   1.00
H1682  H     0.91920   0.96561   0.82752   0.00000  Uiso   1.00
O1683  O     0.89535   0.70704   0.78918   0.00000  Uiso   1.00
C1684  C     0.89760   0.72466   0.83157   0.00000  Uiso   1.00
H1685  H     0.90074   0.76220   0.82868   0.00000  Uiso   1.00
H1686  H     0.92607   0.71160   0.84800   0.00000  Uiso   1.00
H1687  H     0.87197   0.71570   0.85275   0.00000  Uiso   1.00
O1688  O     0.81520   0.95802   0.67296   0.00000  Uiso   1.00
C1689  C     0.77478   0.94943   0.65969   0.00000  Uiso   1.00
H1690  H     0.75912   0.92786   0.68418   0.00000  Uiso   1.00
H1691  H     0.77560   0.93208   0.62792   0.00000  Uiso   1.00
H1692  H     0.75698   0.98106   0.65259   0.00000  Uiso   1.00
loop_
_geom_bond_atom_site_label_1
_geom_bond_atom_site_label_2
_geom_bond_distance
_geom_bond_site_symmetry_2
_ccdc_geom_bond_type
C1     C10     1.480   .     S
C1     O39     1.315   .     A
C1     O42     1.308   .     A
C2     O41     1.310   .     A
C2     O40     1.314   .     A
C2     C9      1.479   .     S
C3     C28     1.419   .     A
C3     C69     1.478   .     S
C3     C875    1.393   1_554 S
C4     C72     1.471   .     S
C4     C27     1.420   .     A
C4     C876    1.406   .     S
C5     H33     1.080   .     S
C5     C10     1.403   .     A
C5     C195    1.397   1_455 S
C6     C9      1.401   .     A
C6     H34     1.080   .     S
C6     C102    1.396   .     S
C7     H35     1.079   .     S
C7     C9      1.403   .     A
C7     C99     1.397   .     S
C8     H36     1.079   .     S
C8     C10     1.402   .     A
C8     C194    1.396   1_455 S
C11    N38     1.374   .     A
C11    O75     1.384   .     S
C11    C578    1.438   1_545 S
C12    N37     1.388   .     A
C12    O80     1.383   .     S
C12    C295    1.431   .     S
C13    N38     1.367   .     A
C13    O85     1.379   .     S
C13    C576    1.431   1_545 S
C14    O90     1.387   .     S
C14    N37     1.399   .     A
C14    C293    1.438   .     S
C15    C20     1.485   .     S
C15    O43     1.304   .     A
C15    O46     1.315   .     A
C16    O44     1.317   .     A
C16    O45     1.311   .     A
C16    C19     1.493   .     S
C17    C27     1.433   .     A
C17    C47     1.470   .     S
C17    C19     1.416   .     A
C18    C28     1.432   .     A
C18    C50     1.498   .     S
C18    C20     1.406   .     A
C19    C21     1.402   .     A
C20    C22     1.403   .     A
C21    C23     1.406   .     A
C21    O53     1.382   .     S
C22    C24     1.419   .     A
C22    O58     1.384   .     S
C23    C29     1.394   .     A
C23    C25     1.401   .     A
C24    C26     1.411   .     A
C24    C30     1.421   .     A
C25    C27     1.413   .     A
C25    C872    1.425   .     S
C26    C28     1.432   .     A
C26    C871    1.425   1_554 S
C29    C63     1.479   .     S
C29    C849    1.393   .     S
C30    C66     1.479   .     S
C30    C850    1.406   1_554 S
Cu31   O43     1.996   .     S
Cu31   Cu32    2.722   .     S
Cu31   N37     2.045   .     S
Cu31   O41     1.991   .     S
Cu31   O39     1.998   .     S
Cu31   O45     1.988   .     S
Cu32   N38     2.045   .     S
Cu32   O40     1.998   .     S
Cu32   O44     1.996   .     S
Cu32   O46     1.988   .     S
Cu32   O42     1.991   .     S
C47    O49     1.217   .     D
C47    H48     1.079   .     S
C50    O52     1.214   .     D
C50    H51     1.075   .     S
O53    C54     1.406   .     S
C54    H56     1.113   .     S
C54    H55     1.080   .     S
C54    H57     1.106   .     S
O58    C59     1.409   .     S
C59    H60     1.107   .     S
C59    H61     1.078   .     S
C59    H62     1.103   .     S
C63    O65     1.208   .     D
C63    H64     1.092   .     S
C66    O68     1.213   .     D
C66    H67     1.089   .     S
C69    O71     1.205   .     D
C69    H70     1.083   .     S
H70    O71     1.161   .     S
C72    O74     1.220   .     D
C72    H73     1.087   .     S
O75    C76     1.416   .     S
C76    H79     1.108   .     S
C76    H77     1.098   .     S
C76    H78     1.111   .     S
O80    C81     1.407   .     S
C81    H84     1.103   .     S
C81    H82     1.091   .     S
C81    H83     1.113   .     S
O85    C86     1.402   .     S
C86    H88     1.109   .     S
C86    H87     1.098   .     S
C86    H89     1.111   .     S
O90    C91     1.409   .     S
C91    H92     1.110   .     S
C91    H93     1.103   .     S
C91    H94     1.096   .     S
C95    C104    1.480   .     S
C95    O133    1.315   .     A
C95    O136    1.308   .     A
C96    O135    1.310   .     A
C96    O134    1.314   .     A
C96    C103    1.479   .     S
C97    C122    1.419   .     A
C97    C163    1.478   .     S
C97    C969    1.393   1_554 S
C98    C166    1.471   .     S
C98    C121    1.420   .     A
C98    C970    1.406   .     S
C99    H127    1.080   .     S
C99    C104    1.403   .     A
C100   C103    1.401   .     A
C100   H128    1.080   .     S
C100   C196    1.396   .     S
C101   H129    1.079   .     S
C101   C103    1.403   .     A
C101   C193    1.397   .     S
C102   H130    1.079   .     S
C102   C104    1.402   .     A
C105   N132    1.374   .     A
C105   O169    1.384   .     S
C105   C672    1.438   1_545 S
C106   N131    1.388   .     A
C106   O174    1.383   .     S
C106   C389    1.431   .     S
C107   N132    1.367   .     A
C107   O179    1.379   .     S
C107   C670    1.431   1_545 S
C108   O184    1.387   .     S
C108   N131    1.399   .     A
C108   C387    1.438   .     S
C109   C114    1.485   .     S
C109   O137    1.304   .     A
C109   O140    1.315   .     A
C110   O138    1.317   .     A
C110   O139    1.311   .     A
C110   C113    1.493   .     S
C111   C121    1.433   .     A
C111   C141    1.470   .     S
C111   C113    1.416   .     A
C112   C122    1.432   .     A
C112   C144    1.498   .     S
C112   C114    1.406   .     A
C113   C115    1.402   .     A
C114   C116    1.403   .     A
C115   C117    1.406   .     A
C115   O147    1.382   .     S
C116   C118    1.419   .     A
C116   O152    1.384   .     S
C117   C123    1.394   .     A
C117   C119    1.401   .     A
C118   C120    1.411   .     A
C118   C124    1.421   .     A
C119   C121    1.413   .     A
C119   C966    1.425   .     S
C120   C122    1.432   .     A
C120   C965    1.425   1_554 S
C123   C157    1.479   .     S
C123   C943    1.393   .     S
C124   C160    1.479   .     S
C124   C944    1.406   1_554 S
Cu125  O137    1.996   .     S
Cu125  Cu126   2.722   .     S
Cu125  N131    2.045   .     S
Cu125  O135    1.991   .     S
Cu125  O133    1.998   .     S
Cu125  O139    1.988   .     S
Cu126  N132    2.045   .     S
Cu126  O134    1.998   .     S
Cu126  O138    1.996   .     S
Cu126  O140    1.988   .     S
Cu126  O136    1.991   .     S
C141   O143    1.217   .     D
C141   H142    1.079   .     S
C144   O146    1.214   .     D
C144   H145    1.075   .     S
O147   C148    1.406   .     S
C148   H150    1.113   .     S
C148   H149    1.080   .     S
C148   H151    1.106   .     S
O152   C153    1.409   .     S
C153   H154    1.107   .     S
C153   H155    1.078   .     S
C153   H156    1.103   .     S
C157   O159    1.208   .     D
C157   H158    1.092   .     S
C160   O162    1.213   .     D
C160   H161    1.089   .     S
C163   O165    1.205   .     D
C163   H164    1.083   .     S
H164   O165    1.161   .     S
C166   O168    1.220   .     D
C166   H167    1.087   .     S
O169   C170    1.416   .     S
C170   H173    1.108   .     S
C170   H171    1.098   .     S
C170   H172    1.111   .     S
O174   C175    1.407   .     S
C175   H178    1.103   .     S
C175   H176    1.091   .     S
C175   H177    1.113   .     S
O179   C180    1.402   .     S
C180   H182    1.109   .     S
C180   H181    1.098   .     S
C180   H183    1.111   .     S
O184   C185    1.409   .     S
C185   H186    1.110   .     S
C185   H187    1.103   .     S
C185   H188    1.096   .     S
C189   C198    1.480   .     S
C189   O227    1.315   .     A
C189   O230    1.308   .     A
C190   O229    1.310   .     A
C190   O228    1.314   .     A
C190   C197    1.479   .     S
C191   C216    1.419   .     A
C191   C257    1.478   .     S
C191   C1063   1.393   1_554 S
C192   C260    1.471   .     S
C192   C215    1.420   .     A
C192   C1064   1.406   .     S
C193   H221    1.080   .     S
C193   C198    1.403   .     A
C194   C197    1.401   .     A
C194   H222    1.080   .     S
C194   C8      1.396   1_655 S
C195   H223    1.079   .     S
C195   C197    1.403   .     A
C195   C5      1.397   1_655 S
C196   H224    1.079   .     S
C196   C198    1.402   .     A
C199   N226    1.374   .     A
C199   O263    1.384   .     S
C199   C766    1.438   1_545 S
C200   N225    1.388   .     A
C200   O268    1.383   .     S
C200   C483    1.431   .     S
C201   N226    1.367   .     A
C201   O273    1.379   .     S
C201   C764    1.431   1_545 S
C202   O278    1.387   .     S
C202   N225    1.399   .     A
C202   C481    1.438   .     S
C203   C208    1.485   .     S
C203   O231    1.304   .     A
C203   O234    1.315   .     A
C204   O232    1.317   .     A
C204   O233    1.311   .     A
C204   C207    1.493   .     S
C205   C215    1.433   .     A
C205   C235    1.470   .     S
C205   C207    1.416   .     A
C206   C216    1.432   .     A
C206   C238    1.498   .     S
C206   C208    1.406   .     A
C207   C209    1.402   .     A
C208   C210    1.403   .     A
C209   C211    1.406   .     A
C209   O241    1.382   .     S
C210   C212    1.419   .     A
C210   O246    1.384   .     S
C211   C217    1.394   .     A
C211   C213    1.401   .     A
C212   C214    1.411   .     A
C212   C218    1.421   .     A
C213   C215    1.413   .     A
C213   C1060   1.425   .     S
C214   C216    1.432   .     A
C214   C1059   1.425   1_554 S
C217   C251    1.479   .     S
C217   C1037   1.393   .     S
C218   C254    1.479   .     S
C218   C1038   1.406   1_554 S
Cu219  O231    1.996   .     S
Cu219  Cu220   2.722   .     S
Cu219  N225    2.045   .     S
Cu219  O229    1.991   .     S
Cu219  O227    1.998   .     S
Cu219  O233    1.988   .     S
Cu220  N226    2.045   .     S
Cu220  O228    1.998   .     S
Cu220  O232    1.996   .     S
Cu220  O234    1.988   .     S
Cu220  O230    1.991   .     S
C235   O237    1.217   .     D
C235   H236    1.079   .     S
C238   O240    1.214   .     D
C238   H239    1.075   .     S
O241   C242    1.406   .     S
C242   H244    1.113   .     S
C242   H243    1.080   .     S
C242   H245    1.106   .     S
O246   C247    1.409   .     S
C247   H248    1.107   .     S
C247   H249    1.078   .     S
C247   H250    1.103   .     S
C251   O253    1.208   .     D
C251   H252    1.092   .     S
C254   O256    1.213   .     D
C254   H255    1.089   .     S
C257   O259    1.205   .     D
C257   H258    1.083   .     S
H258   O259    1.161   .     S
C260   O262    1.220   .     D
C260   H261    1.087   .     S
O263   C264    1.416   .     S
C264   H267    1.108   .     S
C264   H265    1.098   .     S
C264   H266    1.111   .     S
O268   C269    1.407   .     S
C269   H272    1.103   .     S
C269   H270    1.091   .     S
C269   H271    1.113   .     S
O273   C274    1.402   .     S
C274   H276    1.109   .     S
C274   H275    1.098   .     S
C274   H277    1.111   .     S
O278   C279    1.409   .     S
C279   H280    1.110   .     S
C279   H281    1.103   .     S
C279   H282    1.096   .     S
C283   C292    1.480   .     S
C283   O321    1.315   .     A
C283   O324    1.308   .     A
C284   O323    1.310   .     A
C284   O322    1.314   .     A
C284   C291    1.479   .     S
C285   C310    1.419   .     A
C285   C351    1.478   .     S
C285   C1157   1.393   1_554 S
C286   C354    1.471   .     S
C286   C309    1.420   .     A
C286   C1158   1.406   .     S
C287   H315    1.080   .     S
C287   C292    1.403   .     A
C287   C477    1.397   1_455 S
C288   C291    1.401   .     A
C288   H316    1.080   .     S
C288   C384    1.396   .     S
C289   H317    1.079   .     S
C289   C291    1.403   .     A
C289   C381    1.397   .     S
C290   H318    1.079   .     S
C290   C292    1.402   .     A
C290   C476    1.396   1_455 S
C293   N320    1.374   .     A
C293   O357    1.384   .     S
C294   N319    1.388   .     A
C294   O362    1.383   .     S
C294   C577    1.431   .     S
C295   N320    1.367   .     A
C295   O367    1.379   .     S
C296   O372    1.387   .     S
C296   N319    1.399   .     A
C296   C575    1.438   .     S
C297   C302    1.485   .     S
C297   O325    1.304   .     A
C297   O328    1.315   .     A
C298   O326    1.317   .     A
C298   O327    1.311   .     A
C298   C301    1.493   .     S
C299   C309    1.433   .     A
C299   C329    1.470   .     S
C299   C301    1.416   .     A
C300   C310    1.432   .     A
C300   C332    1.498   .     S
C300   C302    1.406   .     A
C301   C303    1.402   .     A
C302   C304    1.403   .     A
C303   C305    1.406   .     A
C303   O335    1.382   .     S
C304   C306    1.419   .     A
C304   O340    1.384   .     S
C305   C311    1.394   .     A
C305   C307    1.401   .     A
C306   C308    1.411   .     A
C306   C312    1.421   .     A
C307   C309    1.413   .     A
C307   C1154   1.425   .     S
C308   C310    1.432   .     A
C308   C1153   1.425   1_554 S
C311   C345    1.479   .     S
C311   C1131   1.393   .     S
C312   C348    1.479   .     S
C312   C1132   1.406   1_554 S
Cu313  O325    1.996   .     S
Cu313  Cu314   2.722   .     S
Cu313  N319    2.045   .     S
Cu313  O323    1.991   .     S
Cu313  O321    1.998   .     S
Cu313  O327    1.988   .     S
Cu314  N320    2.045   .     S
Cu314  O322    1.998   .     S
Cu314  O326    1.996   .     S
Cu314  O328    1.988   .     S
Cu314  O324    1.991   .     S
C329   O331    1.217   .     D
C329   H330    1.079   .     S
C332   O334    1.214   .     D
C332   H333    1.075   .     S
O335   C336    1.406   .     S
C336   H338    1.113   .     S
C336   H337    1.080   .     S
C336   H339    1.106   .     S
O340   C341    1.409   .     S
C341   H342    1.107   .     S
C341   H343    1.078   .     S
C341   H344    1.103   .     S
C345   O347    1.208   .     D
C345   H346    1.092   .     S
C348   O350    1.213   .     D
C348   H349    1.089   .     S
C351   O353    1.205   .     D
C351   H352    1.083   .     S
H352   O353    1.161   .     S
C354   O356    1.220   .     D
C354   H355    1.087   .     S
O357   C358    1.416   .     S
C358   H361    1.108   .     S
C358   H359    1.098   .     S
C358   H360    1.111   .     S
O362   C363    1.407   .     S
C363   H366    1.103   .     S
C363   H364    1.091   .     S
C363   H365    1.113   .     S
O367   C368    1.402   .     S
C368   H370    1.109   .     S
C368   H369    1.098   .     S
C368   H371    1.111   .     S
O372   C373    1.409   .     S
C373   H374    1.110   .     S
C373   H375    1.103   .     S
C373   H376    1.096   .     S
C377   C386    1.480   .     S
C377   O415    1.315   .     A
C377   O418    1.308   .     A
C378   O417    1.310   .     A
C378   O416    1.314   .     A
C378   C385    1.479   .     S
C379   C404    1.419   .     A
C379   C445    1.478   .     S
C379   C1251   1.393   1_554 S
C380   C448    1.471   .     S
C380   C403    1.420   .     A
C380   C1252   1.406   .     S
C381   H409    1.080   .     S
C381   C386    1.403   .     A
C382   C385    1.401   .     A
C382   H410    1.080   .     S
C382   C478    1.396   .     S
C383   H411    1.079   .     S
C383   C385    1.403   .     A
C383   C475    1.397   .     S
C384   H412    1.079   .     S
C384   C386    1.402   .     A
C387   N414    1.374   .     A
C387   O451    1.384   .     S
C388   N413    1.388   .     A
C388   O456    1.383   .     S
C388   C671    1.431   .     S
C389   N414    1.367   .     A
C389   O461    1.379   .     S
C390   O466    1.387   .     S
C390   N413    1.399   .     A
C390   C669    1.438   .     S
C391   C396    1.485   .     S
C391   O419    1.304   .     A
C391   O422    1.315   .     A
C392   O420    1.317   .     A
C392   O421    1.311   .     A
C392   C395    1.493   .     S
C393   C403    1.433   .     A
C393   C423    1.470   .     S
C393   C395    1.416   .     A
C394   C404    1.432   .     A
C394   C426    1.498   .     S
C394   C396    1.406   .     A
C395   C397    1.402   .     A
C396   C398    1.403   .     A
C397   C399    1.406   .     A
C397   O429    1.382   .     S
C398   C400    1.419   .     A
C398   O434    1.384   .     S
C399   C405    1.394   .     A
C399   C401    1.401   .     A
C400   C402    1.411   .     A
C400   C406    1.421   .     A
C401   C403    1.413   .     A
C401   C1248   1.425   .     S
C402   C404    1.432   .     A
C402   C1247   1.425   1_554 S
C405   C439    1.479   .     S
C405   C1225   1.393   .     S
C406   C442    1.479   .     S
C406   C1226   1.406   1_554 S
Cu407  O419    1.996   .     S
Cu407  Cu408   2.722   .     S
Cu407  N413    2.045   .     S
Cu407  O417    1.991   .     S
Cu407  O415    1.998   .     S
Cu407  O421    1.988   .     S
Cu408  N414    2.045   .     S
Cu408  O416    1.998   .     S
Cu408  O420    1.996   .     S
Cu408  O422    1.988   .     S
Cu408  O418    1.991   .     S
C423   O425    1.217   .     D
C423   H424    1.079   .     S
C426   O428    1.214   .     D
C426   H427    1.075   .     S
O429   C430    1.406   .     S
C430   H432    1.113   .     S
C430   H431    1.080   .     S
C430   H433    1.106   .     S
O434   C435    1.409   .     S
C435   H436    1.107   .     S
C435   H437    1.078   .     S
C435   H438    1.103   .     S
C439   O441    1.208   .     D
C439   H440    1.092   .     S
C442   O444    1.213   .     D
C442   H443    1.089   .     S
C445   O447    1.205   .     D
C445   H446    1.083   .     S
H446   O447    1.161   .     S
C448   O450    1.220   .     D
C448   H449    1.087   .     S
O451   C452    1.416   .     S
C452   H455    1.108   .     S
C452   H453    1.098   .     S
C452   H454    1.111   .     S
O456   C457    1.407   .     S
C457   H460    1.103   .     S
C457   H458    1.091   .     S
C457   H459    1.113   .     S
O461   C462    1.402   .     S
C462   H464    1.109   .     S
C462   H463    1.098   .     S
C462   H465    1.111   .     S
O466   C467    1.409   .     S
C467   H468    1.110   .     S
C467   H469    1.103   .     S
C467   H470    1.096   .     S
C471   C480    1.480   .     S
C471   O509    1.315   .     A
C471   O512    1.308   .     A
C472   O511    1.310   .     A
C472   O510    1.314   .     A
C472   C479    1.479   .     S
C473   C498    1.419   .     A
C473   C539    1.478   .     S
C473   C1345   1.393   1_554 S
C474   C542    1.471   .     S
C474   C497    1.420   .     A
C474   C1346   1.406   .     S
C475   H503    1.080   .     S
C475   C480    1.403   .     A
C476   C479    1.401   .     A
C476   H504    1.080   .     S
C476   C290    1.396   1_655 S
C477   H505    1.079   .     S
C477   C479    1.403   .     A
C477   C287    1.397   1_655 S
C478   H506    1.079   .     S
C478   C480    1.402   .     A
C481   N508    1.374   .     A
C481   O545    1.384   .     S
C482   N507    1.388   .     A
C482   O550    1.383   .     S
C482   C765    1.431   .     S
C483   N508    1.367   .     A
C483   O555    1.379   .     S
C484   O560    1.387   .     S
C484   N507    1.399   .     A
C484   C763    1.438   .     S
C485   C490    1.485   .     S
C485   O513    1.304   .     A
C485   O516    1.315   .     A
C486   O514    1.317   .     A
C486   O515    1.311   .     A
C486   C489    1.493   .     S
C487   C497    1.433   .     A
C487   C517    1.470   .     S
C487   C489    1.416   .     A
C488   C498    1.432   .     A
C488   C520    1.498   .     S
C488   C490    1.406   .     A
C489   C491    1.402   .     A
C490   C492    1.403   .     A
C491   C493    1.406   .     A
C491   O523    1.382   .     S
C492   C494    1.419   .     A
C492   O528    1.384   .     S
C493   C499    1.394   .     A
C493   C495    1.401   .     A
C494   C496    1.411   .     A
C494   C500    1.421   .     A
C495   C497    1.413   .     A
C495   C1342   1.425   .     S
C496   C498    1.432   .     A
C496   C1341   1.425   1_554 S
C499   C533    1.479   .     S
C499   C1319   1.393   .     S
C500   C536    1.479   .     S
C500   C1320   1.406   1_554 S
Cu501  O513    1.996   .     S
Cu501  Cu502   2.722   .     S
Cu501  N507    2.045   .     S
Cu501  O511    1.991   .     S
Cu501  O509    1.998   .     S
Cu501  O515    1.988   .     S
Cu502  N508    2.045   .     S
Cu502  O510    1.998   .     S
Cu502  O514    1.996   .     S
Cu502  O516    1.988   .     S
Cu502  O512    1.991   .     S
C517   O519    1.217   .     D
C517   H518    1.079   .     S
C520   O522    1.214   .     D
C520   H521    1.075   .     S
O523   C524    1.406   .     S
C524   H526    1.113   .     S
C524   H525    1.080   .     S
C524   H527    1.106   .     S
O528   C529    1.409   .     S
C529   H530    1.107   .     S
C529   H531    1.078   .     S
C529   H532    1.103   .     S
C533   O535    1.208   .     D
C533   H534    1.092   .     S
C536   O538    1.213   .     D
C536   H537    1.089   .     S
C539   O541    1.205   .     D
C539   H540    1.083   .     S
H540   O541    1.161   .     S
C542   O544    1.220   .     D
C542   H543    1.087   .     S
O545   C546    1.416   .     S
C546   H549    1.108   .     S
C546   H547    1.098   .     S
C546   H548    1.111   .     S
O550   C551    1.407   .     S
C551   H554    1.103   .     S
C551   H552    1.091   .     S
C551   H553    1.113   .     S
O555   C556    1.402   .     S
C556   H558    1.109   .     S
C556   H557    1.098   .     S
C556   H559    1.111   .     S
O560   C561    1.409   .     S
C561   H562    1.110   .     S
C561   H563    1.103   .     S
C561   H564    1.096   .     S
C565   C574    1.480   .     S
C565   O603    1.315   .     A
C565   O606    1.308   .     A
C566   O605    1.310   .     A
C566   O604    1.314   .     A
C566   C573    1.479   .     S
C567   C592    1.419   .     A
C567   C633    1.478   .     S
C567   C1439   1.393   1_554 S
C568   C636    1.471   .     S
C568   C591    1.420   .     A
C568   C1440   1.406   .     S
C569   H597    1.080   .     S
C569   C574    1.403   .     A
C569   C759    1.397   1_455 S
C570   C573    1.401   .     A
C570   H598    1.080   .     S
C570   C666    1.396   .     S
C571   H599    1.079   .     S
C571   C573    1.403   .     A
C571   C663    1.397   .     S
C572   H600    1.079   .     S
C572   C574    1.402   .     A
C572   C758    1.396   1_455 S
C575   N602    1.374   .     A
C575   O639    1.384   .     S
C576   N601    1.388   .     A
C576   O644    1.383   .     S
C576   C13     1.431   1_565 S
C577   N602    1.367   .     A
C577   O649    1.379   .     S
C578   O654    1.387   .     S
C578   N601    1.399   .     A
C578   C11     1.438   1_565 S
C579   C584    1.485   .     S
C579   O607    1.304   .     A
C579   O610    1.315   .     A
C580   O608    1.317   .     A
C580   O609    1.311   .     A
C580   C583    1.493   .     S
C581   C591    1.433   .     A
C581   C611    1.470   .     S
C581   C583    1.416   .     A
C582   C592    1.432   .     A
C582   C614    1.498   .     S
C582   C584    1.406   .     A
C583   C585    1.402   .     A
C584   C586    1.403   .     A
C585   C587    1.406   .     A
C585   O617    1.382   .     S
C586   C588    1.419   .     A
C586   O622    1.384   .     S
C587   C593    1.394   .     A
C587   C589    1.401   .     A
C588   C590    1.411   .     A
C588   C594    1.421   .     A
C589   C591    1.413   .     A
C589   C1436   1.425   .     S
C590   C592    1.432   .     A
C590   C1435   1.425   1_554 S
C593   C627    1.479   .     S
C593   C1413   1.393   .     S
C594   C630    1.479   .     S
C594   C1414   1.406   1_554 S
Cu595  O607    1.996   .     S
Cu595  Cu596   2.722   .     S
Cu595  N601    2.045   .     S
Cu595  O605    1.991   .     S
Cu595  O603    1.998   .     S
Cu595  O609    1.988   .     S
Cu596  N602    2.045   .     S
Cu596  O604    1.998   .     S
Cu596  O608    1.996   .     S
Cu596  O610    1.988   .     S
Cu596  O606    1.991   .     S
C611   O613    1.217   .     D
C611   H612    1.079   .     S
C614   O616    1.214   .     D
C614   H615    1.075   .     S
O617   C618    1.406   .     S
C618   H620    1.113   .     S
C618   H619    1.080   .     S
C618   H621    1.106   .     S
O622   C623    1.409   .     S
C623   H624    1.107   .     S
C623   H625    1.078   .     S
C623   H626    1.103   .     S
C627   O629    1.208   .     D
C627   H628    1.092   .     S
C630   O632    1.213   .     D
C630   H631    1.089   .     S
C633   O635    1.205   .     D
C633   H634    1.083   .     S
H634   O635    1.161   .     S
C636   O638    1.220   .     D
C636   H637    1.087   .     S
O639   C640    1.416   .     S
C640   H643    1.108   .     S
C640   H641    1.098   .     S
C640   H642    1.111   .     S
O644   C645    1.407   .     S
C645   H648    1.103   .     S
C645   H646    1.091   .     S
C645   H647    1.113   .     S
O649   C650    1.402   .     S
C650   H652    1.109   .     S
C650   H651    1.098   .     S
C650   H653    1.111   .     S
O654   C655    1.409   .     S
C655   H656    1.110   .     S
C655   H657    1.103   .     S
C655   H658    1.096   .     S
C659   C668    1.480   .     S
C659   O697    1.315   .     A
C659   O700    1.308   .     A
C660   O699    1.310   .     A
C660   O698    1.314   .     A
C660   C667    1.479   .     S
C661   C686    1.419   .     A
C661   C727    1.478   .     S
C661   C1533   1.393   1_554 S
C662   C730    1.471   .     S
C662   C685    1.420   .     A
C662   C1534   1.406   .     S
C663   H691    1.080   .     S
C663   C668    1.403   .     A
C664   C667    1.401   .     A
C664   H692    1.080   .     S
C664   C760    1.396   .     S
C665   H693    1.079   .     S
C665   C667    1.403   .     A
C665   C757    1.397   .     S
C666   H694    1.079   .     S
C666   C668    1.402   .     A
C669   N696    1.374   .     A
C669   O733    1.384   .     S
C670   N695    1.388   .     A
C670   O738    1.383   .     S
C670   C107    1.431   1_565 S
C671   N696    1.367   .     A
C671   O743    1.379   .     S
C672   O748    1.387   .     S
C672   N695    1.399   .     A
C672   C105    1.438   1_565 S
C673   C678    1.485   .     S
C673   O701    1.304   .     A
C673   O704    1.315   .     A
C674   O702    1.317   .     A
C674   O703    1.311   .     A
C674   C677    1.493   .     S
C675   C685    1.433   .     A
C675   C705    1.470   .     S
C675   C677    1.416   .     A
C676   C686    1.432   .     A
C676   C708    1.498   .     S
C676   C678    1.406   .     A
C677   C679    1.402   .     A
C678   C680    1.403   .     A
C679   C681    1.406   .     A
C679   O711    1.382   .     S
C680   C682    1.419   .     A
C680   O716    1.384   .     S
C681   C687    1.394   .     A
C681   C683    1.401   .     A
C682   C684    1.411   .     A
C682   C688    1.421   .     A
C683   C685    1.413   .     A
C683   C1530   1.425   .     S
C684   C686    1.432   .     A
C684   C1529   1.425   1_554 S
C687   C721    1.479   .     S
C687   C1507   1.393   .     S
C688   C724    1.479   .     S
C688   C1508   1.406   1_554 S
Cu689  O701    1.996   .     S
Cu689  Cu690   2.722   .     S
Cu689  N695    2.045   .     S
Cu689  O699    1.991   .     S
Cu689  O697    1.998   .     S
Cu689  O703    1.988   .     S
Cu690  N696    2.045   .     S
Cu690  O698    1.998   .     S
Cu690  O702    1.996   .     S
Cu690  O704    1.988   .     S
Cu690  O700    1.991   .     S
C705   O707    1.217   .     D
C705   H706    1.079   .     S
C708   O710    1.214   .     D
C708   H709    1.075   .     S
O711   C712    1.406   .     S
C712   H714    1.113   .     S
C712   H713    1.080   .     S
C712   H715    1.106   .     S
O716   C717    1.409   .     S
C717   H718    1.107   .     S
C717   H719    1.078   .     S
C717   H720    1.103   .     S
C721   O723    1.208   .     D
C721   H722    1.092   .     S
C724   O726    1.213   .     D
C724   H725    1.089   .     S
C727   O729    1.205   .     D
C727   H728    1.083   .     S
H728   O729    1.161   .     S
C730   O732    1.220   .     D
C730   H731    1.087   .     S
O733   C734    1.416   .     S
C734   H737    1.108   .     S
C734   H735    1.098   .     S
C734   H736    1.111   .     S
O738   C739    1.407   .     S
C739   H742    1.103   .     S
C739   H740    1.091   .     S
C739   H741    1.113   .     S
O743   C744    1.402   .     S
C744   H746    1.109   .     S
C744   H745    1.098   .     S
C744   H747    1.111   .     S
O748   C749    1.409   .     S
C749   H750    1.110   .     S
C749   H751    1.103   .     S
C749   H752    1.096   .     S
C753   C762    1.480   .     S
C753   O791    1.315   .     A
C753   O794    1.308   .     A
C754   O793    1.310   .     A
C754   O792    1.314   .     A
C754   C761    1.479   .     S
C755   C780    1.419   .     A
C755   C821    1.478   .     S
C755   C1627   1.393   1_554 S
C756   C824    1.471   .     S
C756   C779    1.420   .     A
C756   C1628   1.406   .     S
C757   H785    1.080   .     S
C757   C762    1.403   .     A
C758   C761    1.401   .     A
C758   H786    1.080   .     S
C758   C572    1.396   1_655 S
C759   H787    1.079   .     S
C759   C761    1.403   .     A
C759   C569    1.397   1_655 S
C760   H788    1.079   .     S
C760   C762    1.402   .     A
C763   N790    1.374   .     A
C763   O827    1.384   .     S
C764   N789    1.388   .     A
C764   O832    1.383   .     S
C764   C201    1.431   1_565 S
C765   N790    1.367   .     A
C765   O837    1.379   .     S
C766   O842    1.387   .     S
C766   N789    1.399   .     A
C766   C199    1.438   1_565 S
C767   C772    1.485   .     S
C767   O795    1.304   .     A
C767   O798    1.315   .     A
C768   O796    1.317   .     A
C768   O797    1.311   .     A
C768   C771    1.493   .     S
C769   C779    1.433   .     A
C769   C799    1.470   .     S
C769   C771    1.416   .     A
C770   C780    1.432   .     A
C770   C802    1.498   .     S
C770   C772    1.406   .     A
C771   C773    1.402   .     A
C772   C774    1.403   .     A
C773   C775    1.406   .     A
C773   O805    1.382   .     S
C774   C776    1.419   .     A
C774   O810    1.384   .     S
C775   C781    1.394   .     A
C775   C777    1.401   .     A
C776   C778    1.411   .     A
C776   C782    1.421   .     A
C777   C779    1.413   .     A
C777   C1624   1.425   .     S
C778   C780    1.432   .     A
C778   C1623   1.425   1_554 S
C781   C815    1.479   .     S
C781   C1601   1.393   .     S
C782   C818    1.479   .     S
C782   C1602   1.406   1_554 S
Cu783  O795    1.996   .     S
Cu783  Cu784   2.722   .     S
Cu783  N789    2.045   .     S
Cu783  O793    1.991   .     S
Cu783  O791    1.998   .     S
Cu783  O797    1.988   .     S
Cu784  N790    2.045   .     S
Cu784  O792    1.998   .     S
Cu784  O796    1.996   .     S
Cu784  O798    1.988   .     S
Cu784  O794    1.991   .     S
C799   O801    1.217   .     D
C799   H800    1.079   .     S
C802   O804    1.214   .     D
C802   H803    1.075   .     S
O805   C806    1.406   .     S
C806   H808    1.113   .     S
C806   H807    1.080   .     S
C806   H809    1.106   .     S
O810   C811    1.409   .     S
C811   H812    1.107   .     S
C811   H813    1.078   .     S
C811   H814    1.103   .     S
C815   O817    1.208   .     D
C815   H816    1.092   .     S
C818   O820    1.213   .     D
C818   H819    1.089   .     S
C821   O823    1.205   .     D
C821   H822    1.083   .     S
H822   O823    1.161   .     S
C824   O826    1.220   .     D
C824   H825    1.087   .     S
O827   C828    1.416   .     S
C828   H831    1.108   .     S
C828   H829    1.098   .     S
C828   H830    1.111   .     S
O832   C833    1.407   .     S
C833   H836    1.103   .     S
C833   H834    1.091   .     S
C833   H835    1.113   .     S
O837   C838    1.402   .     S
C838   H840    1.109   .     S
C838   H839    1.098   .     S
C838   H841    1.111   .     S
O842   C843    1.409   .     S
C843   H844    1.110   .     S
C843   H845    1.103   .     S
C843   H846    1.096   .     S
C847   C856    1.480   .     S
C847   O885    1.315   .     A
C847   O888    1.308   .     A
C848   O887    1.310   .     A
C848   O886    1.314   .     A
C848   C855    1.479   .     S
C849   C874    1.419   .     A
C849   C915    1.478   .     S
C850   C918    1.471   .     S
C850   C873    1.420   .     A
C850   C30     1.406   1_556 S
C851   H879    1.080   .     S
C851   C856    1.403   .     A
C851   C1041   1.397   1_455 S
C852   C855    1.401   .     A
C852   H880    1.080   .     S
C852   C948    1.396   .     S
C853   H881    1.079   .     S
C853   C855    1.403   .     A
C853   C945    1.397   .     S
C854   H882    1.079   .     S
C854   C856    1.402   .     A
C854   C1040   1.396   1_455 S
C857   N884    1.374   .     A
C857   O921    1.384   .     S
C857   C1424   1.438   1_545 S
C858   N883    1.388   .     A
C858   O926    1.383   .     S
C858   C1141   1.431   .     S
C859   N884    1.367   .     A
C859   O931    1.379   .     S
C859   C1422   1.431   1_545 S
C860   O936    1.387   .     S
C860   N883    1.399   .     A
C860   C1139   1.438   .     S
C861   C866    1.485   .     S
C861   O889    1.304   .     A
C861   O892    1.315   .     A
C862   O890    1.317   .     A
C862   O891    1.311   .     A
C862   C865    1.493   .     S
C863   C873    1.433   .     A
C863   C893    1.470   .     S
C863   C865    1.416   .     A
C864   C874    1.432   .     A
C864   C896    1.498   .     S
C864   C866    1.406   .     A
C865   C867    1.402   .     A
C866   C868    1.403   .     A
C867   C869    1.406   .     A
C867   O899    1.382   .     S
C868   C870    1.419   .     A
C868   O904    1.384   .     S
C869   C875    1.394   .     A
C869   C871    1.401   .     A
C870   C872    1.411   .     A
C870   C876    1.421   .     A
C871   C873    1.413   .     A
C871   C26     1.425   1_556 S
C872   C874    1.432   .     A
C875   C909    1.479   .     S
C875   C3      1.393   1_556 S
C876   C912    1.479   .     S
Cu877  O889    1.996   .     S
Cu877  Cu878   2.722   .     S
Cu877  N883    2.045   .     S
Cu877  O887    1.991   .     S
Cu877  O885    1.998   .     S
Cu877  O891    1.988   .     S
Cu878  N884    2.045   .     S
Cu878  O886    1.998   .     S
Cu878  O890    1.996   .     S
Cu878  O892    1.988   .     S
Cu878  O888    1.991   .     S
C893   O895    1.217   .     D
C893   H894    1.079   .     S
C896   O898    1.214   .     D
C896   H897    1.075   .     S
O899   C900    1.406   .     S
C900   H902    1.113   .     S
C900   H901    1.080   .     S
C900   H903    1.106   .     S
O904   C905    1.409   .     S
C905   H906    1.107   .     S
C905   H907    1.078   .     S
C905   H908    1.103   .     S
C909   O911    1.208   .     D
C909   H910    1.092   .     S
C912   O914    1.213   .     D
C912   H913    1.089   .     S
C915   O917    1.205   .     D
C915   H916    1.083   .     S
H916   O917    1.161   .     S
C918   O920    1.220   .     D
C918   H919    1.087   .     S
O921   C922    1.416   .     S
C922   H925    1.108   .     S
C922   H923    1.098   .     S
C922   H924    1.111   .     S
O926   C927    1.407   .     S
C927   H930    1.103   .     S
C927   H928    1.091   .     S
C927   H929    1.113   .     S
O931   C932    1.402   .     S
C932   H934    1.109   .     S
C932   H933    1.098   .     S
C932   H935    1.111   .     S
O936   C937    1.409   .     S
C937   H938    1.110   .     S
C937   H939    1.103   .     S
C937   H940    1.096   .     S
C941   C950    1.480   .     S
C941   O979    1.315   .     A
C941   O982    1.308   .     A
C942   O981    1.310   .     A
C942   O980    1.314   .     A
C942   C949    1.479   .     S
C943   C968    1.419   .     A
C943   C1009   1.478   .     S
C944   C1012   1.471   .     S
C944   C967    1.420   .     A
C944   C124    1.406   1_556 S
C945   H973    1.080   .     S
C945   C950    1.403   .     A
C946   C949    1.401   .     A
C946   H974    1.080   .     S
C946   C1042   1.396   .     S
C947   H975    1.079   .     S
C947   C949    1.403   .     A
C947   C1039   1.397   .     S
C948   H976    1.079   .     S
C948   C950    1.402   .     A
C951   N978    1.374   .     A
C951   O1015   1.384   .     S
C951   C1518   1.438   1_545 S
C952   N977    1.388   .     A
C952   O1020   1.383   .     S
C952   C1235   1.431   .     S
C953   N978    1.367   .     A
C953   O1025   1.379   .     S
C953   C1516   1.431   1_545 S
C954   O1030   1.387   .     S
C954   N977    1.399   .     A
C954   C1233   1.438   .     S
C955   C960    1.485   .     S
C955   O983    1.304   .     A
C955   O986    1.315   .     A
C956   O984    1.317   .     A
C956   O985    1.311   .     A
C956   C959    1.493   .     S
C957   C967    1.433   .     A
C957   C987    1.470   .     S
C957   C959    1.416   .     A
C958   C968    1.432   .     A
C958   C990    1.498   .     S
C958   C960    1.406   .     A
C959   C961    1.402   .     A
C960   C962    1.403   .     A
C961   C963    1.406   .     A
C961   O993    1.382   .     S
C962   C964    1.419   .     A
C962   O998    1.384   .     S
C963   C969    1.394   .     A
C963   C965    1.401   .     A
C964   C966    1.411   .     A
C964   C970    1.421   .     A
C965   C967    1.413   .     A
C965   C120    1.425   1_556 S
C966   C968    1.432   .     A
C969   C1003   1.479   .     S
C969   C97     1.393   1_556 S
C970   C1006   1.479   .     S
Cu971  O983    1.996   .     S
Cu971  Cu972   2.722   .     S
Cu971  N977    2.045   .     S
Cu971  O981    1.991   .     S
Cu971  O979    1.998   .     S
Cu971  O985    1.988   .     S
Cu972  N978    2.045   .     S
Cu972  O980    1.998   .     S
Cu972  O984    1.996   .     S
Cu972  O986    1.988   .     S
Cu972  O982    1.991   .     S
C987   O989    1.217   .     D
C987   H988    1.079   .     S
C990   O992    1.214   .     D
C990   H991    1.075   .     S
O993   C994    1.406   .     S
C994   H996    1.113   .     S
C994   H995    1.080   .     S
C994   H997    1.106   .     S
O998   C999    1.409   .     S
C999   H1000   1.107   .     S
C999   H1001   1.078   .     S
C999   H1002   1.103   .     S
C1003  O1005   1.208   .     D
C1003  H1004   1.092   .     S
C1006  O1008   1.213   .     D
C1006  H1007   1.089   .     S
C1009  O1011   1.205   .     D
C1009  H1010   1.083   .     S
H1010  O1011   1.161   .     S
C1012  O1014   1.220   .     D
C1012  H1013   1.087   .     S
O1015  C1016   1.416   .     S
C1016  H1019   1.108   .     S
C1016  H1017   1.098   .     S
C1016  H1018   1.111   .     S
O1020  C1021   1.407   .     S
C1021  H1024   1.103   .     S
C1021  H1022   1.091   .     S
C1021  H1023   1.113   .     S
O1025  C1026   1.402   .     S
C1026  H1028   1.109   .     S
C1026  H1027   1.098   .     S
C1026  H1029   1.111   .     S
O1030  C1031   1.409   .     S
C1031  H1032   1.110   .     S
C1031  H1033   1.103   .     S
C1031  H1034   1.096   .     S
C1035  C1044   1.480   .     S
C1035  O1073   1.315   .     A
C1035  O1076   1.308   .     A
C1036  O1075   1.310   .     A
C1036  O1074   1.314   .     A
C1036  C1043   1.479   .     S
C1037  C1062   1.419   .     A
C1037  C1103   1.478   .     S
C1038  C1106   1.471   .     S
C1038  C1061   1.420   .     A
C1038  C218    1.406   1_556 S
C1039  H1067   1.080   .     S
C1039  C1044   1.403   .     A
C1040  C1043   1.401   .     A
C1040  H1068   1.080   .     S
C1040  C854    1.396   1_655 S
C1041  H1069   1.079   .     S
C1041  C1043   1.403   .     A
C1041  C851    1.397   1_655 S
C1042  H1070   1.079   .     S
C1042  C1044   1.402   .     A
C1045  N1072   1.374   .     A
C1045  O1109   1.384   .     S
C1045  C1612   1.438   1_545 S
C1046  N1071   1.388   .     A
C1046  O1114   1.383   .     S
C1046  C1329   1.431   .     S
C1047  N1072   1.367   .     A
C1047  O1119   1.379   .     S
C1047  C1610   1.431   1_545 S
C1048  O1124   1.387   .     S
C1048  N1071   1.399   .     A
C1048  C1327   1.438   .     S
C1049  C1054   1.485   .     S
C1049  O1077   1.304   .     A
C1049  O1080   1.315   .     A
C1050  O1078   1.317   .     A
C1050  O1079   1.311   .     A
C1050  C1053   1.493   .     S
C1051  C1061   1.433   .     A
C1051  C1081   1.470   .     S
C1051  C1053   1.416   .     A
C1052  C1062   1.432   .     A
C1052  C1084   1.498   .     S
C1052  C1054   1.406   .     A
C1053  C1055   1.402   .     A
C1054  C1056   1.403   .     A
C1055  C1057   1.406   .     A
C1055  O1087   1.382   .     S
C1056  C1058   1.419   .     A
C1056  O1092   1.384   .     S
C1057  C1063   1.394   .     A
C1057  C1059   1.401   .     A
C1058  C1060   1.411   .     A
C1058  C1064   1.421   .     A
C1059  C1061   1.413   .     A
C1059  C214    1.425   1_556 S
C1060  C1062   1.432   .     A
C1063  C1097   1.479   .     S
C1063  C191    1.393   1_556 S
C1064  C1100   1.479   .     S
Cu1065 O1077   1.996   .     S
Cu1065 Cu1066  2.722   .     S
Cu1065 N1071   2.045   .     S
Cu1065 O1075   1.991   .     S
Cu1065 O1073   1.998   .     S
Cu1065 O1079   1.988   .     S
Cu1066 N1072   2.045   .     S
Cu1066 O1074   1.998   .     S
Cu1066 O1078   1.996   .     S
Cu1066 O1080   1.988   .     S
Cu1066 O1076   1.991   .     S
C1081  O1083   1.217   .     D
C1081  H1082   1.079   .     S
C1084  O1086   1.214   .     D
C1084  H1085   1.075   .     S
O1087  C1088   1.406   .     S
C1088  H1090   1.113   .     S
C1088  H1089   1.080   .     S
C1088  H1091   1.106   .     S
O1092  C1093   1.409   .     S
C1093  H1094   1.107   .     S
C1093  H1095   1.078   .     S
C1093  H1096   1.103   .     S
C1097  O1099   1.208   .     D
C1097  H1098   1.092   .     S
C1100  O1102   1.213   .     D
C1100  H1101   1.089   .     S
C1103  O1105   1.205   .     D
C1103  H1104   1.083   .     S
H1104  O1105   1.161   .     S
C1106  O1108   1.220   .     D
C1106  H1107   1.087   .     S
O1109  C1110   1.416   .     S
C1110  H1113   1.108   .     S
C1110  H1111   1.098   .     S
C1110  H1112   1.111   .     S
O1114  C1115   1.407   .     S
C1115  H1118   1.103   .     S
C1115  H1116   1.091   .     S
C1115  H1117   1.113   .     S
O1119  C1120   1.402   .     S
C1120  H1122   1.109   .     S
C1120  H1121   1.098   .     S
C1120  H1123   1.111   .     S
O1124  C1125   1.409   .     S
C1125  H1126   1.110   .     S
C1125  H1127   1.103   .     S
C1125  H1128   1.096   .     S
C1129  C1138   1.480   .     S
C1129  O1167   1.315   .     A
C1129  O1170   1.308   .     A
C1130  O1169   1.310   .     A
C1130  O1168   1.314   .     A
C1130  C1137   1.479   .     S
C1131  C1156   1.419   .     A
C1131  C1197   1.478   .     S
C1132  C1200   1.471   .     S
C1132  C1155   1.420   .     A
C1132  C312    1.406   1_556 S
C1133  H1161   1.080   .     S
C1133  C1138   1.403   .     A
C1133  C1323   1.397   1_455 S
C1134  C1137   1.401   .     A
C1134  H1162   1.080   .     S
C1134  C1230   1.396   .     S
C1135  H1163   1.079   .     S
C1135  C1137   1.403   .     A
C1135  C1227   1.397   .     S
C1136  H1164   1.079   .     S
C1136  C1138   1.402   .     A
C1136  C1322   1.396   1_455 S
C1139  N1166   1.374   .     A
C1139  O1203   1.384   .     S
C1140  N1165   1.388   .     A
C1140  O1208   1.383   .     S
C1140  C1423   1.431   .     S
C1141  N1166   1.367   .     A
C1141  O1213   1.379   .     S
C1142  O1218   1.387   .     S
C1142  N1165   1.399   .     A
C1142  C1421   1.438   .     S
C1143  C1148   1.485   .     S
C1143  O1171   1.304   .     A
C1143  O1174   1.315   .     A
C1144  O1172   1.317   .     A
C1144  O1173   1.311   .     A
C1144  C1147   1.493   .     S
C1145  C1155   1.433   .     A
C1145  C1175   1.470   .     S
C1145  C1147   1.416   .     A
C1146  C1156   1.432   .     A
C1146  C1178   1.498   .     S
C1146  C1148   1.406   .     A
C1147  C1149   1.402   .     A
C1148  C1150   1.403   .     A
C1149  C1151   1.406   .     A
C1149  O1181   1.382   .     S
C1150  C1152   1.419   .     A
C1150  O1186   1.384   .     S
C1151  C1157   1.394   .     A
C1151  C1153   1.401   .     A
C1152  C1154   1.411   .     A
C1152  C1158   1.421   .     A
C1153  C1155   1.413   .     A
C1153  C308    1.425   1_556 S
C1154  C1156   1.432   .     A
C1157  C1191   1.479   .     S
C1157  C285    1.393   1_556 S
C1158  C1194   1.479   .     S
Cu1159 O1171   1.996   .     S
Cu1159 Cu1160  2.722   .     S
Cu1159 N1165   2.045   .     S
Cu1159 O1169   1.991   .     S
Cu1159 O1167   1.998   .     S
Cu1159 O1173   1.988   .     S
Cu1160 N1166   2.045   .     S
Cu1160 O1168   1.998   .     S
Cu1160 O1172   1.996   .     S
Cu1160 O1174   1.988   .     S
Cu1160 O1170   1.991   .     S
C1175  O1177   1.217   .     D
C1175  H1176   1.079   .     S
C1178  O1180   1.214   .     D
C1178  H1179   1.075   .     S
O1181  C1182   1.406   .     S
C1182  H1184   1.113   .     S
C1182  H1183   1.080   .     S
C1182  H1185   1.106   .     S
O1186  C1187   1.409   .     S
C1187  H1188   1.107   .     S
C1187  H1189   1.078   .     S
C1187  H1190   1.103   .     S
C1191  O1193   1.208   .     D
C1191  H1192   1.092   .     S
C1194  O1196   1.213   .     D
C1194  H1195   1.089   .     S
C1197  O1199   1.205   .     D
C1197  H1198   1.083   .     S
H1198  O1199   1.161   .     S
C1200  O1202   1.220   .     D
C1200  H1201   1.087   .     S
O1203  C1204   1.416   .     S
C1204  H1207   1.108   .     S
C1204  H1205   1.098   .     S
C1204  H1206   1.111   .     S
O1208  C1209   1.407   .     S
C1209  H1212   1.103   .     S
C1209  H1210   1.091   .     S
C1209  H1211   1.113   .     S
O1213  C1214   1.402   .     S
C1214  H1216   1.109   .     S
C1214  H1215   1.098   .     S
C1214  H1217   1.111   .     S
O1218  C1219   1.409   .     S
C1219  H1220   1.110   .     S
C1219  H1221   1.103   .     S
C1219  H1222   1.096   .     S
C1223  C1232   1.480   .     S
C1223  O1261   1.315   .     A
C1223  O1264   1.308   .     A
C1224  O1263   1.310   .     A
C1224  O1262   1.314   .     A
C1224  C1231   1.479   .     S
C1225  C1250   1.419   .     A
C1225  C1291   1.478   .     S
C1226  C1294   1.471   .     S
C1226  C1249   1.420   .     A
C1226  C406    1.406   1_556 S
C1227  H1255   1.080   .     S
C1227  C1232   1.403   .     A
C1228  C1231   1.401   .     A
C1228  H1256   1.080   .     S
C1228  C1324   1.396   .     S
C1229  H1257   1.079   .     S
C1229  C1231   1.403   .     A
C1229  C1321   1.397   .     S
C1230  H1258   1.079   .     S
C1230  C1232   1.402   .     A
C1233  N1260   1.374   .     A
C1233  O1297   1.384   .     S
C1234  N1259   1.388   .     A
C1234  O1302   1.383   .     S
C1234  C1517   1.431   .     S
C1235  N1260   1.367   .     A
C1235  O1307   1.379   .     S
C1236  O1312   1.387   .     S
C1236  N1259   1.399   .     A
C1236  C1515   1.438   .     S
C1237  C1242   1.485   .     S
C1237  O1265   1.304   .     A
C1237  O1268   1.315   .     A
C1238  O1266   1.317   .     A
C1238  O1267   1.311   .     A
C1238  C1241   1.493   .     S
C1239  C1249   1.433   .     A
C1239  C1269   1.470   .     S
C1239  C1241   1.416   .     A
C1240  C1250   1.432   .     A
C1240  C1272   1.498   .     S
C1240  C1242   1.406   .     A
C1241  C1243   1.402   .     A
C1242  C1244   1.403   .     A
C1243  C1245   1.406   .     A
C1243  O1275   1.382   .     S
C1244  C1246   1.419   .     A
C1244  O1280   1.384   .     S
C1245  C1251   1.394   .     A
C1245  C1247   1.401   .     A
C1246  C1248   1.411   .     A
C1246  C1252   1.421   .     A
C1247  C1249   1.413   .     A
C1247  C402    1.425   1_556 S
C1248  C1250   1.432   .     A
C1251  C1285   1.479   .     S
C1251  C379    1.393   1_556 S
C1252  C1288   1.479   .     S
Cu1253 O1265   1.996   .     S
Cu1253 Cu1254  2.722   .     S
Cu1253 N1259   2.045   .     S
Cu1253 O1263   1.991   .     S
Cu1253 O1261   1.998   .     S
Cu1253 O1267   1.988   .     S
Cu1254 N1260   2.045   .     S
Cu1254 O1262   1.998   .     S
Cu1254 O1266   1.996   .     S
Cu1254 O1268   1.988   .     S
Cu1254 O1264   1.991   .     S
C1269  O1271   1.217   .     D
C1269  H1270   1.079   .     S
C1272  O1274   1.214   .     D
C1272  H1273   1.075   .     S
O1275  C1276   1.406   .     S
C1276  H1278   1.113   .     S
C1276  H1277   1.080   .     S
C1276  H1279   1.106   .     S
O1280  C1281   1.409   .     S
C1281  H1282   1.107   .     S
C1281  H1283   1.078   .     S
C1281  H1284   1.103   .     S
C1285  O1287   1.208   .     D
C1285  H1286   1.092   .     S
C1288  O1290   1.213   .     D
C1288  H1289   1.089   .     S
C1291  O1293   1.205   .     D
C1291  H1292   1.083   .     S
H1292  O1293   1.161   .     S
C1294  O1296   1.220   .     D
C1294  H1295   1.087   .     S
O1297  C1298   1.416   .     S
C1298  H1301   1.108   .     S
C1298  H1299   1.098   .     S
C1298  H1300   1.111   .     S
O1302  C1303   1.407   .     S
C1303  H1306   1.103   .     S
C1303  H1304   1.091   .     S
C1303  H1305   1.113   .     S
O1307  C1308   1.402   .     S
C1308  H1310   1.109   .     S
C1308  H1309   1.098   .     S
C1308  H1311   1.111   .     S
O1312  C1313   1.409   .     S
C1313  H1314   1.110   .     S
C1313  H1315   1.103   .     S
C1313  H1316   1.096   .     S
C1317  C1326   1.480   .     S
C1317  O1355   1.315   .     A
C1317  O1358   1.308   .     A
C1318  O1357   1.310   .     A
C1318  O1356   1.314   .     A
C1318  C1325   1.479   .     S
C1319  C1344   1.419   .     A
C1319  C1385   1.478   .     S
C1320  C1388   1.471   .     S
C1320  C1343   1.420   .     A
C1320  C500    1.406   1_556 S
C1321  H1349   1.080   .     S
C1321  C1326   1.403   .     A
C1322  C1325   1.401   .     A
C1322  H1350   1.080   .     S
C1322  C1136   1.396   1_655 S
C1323  H1351   1.079   .     S
C1323  C1325   1.403   .     A
C1323  C1133   1.397   1_655 S
C1324  H1352   1.079   .     S
C1324  C1326   1.402   .     A
C1327  N1354   1.374   .     A
C1327  O1391   1.384   .     S
C1328  N1353   1.388   .     A
C1328  O1396   1.383   .     S
C1328  C1611   1.431   .     S
C1329  N1354   1.367   .     A
C1329  O1401   1.379   .     S
C1330  O1406   1.387   .     S
C1330  N1353   1.399   .     A
C1330  C1609   1.438   .     S
C1331  C1336   1.485   .     S
C1331  O1359   1.304   .     A
C1331  O1362   1.315   .     A
C1332  O1360   1.317   .     A
C1332  O1361   1.311   .     A
C1332  C1335   1.493   .     S
C1333  C1343   1.433   .     A
C1333  C1363   1.470   .     S
C1333  C1335   1.416   .     A
C1334  C1344   1.432   .     A
C1334  C1366   1.498   .     S
C1334  C1336   1.406   .     A
C1335  C1337   1.402   .     A
C1336  C1338   1.403   .     A
C1337  C1339   1.406   .     A
C1337  O1369   1.382   .     S
C1338  C1340   1.419   .     A
C1338  O1374   1.384   .     S
C1339  C1345   1.394   .     A
C1339  C1341   1.401   .     A
C1340  C1342   1.411   .     A
C1340  C1346   1.421   .     A
C1341  C1343   1.413   .     A
C1341  C496    1.425   1_556 S
C1342  C1344   1.432   .     A
C1345  C1379   1.479   .     S
C1345  C473    1.393   1_556 S
C1346  C1382   1.479   .     S
Cu1347 O1359   1.996   .     S
Cu1347 Cu1348  2.722   .     S
Cu1347 N1353   2.045   .     S
Cu1347 O1357   1.991   .     S
Cu1347 O1355   1.998   .     S
Cu1347 O1361   1.988   .     S
Cu1348 N1354   2.045   .     S
Cu1348 O1356   1.998   .     S
Cu1348 O1360   1.996   .     S
Cu1348 O1362   1.988   .     S
Cu1348 O1358   1.991   .     S
C1363  O1365   1.217   .     D
C1363  H1364   1.079   .     S
C1366  O1368   1.214   .     D
C1366  H1367   1.075   .     S
O1369  C1370   1.406   .     S
C1370  H1372   1.113   .     S
C1370  H1371   1.080   .     S
C1370  H1373   1.106   .     S
O1374  C1375   1.409   .     S
C1375  H1376   1.107   .     S
C1375  H1377   1.078   .     S
C1375  H1378   1.103   .     S
C1379  O1381   1.208   .     D
C1379  H1380   1.092   .     S
C1382  O1384   1.213   .     D
C1382  H1383   1.089   .     S
C1385  O1387   1.205   .     D
C1385  H1386   1.083   .     S
H1386  O1387   1.161   .     S
C1388  O1390   1.220   .     D
C1388  H1389   1.087   .     S
O1391  C1392   1.416   .     S
C1392  H1395   1.108   .     S
C1392  H1393   1.098   .     S
C1392  H1394   1.111   .     S
O1396  C1397   1.407   .     S
C1397  H1400   1.103   .     S
C1397  H1398   1.091   .     S
C1397  H1399   1.113   .     S
O1401  C1402   1.402   .     S
C1402  H1404   1.109   .     S
C1402  H1403   1.098   .     S
C1402  H1405   1.111   .     S
O1406  C1407   1.409   .     S
C1407  H1408   1.110   .     S
C1407  H1409   1.103   .     S
C1407  H1410   1.096   .     S
C1411  C1420   1.480   .     S
C1411  O1449   1.315   .     A
C1411  O1452   1.308   .     A
C1412  O1451   1.310   .     A
C1412  O1450   1.314   .     A
C1412  C1419   1.479   .     S
C1413  C1438   1.419   .     A
C1413  C1479   1.478   .     S
C1414  C1482   1.471   .     S
C1414  C1437   1.420   .     A
C1414  C594    1.406   1_556 S
C1415  H1443   1.080   .     S
C1415  C1420   1.403   .     A
C1415  C1605   1.397   1_455 S
C1416  C1419   1.401   .     A
C1416  H1444   1.080   .     S
C1416  C1512   1.396   .     S
C1417  H1445   1.079   .     S
C1417  C1419   1.403   .     A
C1417  C1509   1.397   .     S
C1418  H1446   1.079   .     S
C1418  C1420   1.402   .     A
C1418  C1604   1.396   1_455 S
C1421  N1448   1.374   .     A
C1421  O1485   1.384   .     S
C1422  N1447   1.388   .     A
C1422  O1490   1.383   .     S
C1422  C859    1.431   1_565 S
C1423  N1448   1.367   .     A
C1423  O1495   1.379   .     S
C1424  O1500   1.387   .     S
C1424  N1447   1.399   .     A
C1424  C857    1.438   1_565 S
C1425  C1430   1.485   .     S
C1425  O1453   1.304   .     A
C1425  O1456   1.315   .     A
C1426  O1454   1.317   .     A
C1426  O1455   1.311   .     A
C1426  C1429   1.493   .     S
C1427  C1437   1.433   .     A
C1427  C1457   1.470   .     S
C1427  C1429   1.416   .     A
C1428  C1438   1.432   .     A
C1428  C1460   1.498   .     S
C1428  C1430   1.406   .     A
C1429  C1431   1.402   .     A
C1430  C1432   1.403   .     A
C1431  C1433   1.406   .     A
C1431  O1463   1.382   .     S
C1432  C1434   1.419   .     A
C1432  O1468   1.384   .     S
C1433  C1439   1.394   .     A
C1433  C1435   1.401   .     A
C1434  C1436   1.411   .     A
C1434  C1440   1.421   .     A
C1435  C1437   1.413   .     A
C1435  C590    1.425   1_556 S
C1436  C1438   1.432   .     A
C1439  C1473   1.479   .     S
C1439  C567    1.393   1_556 S
C1440  C1476   1.479   .     S
Cu1441 O1453   1.996   .     S
Cu1441 Cu1442  2.722   .     S
Cu1441 N1447   2.045   .     S
Cu1441 O1451   1.991   .     S
Cu1441 O1449   1.998   .     S
Cu1441 O1455   1.988   .     S
Cu1442 N1448   2.045   .     S
Cu1442 O1450   1.998   .     S
Cu1442 O1454   1.996   .     S
Cu1442 O1456   1.988   .     S
Cu1442 O1452   1.991   .     S
C1457  O1459   1.217   .     D
C1457  H1458   1.079   .     S
C1460  O1462   1.214   .     D
C1460  H1461   1.075   .     S
O1463  C1464   1.406   .     S
C1464  H1466   1.113   .     S
C1464  H1465   1.080   .     S
C1464  H1467   1.106   .     S
O1468  C1469   1.409   .     S
C1469  H1470   1.107   .     S
C1469  H1471   1.078   .     S
C1469  H1472   1.103   .     S
C1473  O1475   1.208   .     D
C1473  H1474   1.092   .     S
C1476  O1478   1.213   .     D
C1476  H1477   1.089   .     S
C1479  O1481   1.205   .     D
C1479  H1480   1.083   .     S
H1480  O1481   1.161   .     S
C1482  O1484   1.220   .     D
C1482  H1483   1.087   .     S
O1485  C1486   1.416   .     S
C1486  H1489   1.108   .     S
C1486  H1487   1.098   .     S
C1486  H1488   1.111   .     S
O1490  C1491   1.407   .     S
C1491  H1494   1.103   .     S
C1491  H1492   1.091   .     S
C1491  H1493   1.113   .     S
O1495  C1496   1.402   .     S
C1496  H1498   1.109   .     S
C1496  H1497   1.098   .     S
C1496  H1499   1.111   .     S
O1500  C1501   1.409   .     S
C1501  H1502   1.110   .     S
C1501  H1503   1.103   .     S
C1501  H1504   1.096   .     S
C1505  C1514   1.480   .     S
C1505  O1543   1.315   .     A
C1505  O1546   1.308   .     A
C1506  O1545   1.310   .     A
C1506  O1544   1.314   .     A
C1506  C1513   1.479   .     S
C1507  C1532   1.419   .     A
C1507  C1573   1.478   .     S
C1508  C1576   1.471   .     S
C1508  C1531   1.420   .     A
C1508  C688    1.406   1_556 S
C1509  H1537   1.080   .     S
C1509  C1514   1.403   .     A
C1510  C1513   1.401   .     A
C1510  H1538   1.080   .     S
C1510  C1606   1.396   .     S
C1511  H1539   1.079   .     S
C1511  C1513   1.403   .     A
C1511  C1603   1.397   .     S
C1512  H1540   1.079   .     S
C1512  C1514   1.402   .     A
C1515  N1542   1.374   .     A
C1515  O1579   1.384   .     S
C1516  N1541   1.388   .     A
C1516  O1584   1.383   .     S
C1516  C953    1.431   1_565 S
C1517  N1542   1.367   .     A
C1517  O1589   1.379   .     S
C1518  O1594   1.387   .     S
C1518  N1541   1.399   .     A
C1518  C951    1.438   1_565 S
C1519  C1524   1.485   .     S
C1519  O1547   1.304   .     A
C1519  O1550   1.315   .     A
C1520  O1548   1.317   .     A
C1520  O1549   1.311   .     A
C1520  C1523   1.493   .     S
C1521  C1531   1.433   .     A
C1521  C1551   1.470   .     S
C1521  C1523   1.416   .     A
C1522  C1532   1.432   .     A
C1522  C1554   1.498   .     S
C1522  C1524   1.406   .     A
C1523  C1525   1.402   .     A
C1524  C1526   1.403   .     A
C1525  C1527   1.406   .     A
C1525  O1557   1.382   .     S
C1526  C1528   1.419   .     A
C1526  O1562   1.384   .     S
C1527  C1533   1.394   .     A
C1527  C1529   1.401   .     A
C1528  C1530   1.411   .     A
C1528  C1534   1.421   .     A
C1529  C1531   1.413   .     A
C1529  C684    1.425   1_556 S
C1530  C1532   1.432   .     A
C1533  C1567   1.479   .     S
C1533  C661    1.393   1_556 S
C1534  C1570   1.479   .     S
Cu1535 O1547   1.996   .     S
Cu1535 Cu1536  2.722   .     S
Cu1535 N1541   2.045   .     S
Cu1535 O1545   1.991   .     S
Cu1535 O1543   1.998   .     S
Cu1535 O1549   1.988   .     S
Cu1536 N1542   2.045   .     S
Cu1536 O1544   1.998   .     S
Cu1536 O1548   1.996   .     S
Cu1536 O1550   1.988   .     S
Cu1536 O1546   1.991   .     S
C1551  O1553   1.217   .     D
C1551  H1552   1.079   .     S
C1554  O1556   1.214   .     D
C1554  H1555   1.075   .     S
O1557  C1558   1.406   .     S
C1558  H1560   1.113   .     S
C1558  H1559   1.080   .     S
C1558  H1561   1.106   .     S
O1562  C1563   1.409   .     S
C1563  H1564   1.107   .     S
C1563  H1565   1.078   .     S
C1563  H1566   1.103   .     S
C1567  O1569   1.208   .     D
C1567  H1568   1.092   .     S
C1570  O1572   1.213   .     D
C1570  H1571   1.089   .     S
C1573  O1575   1.205   .     D
C1573  H1574   1.083   .     S
H1574  O1575   1.161   .     S
C1576  O1578   1.220   .     D
C1576  H1577   1.087   .     S
O1579  C1580   1.416   .     S
C1580  H1583   1.108   .     S
C1580  H1581   1.098   .     S
C1580  H1582   1.111   .     S
O1584  C1585   1.407   .     S
C1585  H1588   1.103   .     S
C1585  H1586   1.091   .     S
C1585  H1587   1.113   .     S
O1589  C1590   1.402   .     S
C1590  H1592   1.109   .     S
C1590  H1591   1.098   .     S
C1590  H1593   1.111   .     S
O1594  C1595   1.409   .     S
C1595  H1596   1.110   .     S
C1595  H1597   1.103   .     S
C1595  H1598   1.096   .     S
C1599  C1608   1.480   .     S
C1599  O1637   1.315   .     A
C1599  O1640   1.308   .     A
C1600  O1639   1.310   .     A
C1600  O1638   1.314   .     A
C1600  C1607   1.479   .     S
C1601  C1626   1.419   .     A
C1601  C1667   1.478   .     S
C1602  C1670   1.471   .     S
C1602  C1625   1.420   .     A
C1602  C782    1.406   1_556 S
C1603  H1631   1.080   .     S
C1603  C1608   1.403   .     A
C1604  C1607   1.401   .     A
C1604  H1632   1.080   .     S
C1604  C1418   1.396   1_655 S
C1605  H1633   1.079   .     S
C1605  C1607   1.403   .     A
C1605  C1415   1.397   1_655 S
C1606  H1634   1.079   .     S
C1606  C1608   1.402   .     A
C1609  N1636   1.374   .     A
C1609  O1673   1.384   .     S
C1610  N1635   1.388   .     A
C1610  O1678   1.383   .     S
C1610  C1047   1.431   1_565 S
C1611  N1636   1.367   .     A
C1611  O1683   1.379   .     S
C1612  O1688   1.387   .     S
C1612  N1635   1.399   .     A
C1612  C1045   1.438   1_565 S
C1613  C1618   1.485   .     S
C1613  O1641   1.304   .     A
C1613  O1644   1.315   .     A
C1614  O1642   1.317   .     A
C1614  O1643   1.311   .     A
C1614  C1617   1.493   .     S
C1615  C1625   1.433   .     A
C1615  C1645   1.470   .     S
C1615  C1617   1.416   .     A
C1616  C1626   1.432   .     A
C1616  C1648   1.498   .     S
C1616  C1618   1.406   .     A
C1617  C1619   1.402   .     A
C1618  C1620   1.403   .     A
C1619  C1621   1.406   .     A
C1619  O1651   1.382   .     S
C1620  C1622   1.419   .     A
C1620  O1656   1.384   .     S
C1621  C1627   1.394   .     A
C1621  C1623   1.401   .     A
C1622  C1624   1.411   .     A
C1622  C1628   1.421   .     A
C1623  C1625   1.413   .     A
C1623  C778    1.425   1_556 S
C1624  C1626   1.432   .     A
C1627  C1661   1.479   .     S
C1627  C755    1.393   1_556 S
C1628  C1664   1.479   .     S
Cu1629 O1641   1.996   .     S
Cu1629 Cu1630  2.722   .     S
Cu1629 N1635   2.045   .     S
Cu1629 O1639   1.991   .     S
Cu1629 O1637   1.998   .     S
Cu1629 O1643   1.988   .     S
Cu1630 N1636   2.045   .     S
Cu1630 O1638   1.998   .     S
Cu1630 O1642   1.996   .     S
Cu1630 O1644   1.988   .     S
Cu1630 O1640   1.991   .     S
C1645  O1647   1.217   .     D
C1645  H1646   1.079   .     S
C1648  O1650   1.214   .     D
C1648  H1649   1.075   .     S
O1651  C1652   1.406   .     S
C1652  H1654   1.113   .     S
C1652  H1653   1.080   .     S
C1652  H1655   1.106   .     S
O1656  C1657   1.409   .     S
C1657  H1658   1.107   .     S
C1657  H1659   1.078   .     S
C1657  H1660   1.103   .     S
C1661  O1663   1.208   .     D
C1661  H1662   1.092   .     S
C1664  O1666   1.213   .     D
C1664  H1665   1.089   .     S
C1667  O1669   1.205   .     D
C1667  H1668   1.083   .     S
H1668  O1669   1.161   .     S
C1670  O1672   1.220   .     D
C1670  H1671   1.087   .     S
O1673  C1674   1.416   .     S
C1674  H1677   1.108   .     S
C1674  H1675   1.098   .     S
C1674  H1676   1.111   .     S
O1678  C1679   1.407   .     S
C1679  H1682   1.103   .     S
C1679  H1680   1.091   .     S
C1679  H1681   1.113   .     S
O1683  C1684   1.402   .     S
C1684  H1686   1.109   .     S
C1684  H1685   1.098   .     S
C1684  H1687   1.111   .     S
O1688  C1689   1.409   .     S
C1689  H1690   1.110   .     S
C1689  H1691   1.103   .     S
C1689  H1692   1.096   .     S
