data_str_m2_o10_o17_pcu_sym.219
_audit_creation_date              2020-01-03
_audit_creation_method            'Materials Studio'
_symmetry_space_group_name_H-M    'P1'
_symmetry_Int_Tables_number       1
_symmetry_cell_setting            triclinic
loop_
_symmetry_equiv_pos_as_xyz
  x,y,z
_cell_length_a                    29.9250
_cell_length_b                    26.0189
_cell_length_c                    22.3610
_cell_angle_alpha                 102.8163
_cell_angle_beta                  94.1325
_cell_angle_gamma                 92.3999
loop_
_atom_site_label
_atom_site_type_symbol
_atom_site_fract_x
_atom_site_fract_y
_atom_site_fract_z
_atom_site_U_iso_or_equiv
_atom_site_adp_type
_atom_site_occupancy
O1     O     0.25325   0.09538   0.20659   0.00000  Uiso   1.00
O2     O     0.24674   0.23796   0.12674   0.00000  Uiso   1.00
O3     O     0.24480   0.08559   0.10279   0.00000  Uiso   1.00
O4     O     0.25520   0.24774   0.23055   0.00000  Uiso   1.00
C5     C     0.24866   0.06660   0.15113   0.00000  Uiso   1.00
C6     C     0.25134   0.26673   0.18221   0.00000  Uiso   1.00
O7     O     0.18935   0.17155   0.21857   0.00000  Uiso   1.00
O8     O     0.31064   0.16179   0.11476   0.00000  Uiso   1.00
O9     O     0.18090   0.16176   0.11477   0.00000  Uiso   1.00
O10    O     0.31910   0.17157   0.21857   0.00000  Uiso   1.00
C11    C     0.16455   0.16647   0.16747   0.00000  Uiso   1.00
C12    C     0.33545   0.16687   0.16586   0.00000  Uiso   1.00
Cu13   Cu    0.25500   0.17246   0.22813   0.00000  Uiso   1.00
Cu14   Cu    0.24499   0.16087   0.10521   0.00000  Uiso   1.00
C15    C     0.40964   0.21232   0.19394   0.00000  Uiso   1.00
C16    C     0.09036   0.12102   0.13938   0.00000  Uiso   1.00
C17    C     0.38353   0.16701   0.16437   0.00000  Uiso   1.00
C18    C     0.11647   0.16632   0.16896   0.00000  Uiso   1.00
C19    C     0.40316   0.12127   0.13580   0.00000  Uiso   1.00
C20    C     0.09684   0.21207   0.19753   0.00000  Uiso   1.00
C21    C     0.44997   0.11960   0.13816   0.00000  Uiso   1.00
C22    C     0.05003   0.21374   0.19516   0.00000  Uiso   1.00
C23    C     0.47655   0.16639   0.16636   0.00000  Uiso   1.00
C24    C     0.02345   0.16695   0.16695   0.00000  Uiso   1.00
C25    C     0.45615   0.21271   0.19412   0.00000  Uiso   1.00
C26    C     0.04385   0.12063   0.13919   0.00000  Uiso   1.00
C27    C     0.47094   0.07295   0.11233   0.00000  Uiso   1.00
C28    C     0.02906   0.26040   0.22096   0.00000  Uiso   1.00
C29    C     0.01769   0.07438   0.11220   0.00000  Uiso   1.00
C30    C     0.48231   0.25896   0.22110   0.00000  Uiso   1.00
H31    H     0.39355   0.24742   0.21586   0.00000  Uiso   1.00
H32    H     0.10644   0.08592   0.11746   0.00000  Uiso   1.00
H33    H     0.38149   0.08729   0.11258   0.00000  Uiso   1.00
H34    H     0.11851   0.24604   0.22076   0.00000  Uiso   1.00
H35    H     0.03380   0.03869   0.09245   0.00000  Uiso   1.00
H36    H     0.46619   0.29466   0.24082   0.00000  Uiso   1.00
C37    C     0.24801   0.01065   0.14236   0.00000  Uiso   1.00
C38    C     0.25199   0.32269   0.19097   0.00000  Uiso   1.00
H39    H     0.24427   0.32019   0.09550   0.00000  Uiso   1.00
H40    H     0.25573   0.01315   0.23783   0.00000  Uiso   1.00
N41    N     0.23744   0.15214   0.01284   0.00000  Uiso   1.00
N42    N     0.26255   0.18119   0.32049   0.00000  Uiso   1.00
H43    H     0.21504   0.12586   0.31624   0.00000  Uiso   1.00
H44    H     0.28496   0.20748   0.01710   0.00000  Uiso   1.00
N45    N     0.44572   0.02352   0.08810   0.00000  Uiso   1.00
O46    O     0.41710   0.00603   0.12114   0.00000  Uiso   1.00
O47    O     0.45761   0.32477   0.03921   0.00000  Uiso   1.00
N48    N     0.05427   0.30984   0.24513   0.00000  Uiso   1.00
O49    O     0.08293   0.32726   0.21209   0.00000  Uiso   1.00
O50    O     0.04233   0.00867   0.29392   0.00000  Uiso   1.00
O51    O     0.75325   0.09538   0.20659   0.00000  Uiso   1.00
O52    O     0.74674   0.23796   0.12674   0.00000  Uiso   1.00
O53    O     0.74480   0.08559   0.10279   0.00000  Uiso   1.00
O54    O     0.75520   0.24774   0.23055   0.00000  Uiso   1.00
C55    C     0.74866   0.06660   0.15113   0.00000  Uiso   1.00
C56    C     0.75134   0.26673   0.18221   0.00000  Uiso   1.00
O57    O     0.68935   0.17155   0.21857   0.00000  Uiso   1.00
O58    O     0.81064   0.16179   0.11476   0.00000  Uiso   1.00
O59    O     0.68090   0.16176   0.11477   0.00000  Uiso   1.00
O60    O     0.81910   0.17157   0.21857   0.00000  Uiso   1.00
C61    C     0.66455   0.16647   0.16747   0.00000  Uiso   1.00
C62    C     0.83545   0.16687   0.16586   0.00000  Uiso   1.00
Cu63   Cu    0.75500   0.17246   0.22813   0.00000  Uiso   1.00
Cu64   Cu    0.74499   0.16087   0.10521   0.00000  Uiso   1.00
C65    C     0.90964   0.21232   0.19394   0.00000  Uiso   1.00
C66    C     0.59036   0.12102   0.13938   0.00000  Uiso   1.00
C67    C     0.88353   0.16701   0.16437   0.00000  Uiso   1.00
C68    C     0.61647   0.16632   0.16896   0.00000  Uiso   1.00
C69    C     0.90316   0.12127   0.13580   0.00000  Uiso   1.00
C70    C     0.59684   0.21207   0.19753   0.00000  Uiso   1.00
C71    C     0.94997   0.11960   0.13816   0.00000  Uiso   1.00
C72    C     0.55003   0.21374   0.19516   0.00000  Uiso   1.00
C73    C     0.97655   0.16639   0.16636   0.00000  Uiso   1.00
C74    C     0.52345   0.16695   0.16695   0.00000  Uiso   1.00
C75    C     0.95615   0.21271   0.19412   0.00000  Uiso   1.00
C76    C     0.54385   0.12063   0.13919   0.00000  Uiso   1.00
C77    C     0.97094   0.07295   0.11233   0.00000  Uiso   1.00
C78    C     0.52906   0.26040   0.22096   0.00000  Uiso   1.00
C79    C     0.51769   0.07438   0.11220   0.00000  Uiso   1.00
C80    C     0.98231   0.25896   0.22110   0.00000  Uiso   1.00
H81    H     0.89355   0.24742   0.21586   0.00000  Uiso   1.00
H82    H     0.60644   0.08592   0.11746   0.00000  Uiso   1.00
H83    H     0.88149   0.08729   0.11258   0.00000  Uiso   1.00
H84    H     0.61851   0.24604   0.22076   0.00000  Uiso   1.00
H85    H     0.53380   0.03869   0.09245   0.00000  Uiso   1.00
H86    H     0.96619   0.29466   0.24082   0.00000  Uiso   1.00
C87    C     0.74801   0.01065   0.14236   0.00000  Uiso   1.00
C88    C     0.75199   0.32269   0.19097   0.00000  Uiso   1.00
H89    H     0.74427   0.32019   0.09550   0.00000  Uiso   1.00
H90    H     0.75573   0.01315   0.23783   0.00000  Uiso   1.00
N91    N     0.73744   0.15214   0.01284   0.00000  Uiso   1.00
N92    N     0.76255   0.18119   0.32049   0.00000  Uiso   1.00
H93    H     0.71504   0.12586   0.31624   0.00000  Uiso   1.00
H94    H     0.78496   0.20748   0.01710   0.00000  Uiso   1.00
N95    N     0.94572   0.02352   0.08810   0.00000  Uiso   1.00
O96    O     0.91710   0.00603   0.12114   0.00000  Uiso   1.00
O97    O     0.95761   0.32477   0.03921   0.00000  Uiso   1.00
N98    N     0.55427   0.30984   0.24513   0.00000  Uiso   1.00
O99    O     0.58293   0.32726   0.21209   0.00000  Uiso   1.00
O100   O     0.54233   0.00867   0.29392   0.00000  Uiso   1.00
O101   O     0.25325   0.42871   0.20659   0.00000  Uiso   1.00
O102   O     0.24674   0.57129   0.12674   0.00000  Uiso   1.00
O103   O     0.24480   0.41892   0.10279   0.00000  Uiso   1.00
O104   O     0.25520   0.58108   0.23055   0.00000  Uiso   1.00
C105   C     0.24866   0.39994   0.15113   0.00000  Uiso   1.00
C106   C     0.25134   0.60006   0.18221   0.00000  Uiso   1.00
O107   O     0.18935   0.50488   0.21857   0.00000  Uiso   1.00
O108   O     0.31064   0.49512   0.11476   0.00000  Uiso   1.00
O109   O     0.18090   0.49510   0.11477   0.00000  Uiso   1.00
O110   O     0.31910   0.50490   0.21857   0.00000  Uiso   1.00
C111   C     0.16455   0.49980   0.16747   0.00000  Uiso   1.00
C112   C     0.33545   0.50020   0.16586   0.00000  Uiso   1.00
Cu113  Cu    0.25500   0.50579   0.22813   0.00000  Uiso   1.00
Cu114  Cu    0.24499   0.49421   0.10521   0.00000  Uiso   1.00
C115   C     0.40964   0.54565   0.19394   0.00000  Uiso   1.00
C116   C     0.09036   0.45436   0.13938   0.00000  Uiso   1.00
C117   C     0.38353   0.50035   0.16437   0.00000  Uiso   1.00
C118   C     0.11647   0.49965   0.16896   0.00000  Uiso   1.00
C119   C     0.40316   0.45460   0.13580   0.00000  Uiso   1.00
C120   C     0.09684   0.54540   0.19753   0.00000  Uiso   1.00
C121   C     0.44997   0.45294   0.13816   0.00000  Uiso   1.00
C122   C     0.05003   0.54707   0.19516   0.00000  Uiso   1.00
C123   C     0.47655   0.49973   0.16636   0.00000  Uiso   1.00
C124   C     0.02345   0.50028   0.16695   0.00000  Uiso   1.00
C125   C     0.45615   0.54604   0.19412   0.00000  Uiso   1.00
C126   C     0.04385   0.45397   0.13919   0.00000  Uiso   1.00
C127   C     0.47094   0.40628   0.11233   0.00000  Uiso   1.00
C128   C     0.02906   0.59373   0.22096   0.00000  Uiso   1.00
C129   C     0.01769   0.40772   0.11220   0.00000  Uiso   1.00
C130   C     0.48231   0.59230   0.22110   0.00000  Uiso   1.00
H131   H     0.39355   0.58075   0.21586   0.00000  Uiso   1.00
H132   H     0.10644   0.41925   0.11746   0.00000  Uiso   1.00
H133   H     0.38149   0.42063   0.11258   0.00000  Uiso   1.00
H134   H     0.11851   0.57937   0.22076   0.00000  Uiso   1.00
H135   H     0.03380   0.37203   0.09245   0.00000  Uiso   1.00
H136   H     0.46619   0.62799   0.24082   0.00000  Uiso   1.00
C137   C     0.24801   0.34398   0.14236   0.00000  Uiso   1.00
C138   C     0.25199   0.65602   0.19097   0.00000  Uiso   1.00
H139   H     0.24427   0.65352   0.09550   0.00000  Uiso   1.00
H140   H     0.25573   0.34648   0.23783   0.00000  Uiso   1.00
N141   N     0.23744   0.48547   0.01284   0.00000  Uiso   1.00
N142   N     0.26255   0.51453   0.32049   0.00000  Uiso   1.00
H143   H     0.21504   0.45919   0.31624   0.00000  Uiso   1.00
H144   H     0.28496   0.54081   0.01710   0.00000  Uiso   1.00
N145   N     0.44572   0.35685   0.08810   0.00000  Uiso   1.00
O146   O     0.41710   0.33937   0.12114   0.00000  Uiso   1.00
O147   O     0.45761   0.65811   0.03921   0.00000  Uiso   1.00
N148   N     0.05427   0.64318   0.24513   0.00000  Uiso   1.00
O149   O     0.08293   0.66060   0.21209   0.00000  Uiso   1.00
O150   O     0.04233   0.34201   0.29392   0.00000  Uiso   1.00
O151   O     0.75325   0.42871   0.20659   0.00000  Uiso   1.00
O152   O     0.74674   0.57129   0.12674   0.00000  Uiso   1.00
O153   O     0.74480   0.41892   0.10279   0.00000  Uiso   1.00
O154   O     0.75520   0.58108   0.23055   0.00000  Uiso   1.00
C155   C     0.74866   0.39994   0.15113   0.00000  Uiso   1.00
C156   C     0.75134   0.60006   0.18221   0.00000  Uiso   1.00
O157   O     0.68935   0.50488   0.21857   0.00000  Uiso   1.00
O158   O     0.81064   0.49512   0.11476   0.00000  Uiso   1.00
O159   O     0.68090   0.49510   0.11477   0.00000  Uiso   1.00
O160   O     0.81910   0.50490   0.21857   0.00000  Uiso   1.00
C161   C     0.66455   0.49980   0.16747   0.00000  Uiso   1.00
C162   C     0.83545   0.50020   0.16586   0.00000  Uiso   1.00
Cu163  Cu    0.75500   0.50579   0.22813   0.00000  Uiso   1.00
Cu164  Cu    0.74499   0.49421   0.10521   0.00000  Uiso   1.00
C165   C     0.90964   0.54565   0.19394   0.00000  Uiso   1.00
C166   C     0.59036   0.45436   0.13938   0.00000  Uiso   1.00
C167   C     0.88353   0.50035   0.16437   0.00000  Uiso   1.00
C168   C     0.61647   0.49965   0.16896   0.00000  Uiso   1.00
C169   C     0.90316   0.45460   0.13580   0.00000  Uiso   1.00
C170   C     0.59684   0.54540   0.19753   0.00000  Uiso   1.00
C171   C     0.94997   0.45294   0.13816   0.00000  Uiso   1.00
C172   C     0.55003   0.54707   0.19516   0.00000  Uiso   1.00
C173   C     0.97655   0.49973   0.16636   0.00000  Uiso   1.00
C174   C     0.52345   0.50028   0.16695   0.00000  Uiso   1.00
C175   C     0.95615   0.54604   0.19412   0.00000  Uiso   1.00
C176   C     0.54385   0.45397   0.13919   0.00000  Uiso   1.00
C177   C     0.97094   0.40628   0.11233   0.00000  Uiso   1.00
C178   C     0.52906   0.59373   0.22096   0.00000  Uiso   1.00
C179   C     0.51769   0.40772   0.11220   0.00000  Uiso   1.00
C180   C     0.98231   0.59230   0.22110   0.00000  Uiso   1.00
H181   H     0.89355   0.58075   0.21586   0.00000  Uiso   1.00
H182   H     0.60644   0.41925   0.11746   0.00000  Uiso   1.00
H183   H     0.88149   0.42063   0.11258   0.00000  Uiso   1.00
H184   H     0.61851   0.57937   0.22076   0.00000  Uiso   1.00
H185   H     0.53380   0.37203   0.09245   0.00000  Uiso   1.00
H186   H     0.96619   0.62799   0.24082   0.00000  Uiso   1.00
C187   C     0.74801   0.34398   0.14236   0.00000  Uiso   1.00
C188   C     0.75199   0.65602   0.19097   0.00000  Uiso   1.00
H189   H     0.74427   0.65352   0.09550   0.00000  Uiso   1.00
H190   H     0.75573   0.34648   0.23783   0.00000  Uiso   1.00
N191   N     0.73744   0.48547   0.01284   0.00000  Uiso   1.00
N192   N     0.76255   0.51453   0.32049   0.00000  Uiso   1.00
H193   H     0.71504   0.45919   0.31624   0.00000  Uiso   1.00
H194   H     0.78496   0.54081   0.01710   0.00000  Uiso   1.00
N195   N     0.94572   0.35685   0.08810   0.00000  Uiso   1.00
O196   O     0.91710   0.33937   0.12114   0.00000  Uiso   1.00
O197   O     0.95761   0.65811   0.03921   0.00000  Uiso   1.00
N198   N     0.55427   0.64318   0.24513   0.00000  Uiso   1.00
O199   O     0.58293   0.66060   0.21209   0.00000  Uiso   1.00
O200   O     0.54233   0.34201   0.29392   0.00000  Uiso   1.00
O201   O     0.25325   0.76204   0.20659   0.00000  Uiso   1.00
O202   O     0.24674   0.90462   0.12674   0.00000  Uiso   1.00
O203   O     0.24480   0.75226   0.10279   0.00000  Uiso   1.00
O204   O     0.25520   0.91441   0.23055   0.00000  Uiso   1.00
C205   C     0.24866   0.73327   0.15113   0.00000  Uiso   1.00
C206   C     0.25134   0.93340   0.18221   0.00000  Uiso   1.00
O207   O     0.18935   0.83821   0.21857   0.00000  Uiso   1.00
O208   O     0.31064   0.82845   0.11476   0.00000  Uiso   1.00
O209   O     0.18090   0.82843   0.11477   0.00000  Uiso   1.00
O210   O     0.31910   0.83824   0.21857   0.00000  Uiso   1.00
C211   C     0.16455   0.83313   0.16747   0.00000  Uiso   1.00
C212   C     0.33545   0.83353   0.16586   0.00000  Uiso   1.00
Cu213  Cu    0.25500   0.83913   0.22813   0.00000  Uiso   1.00
Cu214  Cu    0.24499   0.82754   0.10521   0.00000  Uiso   1.00
C215   C     0.40964   0.87898   0.19394   0.00000  Uiso   1.00
C216   C     0.09036   0.78769   0.13938   0.00000  Uiso   1.00
C217   C     0.38353   0.83368   0.16437   0.00000  Uiso   1.00
C218   C     0.11647   0.83299   0.16896   0.00000  Uiso   1.00
C219   C     0.40316   0.78794   0.13580   0.00000  Uiso   1.00
C220   C     0.09684   0.87873   0.19753   0.00000  Uiso   1.00
C221   C     0.44997   0.78627   0.13816   0.00000  Uiso   1.00
C222   C     0.05003   0.88041   0.19516   0.00000  Uiso   1.00
C223   C     0.47655   0.83306   0.16636   0.00000  Uiso   1.00
C224   C     0.02345   0.83362   0.16695   0.00000  Uiso   1.00
C225   C     0.45615   0.87938   0.19412   0.00000  Uiso   1.00
C226   C     0.04385   0.78730   0.13919   0.00000  Uiso   1.00
C227   C     0.47094   0.73962   0.11233   0.00000  Uiso   1.00
C228   C     0.02906   0.92707   0.22096   0.00000  Uiso   1.00
C229   C     0.01769   0.74105   0.11220   0.00000  Uiso   1.00
C230   C     0.48231   0.92563   0.22110   0.00000  Uiso   1.00
H231   H     0.39355   0.91408   0.21586   0.00000  Uiso   1.00
H232   H     0.10644   0.75259   0.11746   0.00000  Uiso   1.00
H233   H     0.38149   0.75396   0.11258   0.00000  Uiso   1.00
H234   H     0.11851   0.91270   0.22076   0.00000  Uiso   1.00
H235   H     0.03380   0.70536   0.09245   0.00000  Uiso   1.00
H236   H     0.46619   0.96132   0.24082   0.00000  Uiso   1.00
C237   C     0.24801   0.67731   0.14236   0.00000  Uiso   1.00
C238   C     0.25199   0.98935   0.19097   0.00000  Uiso   1.00
H239   H     0.24427   0.98685   0.09550   0.00000  Uiso   1.00
H240   H     0.25573   0.67981   0.23783   0.00000  Uiso   1.00
N241   N     0.23744   0.81881   0.01284   0.00000  Uiso   1.00
N242   N     0.26255   0.84786   0.32049   0.00000  Uiso   1.00
H243   H     0.21504   0.79252   0.31624   0.00000  Uiso   1.00
H244   H     0.28496   0.87414   0.01710   0.00000  Uiso   1.00
N245   N     0.44572   0.69019   0.08810   0.00000  Uiso   1.00
O246   O     0.41710   0.67270   0.12114   0.00000  Uiso   1.00
O247   O     0.45761   0.99144   0.03921   0.00000  Uiso   1.00
N248   N     0.05427   0.97651   0.24513   0.00000  Uiso   1.00
O249   O     0.08293   0.99393   0.21209   0.00000  Uiso   1.00
O250   O     0.04233   0.67534   0.29392   0.00000  Uiso   1.00
O251   O     0.75325   0.76204   0.20659   0.00000  Uiso   1.00
O252   O     0.74674   0.90462   0.12674   0.00000  Uiso   1.00
O253   O     0.74480   0.75226   0.10279   0.00000  Uiso   1.00
O254   O     0.75520   0.91441   0.23055   0.00000  Uiso   1.00
C255   C     0.74866   0.73327   0.15113   0.00000  Uiso   1.00
C256   C     0.75134   0.93340   0.18221   0.00000  Uiso   1.00
O257   O     0.68935   0.83821   0.21857   0.00000  Uiso   1.00
O258   O     0.81064   0.82845   0.11476   0.00000  Uiso   1.00
O259   O     0.68090   0.82843   0.11477   0.00000  Uiso   1.00
O260   O     0.81910   0.83824   0.21857   0.00000  Uiso   1.00
C261   C     0.66455   0.83313   0.16747   0.00000  Uiso   1.00
C262   C     0.83545   0.83353   0.16586   0.00000  Uiso   1.00
Cu263  Cu    0.75500   0.83913   0.22813   0.00000  Uiso   1.00
Cu264  Cu    0.74499   0.82754   0.10521   0.00000  Uiso   1.00
C265   C     0.90964   0.87898   0.19394   0.00000  Uiso   1.00
C266   C     0.59036   0.78769   0.13938   0.00000  Uiso   1.00
C267   C     0.88353   0.83368   0.16437   0.00000  Uiso   1.00
C268   C     0.61647   0.83299   0.16896   0.00000  Uiso   1.00
C269   C     0.90316   0.78794   0.13580   0.00000  Uiso   1.00
C270   C     0.59684   0.87873   0.19753   0.00000  Uiso   1.00
C271   C     0.94997   0.78627   0.13816   0.00000  Uiso   1.00
C272   C     0.55003   0.88041   0.19516   0.00000  Uiso   1.00
C273   C     0.97655   0.83306   0.16636   0.00000  Uiso   1.00
C274   C     0.52345   0.83362   0.16695   0.00000  Uiso   1.00
C275   C     0.95615   0.87938   0.19412   0.00000  Uiso   1.00
C276   C     0.54385   0.78730   0.13919   0.00000  Uiso   1.00
C277   C     0.97094   0.73962   0.11233   0.00000  Uiso   1.00
C278   C     0.52906   0.92707   0.22096   0.00000  Uiso   1.00
C279   C     0.51769   0.74105   0.11220   0.00000  Uiso   1.00
C280   C     0.98231   0.92563   0.22110   0.00000  Uiso   1.00
H281   H     0.89355   0.91408   0.21586   0.00000  Uiso   1.00
H282   H     0.60644   0.75259   0.11746   0.00000  Uiso   1.00
H283   H     0.88149   0.75396   0.11258   0.00000  Uiso   1.00
H284   H     0.61851   0.91270   0.22076   0.00000  Uiso   1.00
H285   H     0.53380   0.70536   0.09245   0.00000  Uiso   1.00
H286   H     0.96619   0.96132   0.24082   0.00000  Uiso   1.00
C287   C     0.74801   0.67731   0.14236   0.00000  Uiso   1.00
C288   C     0.75199   0.98935   0.19097   0.00000  Uiso   1.00
H289   H     0.74427   0.98685   0.09550   0.00000  Uiso   1.00
H290   H     0.75573   0.67981   0.23783   0.00000  Uiso   1.00
N291   N     0.73744   0.81881   0.01284   0.00000  Uiso   1.00
N292   N     0.76255   0.84786   0.32049   0.00000  Uiso   1.00
H293   H     0.71504   0.79252   0.31624   0.00000  Uiso   1.00
H294   H     0.78496   0.87414   0.01710   0.00000  Uiso   1.00
N295   N     0.94572   0.69019   0.08810   0.00000  Uiso   1.00
O296   O     0.91710   0.67270   0.12114   0.00000  Uiso   1.00
O297   O     0.95761   0.99144   0.03921   0.00000  Uiso   1.00
N298   N     0.55427   0.97651   0.24513   0.00000  Uiso   1.00
O299   O     0.58293   0.99393   0.21209   0.00000  Uiso   1.00
O300   O     0.54233   0.67534   0.29392   0.00000  Uiso   1.00
O301   O     0.25325   0.09538   0.53992   0.00000  Uiso   1.00
O302   O     0.24674   0.23796   0.46008   0.00000  Uiso   1.00
O303   O     0.24480   0.08559   0.43612   0.00000  Uiso   1.00
O304   O     0.25520   0.24774   0.56388   0.00000  Uiso   1.00
C305   C     0.24866   0.06660   0.48446   0.00000  Uiso   1.00
C306   C     0.25134   0.26673   0.51554   0.00000  Uiso   1.00
O307   O     0.18935   0.17155   0.55191   0.00000  Uiso   1.00
O308   O     0.31064   0.16179   0.44809   0.00000  Uiso   1.00
O309   O     0.18090   0.16176   0.44810   0.00000  Uiso   1.00
O310   O     0.31910   0.17157   0.55190   0.00000  Uiso   1.00
C311   C     0.16455   0.16647   0.50080   0.00000  Uiso   1.00
C312   C     0.33545   0.16687   0.49920   0.00000  Uiso   1.00
Cu313  Cu    0.25500   0.17246   0.56146   0.00000  Uiso   1.00
Cu314  Cu    0.24499   0.16087   0.43854   0.00000  Uiso   1.00
C315   C     0.40964   0.21232   0.52727   0.00000  Uiso   1.00
C316   C     0.09036   0.12102   0.47272   0.00000  Uiso   1.00
C317   C     0.38353   0.16701   0.49770   0.00000  Uiso   1.00
C318   C     0.11647   0.16632   0.50229   0.00000  Uiso   1.00
C319   C     0.40316   0.12127   0.46913   0.00000  Uiso   1.00
C320   C     0.09684   0.21207   0.53086   0.00000  Uiso   1.00
C321   C     0.44997   0.11960   0.47149   0.00000  Uiso   1.00
C322   C     0.05003   0.21374   0.52849   0.00000  Uiso   1.00
C323   C     0.47655   0.16639   0.49969   0.00000  Uiso   1.00
C324   C     0.02345   0.16695   0.50029   0.00000  Uiso   1.00
C325   C     0.45615   0.21271   0.52746   0.00000  Uiso   1.00
C326   C     0.04385   0.12063   0.47252   0.00000  Uiso   1.00
C327   C     0.47094   0.07295   0.44566   0.00000  Uiso   1.00
C328   C     0.02906   0.26040   0.55429   0.00000  Uiso   1.00
C329   C     0.01769   0.07438   0.44553   0.00000  Uiso   1.00
C330   C     0.48231   0.25896   0.55443   0.00000  Uiso   1.00
H331   H     0.39355   0.24742   0.54919   0.00000  Uiso   1.00
H332   H     0.10644   0.08592   0.45080   0.00000  Uiso   1.00
H333   H     0.38149   0.08729   0.44591   0.00000  Uiso   1.00
H334   H     0.11851   0.24604   0.55410   0.00000  Uiso   1.00
H335   H     0.03380   0.03869   0.42578   0.00000  Uiso   1.00
H336   H     0.46619   0.29466   0.57416   0.00000  Uiso   1.00
C337   C     0.24801   0.01065   0.47570   0.00000  Uiso   1.00
C338   C     0.25199   0.32269   0.52430   0.00000  Uiso   1.00
H339   H     0.24427   0.32019   0.42883   0.00000  Uiso   1.00
H340   H     0.25573   0.01315   0.57117   0.00000  Uiso   1.00
N341   N     0.23744   0.15214   0.34617   0.00000  Uiso   1.00
N342   N     0.26255   0.18119   0.65383   0.00000  Uiso   1.00
H343   H     0.21504   0.12586   0.64957   0.00000  Uiso   1.00
H344   H     0.28496   0.20748   0.35043   0.00000  Uiso   1.00
N345   N     0.44572   0.02352   0.42143   0.00000  Uiso   1.00
O346   O     0.41710   0.00603   0.45447   0.00000  Uiso   1.00
O347   O     0.45761   0.32477   0.37255   0.00000  Uiso   1.00
N348   N     0.05427   0.30984   0.57846   0.00000  Uiso   1.00
O349   O     0.08293   0.32726   0.54542   0.00000  Uiso   1.00
O350   O     0.04233   0.00867   0.62725   0.00000  Uiso   1.00
O351   O     0.75325   0.09538   0.53992   0.00000  Uiso   1.00
O352   O     0.74674   0.23796   0.46008   0.00000  Uiso   1.00
O353   O     0.74480   0.08559   0.43612   0.00000  Uiso   1.00
O354   O     0.75520   0.24774   0.56388   0.00000  Uiso   1.00
C355   C     0.74866   0.06660   0.48446   0.00000  Uiso   1.00
C356   C     0.75134   0.26673   0.51554   0.00000  Uiso   1.00
O357   O     0.68935   0.17155   0.55191   0.00000  Uiso   1.00
O358   O     0.81064   0.16179   0.44809   0.00000  Uiso   1.00
O359   O     0.68090   0.16176   0.44810   0.00000  Uiso   1.00
O360   O     0.81910   0.17157   0.55190   0.00000  Uiso   1.00
C361   C     0.66455   0.16647   0.50080   0.00000  Uiso   1.00
C362   C     0.83545   0.16687   0.49920   0.00000  Uiso   1.00
Cu363  Cu    0.75500   0.17246   0.56146   0.00000  Uiso   1.00
Cu364  Cu    0.74499   0.16087   0.43854   0.00000  Uiso   1.00
C365   C     0.90964   0.21232   0.52727   0.00000  Uiso   1.00
C366   C     0.59036   0.12102   0.47272   0.00000  Uiso   1.00
C367   C     0.88353   0.16701   0.49770   0.00000  Uiso   1.00
C368   C     0.61647   0.16632   0.50229   0.00000  Uiso   1.00
C369   C     0.90316   0.12127   0.46913   0.00000  Uiso   1.00
C370   C     0.59684   0.21207   0.53086   0.00000  Uiso   1.00
C371   C     0.94997   0.11960   0.47149   0.00000  Uiso   1.00
C372   C     0.55003   0.21374   0.52849   0.00000  Uiso   1.00
C373   C     0.97655   0.16639   0.49969   0.00000  Uiso   1.00
C374   C     0.52345   0.16695   0.50029   0.00000  Uiso   1.00
C375   C     0.95615   0.21271   0.52746   0.00000  Uiso   1.00
C376   C     0.54385   0.12063   0.47252   0.00000  Uiso   1.00
C377   C     0.97094   0.07295   0.44566   0.00000  Uiso   1.00
C378   C     0.52906   0.26040   0.55429   0.00000  Uiso   1.00
C379   C     0.51769   0.07438   0.44553   0.00000  Uiso   1.00
C380   C     0.98231   0.25896   0.55443   0.00000  Uiso   1.00
H381   H     0.89355   0.24742   0.54919   0.00000  Uiso   1.00
H382   H     0.60644   0.08592   0.45080   0.00000  Uiso   1.00
H383   H     0.88149   0.08729   0.44591   0.00000  Uiso   1.00
H384   H     0.61851   0.24604   0.55410   0.00000  Uiso   1.00
H385   H     0.53380   0.03869   0.42578   0.00000  Uiso   1.00
H386   H     0.96619   0.29466   0.57416   0.00000  Uiso   1.00
C387   C     0.74801   0.01065   0.47570   0.00000  Uiso   1.00
C388   C     0.75199   0.32269   0.52430   0.00000  Uiso   1.00
H389   H     0.74427   0.32019   0.42883   0.00000  Uiso   1.00
H390   H     0.75573   0.01315   0.57117   0.00000  Uiso   1.00
N391   N     0.73744   0.15214   0.34617   0.00000  Uiso   1.00
N392   N     0.76255   0.18119   0.65383   0.00000  Uiso   1.00
H393   H     0.71504   0.12586   0.64957   0.00000  Uiso   1.00
H394   H     0.78496   0.20748   0.35043   0.00000  Uiso   1.00
N395   N     0.94572   0.02352   0.42143   0.00000  Uiso   1.00
O396   O     0.91710   0.00603   0.45447   0.00000  Uiso   1.00
O397   O     0.95761   0.32477   0.37255   0.00000  Uiso   1.00
N398   N     0.55427   0.30984   0.57846   0.00000  Uiso   1.00
O399   O     0.58293   0.32726   0.54542   0.00000  Uiso   1.00
O400   O     0.54233   0.00867   0.62725   0.00000  Uiso   1.00
O401   O     0.25325   0.42871   0.53992   0.00000  Uiso   1.00
O402   O     0.24674   0.57129   0.46008   0.00000  Uiso   1.00
O403   O     0.24480   0.41892   0.43612   0.00000  Uiso   1.00
O404   O     0.25520   0.58108   0.56388   0.00000  Uiso   1.00
C405   C     0.24866   0.39994   0.48446   0.00000  Uiso   1.00
C406   C     0.25134   0.60006   0.51554   0.00000  Uiso   1.00
O407   O     0.18935   0.50488   0.55191   0.00000  Uiso   1.00
O408   O     0.31064   0.49512   0.44809   0.00000  Uiso   1.00
O409   O     0.18090   0.49510   0.44810   0.00000  Uiso   1.00
O410   O     0.31910   0.50490   0.55190   0.00000  Uiso   1.00
C411   C     0.16455   0.49980   0.50080   0.00000  Uiso   1.00
C412   C     0.33545   0.50020   0.49920   0.00000  Uiso   1.00
Cu413  Cu    0.25500   0.50579   0.56146   0.00000  Uiso   1.00
Cu414  Cu    0.24499   0.49421   0.43854   0.00000  Uiso   1.00
C415   C     0.40964   0.54565   0.52727   0.00000  Uiso   1.00
C416   C     0.09036   0.45436   0.47272   0.00000  Uiso   1.00
C417   C     0.38353   0.50035   0.49770   0.00000  Uiso   1.00
C418   C     0.11647   0.49965   0.50229   0.00000  Uiso   1.00
C419   C     0.40316   0.45460   0.46913   0.00000  Uiso   1.00
C420   C     0.09684   0.54540   0.53086   0.00000  Uiso   1.00
C421   C     0.44997   0.45294   0.47149   0.00000  Uiso   1.00
C422   C     0.05003   0.54707   0.52849   0.00000  Uiso   1.00
C423   C     0.47655   0.49973   0.49969   0.00000  Uiso   1.00
C424   C     0.02345   0.50028   0.50029   0.00000  Uiso   1.00
C425   C     0.45615   0.54604   0.52746   0.00000  Uiso   1.00
C426   C     0.04385   0.45397   0.47252   0.00000  Uiso   1.00
C427   C     0.47094   0.40628   0.44566   0.00000  Uiso   1.00
C428   C     0.02906   0.59373   0.55429   0.00000  Uiso   1.00
C429   C     0.01769   0.40772   0.44553   0.00000  Uiso   1.00
C430   C     0.48231   0.59230   0.55443   0.00000  Uiso   1.00
H431   H     0.39355   0.58075   0.54919   0.00000  Uiso   1.00
H432   H     0.10644   0.41925   0.45080   0.00000  Uiso   1.00
H433   H     0.38149   0.42063   0.44591   0.00000  Uiso   1.00
H434   H     0.11851   0.57937   0.55410   0.00000  Uiso   1.00
H435   H     0.03380   0.37203   0.42578   0.00000  Uiso   1.00
H436   H     0.46619   0.62799   0.57416   0.00000  Uiso   1.00
C437   C     0.24801   0.34398   0.47570   0.00000  Uiso   1.00
C438   C     0.25199   0.65602   0.52430   0.00000  Uiso   1.00
H439   H     0.24427   0.65352   0.42883   0.00000  Uiso   1.00
H440   H     0.25573   0.34648   0.57117   0.00000  Uiso   1.00
N441   N     0.23744   0.48547   0.34617   0.00000  Uiso   1.00
N442   N     0.26255   0.51453   0.65383   0.00000  Uiso   1.00
H443   H     0.21504   0.45919   0.64957   0.00000  Uiso   1.00
H444   H     0.28496   0.54081   0.35043   0.00000  Uiso   1.00
N445   N     0.44572   0.35685   0.42143   0.00000  Uiso   1.00
O446   O     0.41710   0.33937   0.45447   0.00000  Uiso   1.00
O447   O     0.45761   0.65811   0.37255   0.00000  Uiso   1.00
N448   N     0.05427   0.64318   0.57846   0.00000  Uiso   1.00
O449   O     0.08293   0.66060   0.54542   0.00000  Uiso   1.00
O450   O     0.04233   0.34201   0.62725   0.00000  Uiso   1.00
O451   O     0.75325   0.42871   0.53992   0.00000  Uiso   1.00
O452   O     0.74674   0.57129   0.46008   0.00000  Uiso   1.00
O453   O     0.74480   0.41892   0.43612   0.00000  Uiso   1.00
O454   O     0.75520   0.58108   0.56388   0.00000  Uiso   1.00
C455   C     0.74866   0.39994   0.48446   0.00000  Uiso   1.00
C456   C     0.75134   0.60006   0.51554   0.00000  Uiso   1.00
O457   O     0.68935   0.50488   0.55191   0.00000  Uiso   1.00
O458   O     0.81064   0.49512   0.44809   0.00000  Uiso   1.00
O459   O     0.68090   0.49510   0.44810   0.00000  Uiso   1.00
O460   O     0.81910   0.50490   0.55190   0.00000  Uiso   1.00
C461   C     0.66455   0.49980   0.50080   0.00000  Uiso   1.00
C462   C     0.83545   0.50020   0.49920   0.00000  Uiso   1.00
Cu463  Cu    0.75500   0.50579   0.56146   0.00000  Uiso   1.00
Cu464  Cu    0.74499   0.49421   0.43854   0.00000  Uiso   1.00
C465   C     0.90964   0.54565   0.52727   0.00000  Uiso   1.00
C466   C     0.59036   0.45436   0.47272   0.00000  Uiso   1.00
C467   C     0.88353   0.50035   0.49770   0.00000  Uiso   1.00
C468   C     0.61647   0.49965   0.50229   0.00000  Uiso   1.00
C469   C     0.90316   0.45460   0.46913   0.00000  Uiso   1.00
C470   C     0.59684   0.54540   0.53086   0.00000  Uiso   1.00
C471   C     0.94997   0.45294   0.47149   0.00000  Uiso   1.00
C472   C     0.55003   0.54707   0.52849   0.00000  Uiso   1.00
C473   C     0.97655   0.49973   0.49969   0.00000  Uiso   1.00
C474   C     0.52345   0.50028   0.50029   0.00000  Uiso   1.00
C475   C     0.95615   0.54604   0.52746   0.00000  Uiso   1.00
C476   C     0.54385   0.45397   0.47252   0.00000  Uiso   1.00
C477   C     0.97094   0.40628   0.44566   0.00000  Uiso   1.00
C478   C     0.52906   0.59373   0.55429   0.00000  Uiso   1.00
C479   C     0.51769   0.40772   0.44553   0.00000  Uiso   1.00
C480   C     0.98231   0.59230   0.55443   0.00000  Uiso   1.00
H481   H     0.89355   0.58075   0.54919   0.00000  Uiso   1.00
H482   H     0.60644   0.41925   0.45080   0.00000  Uiso   1.00
H483   H     0.88149   0.42063   0.44591   0.00000  Uiso   1.00
H484   H     0.61851   0.57937   0.55410   0.00000  Uiso   1.00
H485   H     0.53380   0.37203   0.42578   0.00000  Uiso   1.00
H486   H     0.96619   0.62799   0.57416   0.00000  Uiso   1.00
C487   C     0.74801   0.34398   0.47570   0.00000  Uiso   1.00
C488   C     0.75199   0.65602   0.52430   0.00000  Uiso   1.00
H489   H     0.74427   0.65352   0.42883   0.00000  Uiso   1.00
H490   H     0.75573   0.34648   0.57117   0.00000  Uiso   1.00
N491   N     0.73744   0.48547   0.34617   0.00000  Uiso   1.00
N492   N     0.76255   0.51453   0.65383   0.00000  Uiso   1.00
H493   H     0.71504   0.45919   0.64957   0.00000  Uiso   1.00
H494   H     0.78496   0.54081   0.35043   0.00000  Uiso   1.00
N495   N     0.94572   0.35685   0.42143   0.00000  Uiso   1.00
O496   O     0.91710   0.33937   0.45447   0.00000  Uiso   1.00
O497   O     0.95761   0.65811   0.37255   0.00000  Uiso   1.00
N498   N     0.55427   0.64318   0.57846   0.00000  Uiso   1.00
O499   O     0.58293   0.66060   0.54542   0.00000  Uiso   1.00
O500   O     0.54233   0.34201   0.62725   0.00000  Uiso   1.00
O501   O     0.25325   0.76204   0.53992   0.00000  Uiso   1.00
O502   O     0.24674   0.90462   0.46008   0.00000  Uiso   1.00
O503   O     0.24480   0.75226   0.43612   0.00000  Uiso   1.00
O504   O     0.25520   0.91441   0.56388   0.00000  Uiso   1.00
C505   C     0.24866   0.73327   0.48446   0.00000  Uiso   1.00
C506   C     0.25134   0.93340   0.51554   0.00000  Uiso   1.00
O507   O     0.18935   0.83821   0.55191   0.00000  Uiso   1.00
O508   O     0.31064   0.82845   0.44809   0.00000  Uiso   1.00
O509   O     0.18090   0.82843   0.44810   0.00000  Uiso   1.00
O510   O     0.31910   0.83824   0.55190   0.00000  Uiso   1.00
C511   C     0.16455   0.83313   0.50080   0.00000  Uiso   1.00
C512   C     0.33545   0.83353   0.49920   0.00000  Uiso   1.00
Cu513  Cu    0.25500   0.83913   0.56146   0.00000  Uiso   1.00
Cu514  Cu    0.24499   0.82754   0.43854   0.00000  Uiso   1.00
C515   C     0.40964   0.87898   0.52727   0.00000  Uiso   1.00
C516   C     0.09036   0.78769   0.47272   0.00000  Uiso   1.00
C517   C     0.38353   0.83368   0.49770   0.00000  Uiso   1.00
C518   C     0.11647   0.83299   0.50229   0.00000  Uiso   1.00
C519   C     0.40316   0.78794   0.46913   0.00000  Uiso   1.00
C520   C     0.09684   0.87873   0.53086   0.00000  Uiso   1.00
C521   C     0.44997   0.78627   0.47149   0.00000  Uiso   1.00
C522   C     0.05003   0.88041   0.52849   0.00000  Uiso   1.00
C523   C     0.47655   0.83306   0.49969   0.00000  Uiso   1.00
C524   C     0.02345   0.83362   0.50029   0.00000  Uiso   1.00
C525   C     0.45615   0.87938   0.52746   0.00000  Uiso   1.00
C526   C     0.04385   0.78730   0.47252   0.00000  Uiso   1.00
C527   C     0.47094   0.73962   0.44566   0.00000  Uiso   1.00
C528   C     0.02906   0.92707   0.55429   0.00000  Uiso   1.00
C529   C     0.01769   0.74105   0.44553   0.00000  Uiso   1.00
C530   C     0.48231   0.92563   0.55443   0.00000  Uiso   1.00
H531   H     0.39355   0.91408   0.54919   0.00000  Uiso   1.00
H532   H     0.10644   0.75259   0.45080   0.00000  Uiso   1.00
H533   H     0.38149   0.75396   0.44591   0.00000  Uiso   1.00
H534   H     0.11851   0.91270   0.55410   0.00000  Uiso   1.00
H535   H     0.03380   0.70536   0.42578   0.00000  Uiso   1.00
H536   H     0.46619   0.96132   0.57416   0.00000  Uiso   1.00
C537   C     0.24801   0.67731   0.47570   0.00000  Uiso   1.00
C538   C     0.25199   0.98935   0.52430   0.00000  Uiso   1.00
H539   H     0.24427   0.98685   0.42883   0.00000  Uiso   1.00
H540   H     0.25573   0.67981   0.57117   0.00000  Uiso   1.00
N541   N     0.23744   0.81881   0.34617   0.00000  Uiso   1.00
N542   N     0.26255   0.84786   0.65383   0.00000  Uiso   1.00
H543   H     0.21504   0.79252   0.64957   0.00000  Uiso   1.00
H544   H     0.28496   0.87414   0.35043   0.00000  Uiso   1.00
N545   N     0.44572   0.69019   0.42143   0.00000  Uiso   1.00
O546   O     0.41710   0.67270   0.45447   0.00000  Uiso   1.00
O547   O     0.45761   0.99144   0.37255   0.00000  Uiso   1.00
N548   N     0.05427   0.97651   0.57846   0.00000  Uiso   1.00
O549   O     0.08293   0.99393   0.54542   0.00000  Uiso   1.00
O550   O     0.04233   0.67534   0.62725   0.00000  Uiso   1.00
O551   O     0.75325   0.76204   0.53992   0.00000  Uiso   1.00
O552   O     0.74674   0.90462   0.46008   0.00000  Uiso   1.00
O553   O     0.74480   0.75226   0.43612   0.00000  Uiso   1.00
O554   O     0.75520   0.91441   0.56388   0.00000  Uiso   1.00
C555   C     0.74866   0.73327   0.48446   0.00000  Uiso   1.00
C556   C     0.75134   0.93340   0.51554   0.00000  Uiso   1.00
O557   O     0.68935   0.83821   0.55191   0.00000  Uiso   1.00
O558   O     0.81064   0.82845   0.44809   0.00000  Uiso   1.00
O559   O     0.68090   0.82843   0.44810   0.00000  Uiso   1.00
O560   O     0.81910   0.83824   0.55190   0.00000  Uiso   1.00
C561   C     0.66455   0.83313   0.50080   0.00000  Uiso   1.00
C562   C     0.83545   0.83353   0.49920   0.00000  Uiso   1.00
Cu563  Cu    0.75500   0.83913   0.56146   0.00000  Uiso   1.00
Cu564  Cu    0.74499   0.82754   0.43854   0.00000  Uiso   1.00
C565   C     0.90964   0.87898   0.52727   0.00000  Uiso   1.00
C566   C     0.59036   0.78769   0.47272   0.00000  Uiso   1.00
C567   C     0.88353   0.83368   0.49770   0.00000  Uiso   1.00
C568   C     0.61647   0.83299   0.50229   0.00000  Uiso   1.00
C569   C     0.90316   0.78794   0.46913   0.00000  Uiso   1.00
C570   C     0.59684   0.87873   0.53086   0.00000  Uiso   1.00
C571   C     0.94997   0.78627   0.47149   0.00000  Uiso   1.00
C572   C     0.55003   0.88041   0.52849   0.00000  Uiso   1.00
C573   C     0.97655   0.83306   0.49969   0.00000  Uiso   1.00
C574   C     0.52345   0.83362   0.50029   0.00000  Uiso   1.00
C575   C     0.95615   0.87938   0.52746   0.00000  Uiso   1.00
C576   C     0.54385   0.78730   0.47252   0.00000  Uiso   1.00
C577   C     0.97094   0.73962   0.44566   0.00000  Uiso   1.00
C578   C     0.52906   0.92707   0.55429   0.00000  Uiso   1.00
C579   C     0.51769   0.74105   0.44553   0.00000  Uiso   1.00
C580   C     0.98231   0.92563   0.55443   0.00000  Uiso   1.00
H581   H     0.89355   0.91408   0.54919   0.00000  Uiso   1.00
H582   H     0.60644   0.75259   0.45080   0.00000  Uiso   1.00
H583   H     0.88149   0.75396   0.44591   0.00000  Uiso   1.00
H584   H     0.61851   0.91270   0.55410   0.00000  Uiso   1.00
H585   H     0.53380   0.70536   0.42578   0.00000  Uiso   1.00
H586   H     0.96619   0.96132   0.57416   0.00000  Uiso   1.00
C587   C     0.74801   0.67731   0.47570   0.00000  Uiso   1.00
C588   C     0.75199   0.98935   0.52430   0.00000  Uiso   1.00
H589   H     0.74427   0.98685   0.42883   0.00000  Uiso   1.00
H590   H     0.75573   0.67981   0.57117   0.00000  Uiso   1.00
N591   N     0.73744   0.81881   0.34617   0.00000  Uiso   1.00
N592   N     0.76255   0.84786   0.65383   0.00000  Uiso   1.00
H593   H     0.71504   0.79252   0.64957   0.00000  Uiso   1.00
H594   H     0.78496   0.87414   0.35043   0.00000  Uiso   1.00
N595   N     0.94572   0.69019   0.42143   0.00000  Uiso   1.00
O596   O     0.91710   0.67270   0.45447   0.00000  Uiso   1.00
O597   O     0.95761   0.99144   0.37255   0.00000  Uiso   1.00
N598   N     0.55427   0.97651   0.57846   0.00000  Uiso   1.00
O599   O     0.58293   0.99393   0.54542   0.00000  Uiso   1.00
O600   O     0.54233   0.67534   0.62725   0.00000  Uiso   1.00
O601   O     0.25325   0.09538   0.87326   0.00000  Uiso   1.00
O602   O     0.24674   0.23796   0.79341   0.00000  Uiso   1.00
O603   O     0.24480   0.08559   0.76945   0.00000  Uiso   1.00
O604   O     0.25520   0.24774   0.89721   0.00000  Uiso   1.00
C605   C     0.24866   0.06660   0.81779   0.00000  Uiso   1.00
C606   C     0.25134   0.26673   0.84887   0.00000  Uiso   1.00
O607   O     0.18935   0.17155   0.88524   0.00000  Uiso   1.00
O608   O     0.31064   0.16179   0.78143   0.00000  Uiso   1.00
O609   O     0.18090   0.16176   0.78143   0.00000  Uiso   1.00
O610   O     0.31910   0.17157   0.88523   0.00000  Uiso   1.00
C611   C     0.16455   0.16647   0.83414   0.00000  Uiso   1.00
C612   C     0.33545   0.16687   0.83253   0.00000  Uiso   1.00
Cu613  Cu    0.25500   0.17246   0.89479   0.00000  Uiso   1.00
Cu614  Cu    0.24499   0.16087   0.77187   0.00000  Uiso   1.00
C615   C     0.40964   0.21232   0.86060   0.00000  Uiso   1.00
C616   C     0.09036   0.12102   0.80605   0.00000  Uiso   1.00
C617   C     0.38353   0.16701   0.83104   0.00000  Uiso   1.00
C618   C     0.11647   0.16632   0.83563   0.00000  Uiso   1.00
C619   C     0.40316   0.12127   0.80247   0.00000  Uiso   1.00
C620   C     0.09684   0.21207   0.86419   0.00000  Uiso   1.00
C621   C     0.44997   0.11960   0.80482   0.00000  Uiso   1.00
C622   C     0.05003   0.21374   0.86182   0.00000  Uiso   1.00
C623   C     0.47655   0.16639   0.83303   0.00000  Uiso   1.00
C624   C     0.02345   0.16695   0.83362   0.00000  Uiso   1.00
C625   C     0.45615   0.21271   0.86079   0.00000  Uiso   1.00
C626   C     0.04385   0.12063   0.80586   0.00000  Uiso   1.00
C627   C     0.47094   0.07295   0.77899   0.00000  Uiso   1.00
C628   C     0.02906   0.26040   0.88763   0.00000  Uiso   1.00
C629   C     0.01769   0.07438   0.77886   0.00000  Uiso   1.00
C630   C     0.48231   0.25896   0.88776   0.00000  Uiso   1.00
H631   H     0.39355   0.24742   0.88252   0.00000  Uiso   1.00
H632   H     0.10644   0.08592   0.78413   0.00000  Uiso   1.00
H633   H     0.38149   0.08729   0.77924   0.00000  Uiso   1.00
H634   H     0.11851   0.24604   0.88743   0.00000  Uiso   1.00
H635   H     0.03380   0.03869   0.75912   0.00000  Uiso   1.00
H636   H     0.46619   0.29466   0.90749   0.00000  Uiso   1.00
C637   C     0.24801   0.01065   0.80903   0.00000  Uiso   1.00
C638   C     0.25199   0.32269   0.85764   0.00000  Uiso   1.00
H639   H     0.24427   0.32019   0.76217   0.00000  Uiso   1.00
H640   H     0.25573   0.01315   0.90450   0.00000  Uiso   1.00
N641   N     0.23744   0.15214   0.67951   0.00000  Uiso   1.00
N642   N     0.26255   0.18119   0.98716   0.00000  Uiso   1.00
H643   H     0.21504   0.12586   0.98290   0.00000  Uiso   1.00
H644   H     0.28496   0.20748   0.68376   0.00000  Uiso   1.00
N645   N     0.44572   0.02352   0.75477   0.00000  Uiso   1.00
O646   O     0.41710   0.00603   0.78781   0.00000  Uiso   1.00
O647   O     0.45761   0.32477   0.70588   0.00000  Uiso   1.00
N648   N     0.05427   0.30984   0.91180   0.00000  Uiso   1.00
O649   O     0.08293   0.32726   0.87875   0.00000  Uiso   1.00
O650   O     0.04233   0.00867   0.96058   0.00000  Uiso   1.00
O651   O     0.75325   0.09538   0.87326   0.00000  Uiso   1.00
O652   O     0.74674   0.23796   0.79341   0.00000  Uiso   1.00
O653   O     0.74480   0.08559   0.76945   0.00000  Uiso   1.00
O654   O     0.75520   0.24774   0.89721   0.00000  Uiso   1.00
C655   C     0.74866   0.06660   0.81779   0.00000  Uiso   1.00
C656   C     0.75134   0.26673   0.84887   0.00000  Uiso   1.00
O657   O     0.68935   0.17155   0.88524   0.00000  Uiso   1.00
O658   O     0.81064   0.16179   0.78143   0.00000  Uiso   1.00
O659   O     0.68090   0.16176   0.78143   0.00000  Uiso   1.00
O660   O     0.81910   0.17157   0.88523   0.00000  Uiso   1.00
C661   C     0.66455   0.16647   0.83414   0.00000  Uiso   1.00
C662   C     0.83545   0.16687   0.83253   0.00000  Uiso   1.00
Cu663  Cu    0.75500   0.17246   0.89479   0.00000  Uiso   1.00
Cu664  Cu    0.74499   0.16087   0.77187   0.00000  Uiso   1.00
C665   C     0.90964   0.21232   0.86060   0.00000  Uiso   1.00
C666   C     0.59036   0.12102   0.80605   0.00000  Uiso   1.00
C667   C     0.88353   0.16701   0.83104   0.00000  Uiso   1.00
C668   C     0.61647   0.16632   0.83563   0.00000  Uiso   1.00
C669   C     0.90316   0.12127   0.80247   0.00000  Uiso   1.00
C670   C     0.59684   0.21207   0.86419   0.00000  Uiso   1.00
C671   C     0.94997   0.11960   0.80482   0.00000  Uiso   1.00
C672   C     0.55003   0.21374   0.86182   0.00000  Uiso   1.00
C673   C     0.97655   0.16639   0.83303   0.00000  Uiso   1.00
C674   C     0.52345   0.16695   0.83362   0.00000  Uiso   1.00
C675   C     0.95615   0.21271   0.86079   0.00000  Uiso   1.00
C676   C     0.54385   0.12063   0.80586   0.00000  Uiso   1.00
C677   C     0.97094   0.07295   0.77899   0.00000  Uiso   1.00
C678   C     0.52906   0.26040   0.88763   0.00000  Uiso   1.00
C679   C     0.51769   0.07438   0.77886   0.00000  Uiso   1.00
C680   C     0.98231   0.25896   0.88776   0.00000  Uiso   1.00
H681   H     0.89355   0.24742   0.88252   0.00000  Uiso   1.00
H682   H     0.60644   0.08592   0.78413   0.00000  Uiso   1.00
H683   H     0.88149   0.08729   0.77924   0.00000  Uiso   1.00
H684   H     0.61851   0.24604   0.88743   0.00000  Uiso   1.00
H685   H     0.53380   0.03869   0.75912   0.00000  Uiso   1.00
H686   H     0.96619   0.29466   0.90749   0.00000  Uiso   1.00
C687   C     0.74801   0.01065   0.80903   0.00000  Uiso   1.00
C688   C     0.75199   0.32269   0.85764   0.00000  Uiso   1.00
H689   H     0.74427   0.32019   0.76217   0.00000  Uiso   1.00
H690   H     0.75573   0.01315   0.90450   0.00000  Uiso   1.00
N691   N     0.73744   0.15214   0.67951   0.00000  Uiso   1.00
N692   N     0.76255   0.18119   0.98716   0.00000  Uiso   1.00
H693   H     0.71504   0.12586   0.98290   0.00000  Uiso   1.00
H694   H     0.78496   0.20748   0.68376   0.00000  Uiso   1.00
N695   N     0.94572   0.02352   0.75477   0.00000  Uiso   1.00
O696   O     0.91710   0.00603   0.78781   0.00000  Uiso   1.00
O697   O     0.95761   0.32477   0.70588   0.00000  Uiso   1.00
N698   N     0.55427   0.30984   0.91180   0.00000  Uiso   1.00
O699   O     0.58293   0.32726   0.87875   0.00000  Uiso   1.00
O700   O     0.54233   0.00867   0.96058   0.00000  Uiso   1.00
O701   O     0.25325   0.42871   0.87326   0.00000  Uiso   1.00
O702   O     0.24674   0.57129   0.79341   0.00000  Uiso   1.00
O703   O     0.24480   0.41892   0.76945   0.00000  Uiso   1.00
O704   O     0.25520   0.58108   0.89721   0.00000  Uiso   1.00
C705   C     0.24866   0.39994   0.81779   0.00000  Uiso   1.00
C706   C     0.25134   0.60006   0.84887   0.00000  Uiso   1.00
O707   O     0.18935   0.50488   0.88524   0.00000  Uiso   1.00
O708   O     0.31064   0.49512   0.78143   0.00000  Uiso   1.00
O709   O     0.18090   0.49510   0.78143   0.00000  Uiso   1.00
O710   O     0.31910   0.50490   0.88523   0.00000  Uiso   1.00
C711   C     0.16455   0.49980   0.83414   0.00000  Uiso   1.00
C712   C     0.33545   0.50020   0.83253   0.00000  Uiso   1.00
Cu713  Cu    0.25500   0.50579   0.89479   0.00000  Uiso   1.00
Cu714  Cu    0.24499   0.49421   0.77187   0.00000  Uiso   1.00
C715   C     0.40964   0.54565   0.86060   0.00000  Uiso   1.00
C716   C     0.09036   0.45436   0.80605   0.00000  Uiso   1.00
C717   C     0.38353   0.50035   0.83104   0.00000  Uiso   1.00
C718   C     0.11647   0.49965   0.83563   0.00000  Uiso   1.00
C719   C     0.40316   0.45460   0.80247   0.00000  Uiso   1.00
C720   C     0.09684   0.54540   0.86419   0.00000  Uiso   1.00
C721   C     0.44997   0.45294   0.80482   0.00000  Uiso   1.00
C722   C     0.05003   0.54707   0.86182   0.00000  Uiso   1.00
C723   C     0.47655   0.49973   0.83303   0.00000  Uiso   1.00
C724   C     0.02345   0.50028   0.83362   0.00000  Uiso   1.00
C725   C     0.45615   0.54604   0.86079   0.00000  Uiso   1.00
C726   C     0.04385   0.45397   0.80586   0.00000  Uiso   1.00
C727   C     0.47094   0.40628   0.77899   0.00000  Uiso   1.00
C728   C     0.02906   0.59373   0.88763   0.00000  Uiso   1.00
C729   C     0.01769   0.40772   0.77886   0.00000  Uiso   1.00
C730   C     0.48231   0.59230   0.88776   0.00000  Uiso   1.00
H731   H     0.39355   0.58075   0.88252   0.00000  Uiso   1.00
H732   H     0.10644   0.41925   0.78413   0.00000  Uiso   1.00
H733   H     0.38149   0.42063   0.77924   0.00000  Uiso   1.00
H734   H     0.11851   0.57937   0.88743   0.00000  Uiso   1.00
H735   H     0.03380   0.37203   0.75912   0.00000  Uiso   1.00
H736   H     0.46619   0.62799   0.90749   0.00000  Uiso   1.00
C737   C     0.24801   0.34398   0.80903   0.00000  Uiso   1.00
C738   C     0.25199   0.65602   0.85764   0.00000  Uiso   1.00
H739   H     0.24427   0.65352   0.76217   0.00000  Uiso   1.00
H740   H     0.25573   0.34648   0.90450   0.00000  Uiso   1.00
N741   N     0.23744   0.48547   0.67951   0.00000  Uiso   1.00
N742   N     0.26255   0.51453   0.98716   0.00000  Uiso   1.00
H743   H     0.21504   0.45919   0.98290   0.00000  Uiso   1.00
H744   H     0.28496   0.54081   0.68376   0.00000  Uiso   1.00
N745   N     0.44572   0.35685   0.75477   0.00000  Uiso   1.00
O746   O     0.41710   0.33937   0.78781   0.00000  Uiso   1.00
O747   O     0.45761   0.65811   0.70588   0.00000  Uiso   1.00
N748   N     0.05427   0.64318   0.91180   0.00000  Uiso   1.00
O749   O     0.08293   0.66060   0.87875   0.00000  Uiso   1.00
O750   O     0.04233   0.34201   0.96058   0.00000  Uiso   1.00
O751   O     0.75325   0.42871   0.87326   0.00000  Uiso   1.00
O752   O     0.74674   0.57129   0.79341   0.00000  Uiso   1.00
O753   O     0.74480   0.41892   0.76945   0.00000  Uiso   1.00
O754   O     0.75520   0.58108   0.89721   0.00000  Uiso   1.00
C755   C     0.74866   0.39994   0.81779   0.00000  Uiso   1.00
C756   C     0.75134   0.60006   0.84887   0.00000  Uiso   1.00
O757   O     0.68935   0.50488   0.88524   0.00000  Uiso   1.00
O758   O     0.81064   0.49512   0.78143   0.00000  Uiso   1.00
O759   O     0.68090   0.49510   0.78143   0.00000  Uiso   1.00
O760   O     0.81910   0.50490   0.88523   0.00000  Uiso   1.00
C761   C     0.66455   0.49980   0.83414   0.00000  Uiso   1.00
C762   C     0.83545   0.50020   0.83253   0.00000  Uiso   1.00
Cu763  Cu    0.75500   0.50579   0.89479   0.00000  Uiso   1.00
Cu764  Cu    0.74499   0.49421   0.77187   0.00000  Uiso   1.00
C765   C     0.90964   0.54565   0.86060   0.00000  Uiso   1.00
C766   C     0.59036   0.45436   0.80605   0.00000  Uiso   1.00
C767   C     0.88353   0.50035   0.83104   0.00000  Uiso   1.00
C768   C     0.61647   0.49965   0.83563   0.00000  Uiso   1.00
C769   C     0.90316   0.45460   0.80247   0.00000  Uiso   1.00
C770   C     0.59684   0.54540   0.86419   0.00000  Uiso   1.00
C771   C     0.94997   0.45294   0.80482   0.00000  Uiso   1.00
C772   C     0.55003   0.54707   0.86182   0.00000  Uiso   1.00
C773   C     0.97655   0.49973   0.83303   0.00000  Uiso   1.00
C774   C     0.52345   0.50028   0.83362   0.00000  Uiso   1.00
C775   C     0.95615   0.54604   0.86079   0.00000  Uiso   1.00
C776   C     0.54385   0.45397   0.80586   0.00000  Uiso   1.00
C777   C     0.97094   0.40628   0.77899   0.00000  Uiso   1.00
C778   C     0.52906   0.59373   0.88763   0.00000  Uiso   1.00
C779   C     0.51769   0.40772   0.77886   0.00000  Uiso   1.00
C780   C     0.98231   0.59230   0.88776   0.00000  Uiso   1.00
H781   H     0.89355   0.58075   0.88252   0.00000  Uiso   1.00
H782   H     0.60644   0.41925   0.78413   0.00000  Uiso   1.00
H783   H     0.88149   0.42063   0.77924   0.00000  Uiso   1.00
H784   H     0.61851   0.57937   0.88743   0.00000  Uiso   1.00
H785   H     0.53380   0.37203   0.75912   0.00000  Uiso   1.00
H786   H     0.96619   0.62799   0.90749   0.00000  Uiso   1.00
C787   C     0.74801   0.34398   0.80903   0.00000  Uiso   1.00
C788   C     0.75199   0.65602   0.85764   0.00000  Uiso   1.00
H789   H     0.74427   0.65352   0.76217   0.00000  Uiso   1.00
H790   H     0.75573   0.34648   0.90450   0.00000  Uiso   1.00
N791   N     0.73744   0.48547   0.67951   0.00000  Uiso   1.00
N792   N     0.76255   0.51453   0.98716   0.00000  Uiso   1.00
H793   H     0.71504   0.45919   0.98290   0.00000  Uiso   1.00
H794   H     0.78496   0.54081   0.68376   0.00000  Uiso   1.00
N795   N     0.94572   0.35685   0.75477   0.00000  Uiso   1.00
O796   O     0.91710   0.33937   0.78781   0.00000  Uiso   1.00
O797   O     0.95761   0.65811   0.70588   0.00000  Uiso   1.00
N798   N     0.55427   0.64318   0.91180   0.00000  Uiso   1.00
O799   O     0.58293   0.66060   0.87875   0.00000  Uiso   1.00
O800   O     0.54233   0.34201   0.96058   0.00000  Uiso   1.00
O801   O     0.25325   0.76204   0.87326   0.00000  Uiso   1.00
O802   O     0.24674   0.90462   0.79341   0.00000  Uiso   1.00
O803   O     0.24480   0.75226   0.76945   0.00000  Uiso   1.00
O804   O     0.25520   0.91441   0.89721   0.00000  Uiso   1.00
C805   C     0.24866   0.73327   0.81779   0.00000  Uiso   1.00
C806   C     0.25134   0.93340   0.84887   0.00000  Uiso   1.00
O807   O     0.18935   0.83821   0.88524   0.00000  Uiso   1.00
O808   O     0.31064   0.82845   0.78143   0.00000  Uiso   1.00
O809   O     0.18090   0.82843   0.78143   0.00000  Uiso   1.00
O810   O     0.31910   0.83824   0.88523   0.00000  Uiso   1.00
C811   C     0.16455   0.83313   0.83414   0.00000  Uiso   1.00
C812   C     0.33545   0.83353   0.83253   0.00000  Uiso   1.00
Cu813  Cu    0.25500   0.83913   0.89479   0.00000  Uiso   1.00
Cu814  Cu    0.24499   0.82754   0.77187   0.00000  Uiso   1.00
C815   C     0.40964   0.87898   0.86060   0.00000  Uiso   1.00
C816   C     0.09036   0.78769   0.80605   0.00000  Uiso   1.00
C817   C     0.38353   0.83368   0.83104   0.00000  Uiso   1.00
C818   C     0.11647   0.83299   0.83563   0.00000  Uiso   1.00
C819   C     0.40316   0.78794   0.80247   0.00000  Uiso   1.00
C820   C     0.09684   0.87873   0.86419   0.00000  Uiso   1.00
C821   C     0.44997   0.78627   0.80482   0.00000  Uiso   1.00
C822   C     0.05003   0.88041   0.86182   0.00000  Uiso   1.00
C823   C     0.47655   0.83306   0.83303   0.00000  Uiso   1.00
C824   C     0.02345   0.83362   0.83362   0.00000  Uiso   1.00
C825   C     0.45615   0.87938   0.86079   0.00000  Uiso   1.00
C826   C     0.04385   0.78730   0.80586   0.00000  Uiso   1.00
C827   C     0.47094   0.73962   0.77899   0.00000  Uiso   1.00
C828   C     0.02906   0.92707   0.88763   0.00000  Uiso   1.00
C829   C     0.01769   0.74105   0.77886   0.00000  Uiso   1.00
C830   C     0.48231   0.92563   0.88776   0.00000  Uiso   1.00
H831   H     0.39355   0.91408   0.88252   0.00000  Uiso   1.00
H832   H     0.10644   0.75259   0.78413   0.00000  Uiso   1.00
H833   H     0.38149   0.75396   0.77924   0.00000  Uiso   1.00
H834   H     0.11851   0.91270   0.88743   0.00000  Uiso   1.00
H835   H     0.03380   0.70536   0.75912   0.00000  Uiso   1.00
H836   H     0.46619   0.96132   0.90749   0.00000  Uiso   1.00
C837   C     0.24801   0.67731   0.80903   0.00000  Uiso   1.00
C838   C     0.25199   0.98935   0.85764   0.00000  Uiso   1.00
H839   H     0.24427   0.98685   0.76217   0.00000  Uiso   1.00
H840   H     0.25573   0.67981   0.90450   0.00000  Uiso   1.00
N841   N     0.23744   0.81881   0.67951   0.00000  Uiso   1.00
N842   N     0.26255   0.84786   0.98716   0.00000  Uiso   1.00
H843   H     0.21504   0.79252   0.98290   0.00000  Uiso   1.00
H844   H     0.28496   0.87414   0.68376   0.00000  Uiso   1.00
N845   N     0.44572   0.69019   0.75477   0.00000  Uiso   1.00
O846   O     0.41710   0.67270   0.78781   0.00000  Uiso   1.00
O847   O     0.45761   0.99144   0.70588   0.00000  Uiso   1.00
N848   N     0.05427   0.97651   0.91180   0.00000  Uiso   1.00
O849   O     0.08293   0.99393   0.87875   0.00000  Uiso   1.00
O850   O     0.04233   0.67534   0.96058   0.00000  Uiso   1.00
O851   O     0.75325   0.76204   0.87326   0.00000  Uiso   1.00
O852   O     0.74674   0.90462   0.79341   0.00000  Uiso   1.00
O853   O     0.74480   0.75226   0.76945   0.00000  Uiso   1.00
O854   O     0.75520   0.91441   0.89721   0.00000  Uiso   1.00
C855   C     0.74866   0.73327   0.81779   0.00000  Uiso   1.00
C856   C     0.75134   0.93340   0.84887   0.00000  Uiso   1.00
O857   O     0.68935   0.83821   0.88524   0.00000  Uiso   1.00
O858   O     0.81064   0.82845   0.78143   0.00000  Uiso   1.00
O859   O     0.68090   0.82843   0.78143   0.00000  Uiso   1.00
O860   O     0.81910   0.83824   0.88523   0.00000  Uiso   1.00
C861   C     0.66455   0.83313   0.83414   0.00000  Uiso   1.00
C862   C     0.83545   0.83353   0.83253   0.00000  Uiso   1.00
Cu863  Cu    0.75500   0.83913   0.89479   0.00000  Uiso   1.00
Cu864  Cu    0.74499   0.82754   0.77187   0.00000  Uiso   1.00
C865   C     0.90964   0.87898   0.86060   0.00000  Uiso   1.00
C866   C     0.59036   0.78769   0.80605   0.00000  Uiso   1.00
C867   C     0.88353   0.83368   0.83104   0.00000  Uiso   1.00
C868   C     0.61647   0.83299   0.83563   0.00000  Uiso   1.00
C869   C     0.90316   0.78794   0.80247   0.00000  Uiso   1.00
C870   C     0.59684   0.87873   0.86419   0.00000  Uiso   1.00
C871   C     0.94997   0.78627   0.80482   0.00000  Uiso   1.00
C872   C     0.55003   0.88041   0.86182   0.00000  Uiso   1.00
C873   C     0.97655   0.83306   0.83303   0.00000  Uiso   1.00
C874   C     0.52345   0.83362   0.83362   0.00000  Uiso   1.00
C875   C     0.95615   0.87938   0.86079   0.00000  Uiso   1.00
C876   C     0.54385   0.78730   0.80586   0.00000  Uiso   1.00
C877   C     0.97094   0.73962   0.77899   0.00000  Uiso   1.00
C878   C     0.52906   0.92707   0.88763   0.00000  Uiso   1.00
C879   C     0.51769   0.74105   0.77886   0.00000  Uiso   1.00
C880   C     0.98231   0.92563   0.88776   0.00000  Uiso   1.00
H881   H     0.89355   0.91408   0.88252   0.00000  Uiso   1.00
H882   H     0.60644   0.75259   0.78413   0.00000  Uiso   1.00
H883   H     0.88149   0.75396   0.77924   0.00000  Uiso   1.00
H884   H     0.61851   0.91270   0.88743   0.00000  Uiso   1.00
H885   H     0.53380   0.70536   0.75912   0.00000  Uiso   1.00
H886   H     0.96619   0.96132   0.90749   0.00000  Uiso   1.00
C887   C     0.74801   0.67731   0.80903   0.00000  Uiso   1.00
C888   C     0.75199   0.98935   0.85764   0.00000  Uiso   1.00
H889   H     0.74427   0.98685   0.76217   0.00000  Uiso   1.00
H890   H     0.75573   0.67981   0.90450   0.00000  Uiso   1.00
N891   N     0.73744   0.81881   0.67951   0.00000  Uiso   1.00
N892   N     0.76255   0.84786   0.98716   0.00000  Uiso   1.00
H893   H     0.71504   0.79252   0.98290   0.00000  Uiso   1.00
H894   H     0.78496   0.87414   0.68376   0.00000  Uiso   1.00
N895   N     0.94572   0.69019   0.75477   0.00000  Uiso   1.00
O896   O     0.91710   0.67270   0.78781   0.00000  Uiso   1.00
O897   O     0.95761   0.99144   0.70588   0.00000  Uiso   1.00
N898   N     0.55427   0.97651   0.91180   0.00000  Uiso   1.00
O899   O     0.58293   0.99393   0.87875   0.00000  Uiso   1.00
O900   O     0.54233   0.67534   0.96058   0.00000  Uiso   1.00
loop_
_geom_bond_atom_site_label_1
_geom_bond_atom_site_label_2
_geom_bond_distance
_geom_bond_site_symmetry_2
_ccdc_geom_bond_type
O1     C5      1.293   .     A
O1     Cu13    1.954   .     S
O2     C6      1.293   .     A
O2     Cu14    1.954   .     S
O3     Cu14    1.947   .     S
O3     C5      1.284   .     A
O4     C6      1.284   .     A
O4     Cu13    1.947   .     S
C5     C37     1.424   .     S
C6     C38     1.424   .     S
O7     C11     1.295   .     A
O7     Cu13    1.959   .     S
O8     C12     1.295   .     A
O8     Cu14    1.959   .     S
O9     C11     1.291   .     A
O9     Cu14    1.946   .     S
O10    C12     1.291   .     A
O10    Cu13    1.946   .     S
C11    C18     1.441   .     S
C12    C17     1.441   .     S
Cu13   N42     2.022   .     S
Cu13   Cu14    2.691   .     S
Cu14   N41     2.022   .     S
C15    H31     1.085   .     S
C15    C25     1.391   .     A
C15    C17     1.393   .     A
C16    C18     1.393   .     A
C16    C26     1.391   .     A
C16    H32     1.085   .     S
C17    C19     1.395   .     A
C18    C20     1.395   .     A
C19    C21     1.401   .     A
C19    H33     1.082   .     S
C20    H34     1.082   .     S
C20    C22     1.401   .     A
C21    C27     1.416   .     A
C21    C23     1.421   .     A
C22    C28     1.416   .     A
C22    C24     1.421   .     A
C23    C25     1.412   .     A
C23    C74     1.402   .     S
C24    C26     1.412   .     A
C24    C73     1.402   1_455 S
C25    C30     1.399   .     A
C26    C29     1.399   .     A
C27    N45     1.438   .     S
C27    C79     1.398   .     S
C28    N48     1.438   .     S
C28    C80     1.398   1_455 S
C29    H35     1.084   .     S
C29    C77     1.398   1_455 S
C30    H36     1.084   .     S
C30    C78     1.398   .     S
C37    C238    1.325   1_545 S
C37    H239    1.088   1_545 S
C38    C137    1.325   .     S
C38    H140    1.088   .     S
H39    C137    1.088   .     S
H40    C238    1.088   1_545 S
N41    N642    1.293   1_554 S
N41    H643    1.029   1_554 S
N42    N341    1.293   .     S
N42    H344    1.029   .     S
H43    N341    1.029   .     S
H44    N642    1.029   1_554 S
N45    O46     1.302   .     A
N45    O247    1.302   1_545 S
O47    N145    1.302   .     S
N48    O49     1.302   .     A
N48    O150    1.302   .     S
O50    N248    1.302   1_545 S
O51    C55     1.293   .     A
O51    Cu63    1.954   .     S
O52    C56     1.293   .     A
O52    Cu64    1.954   .     S
O53    Cu64    1.947   .     S
O53    C55     1.284   .     A
O54    C56     1.284   .     A
O54    Cu63    1.947   .     S
C55    C87     1.424   .     S
C56    C88     1.424   .     S
O57    C61     1.295   .     A
O57    Cu63    1.959   .     S
O58    C62     1.295   .     A
O58    Cu64    1.959   .     S
O59    C61     1.291   .     A
O59    Cu64    1.946   .     S
O60    C62     1.291   .     A
O60    Cu63    1.946   .     S
C61    C68     1.441   .     S
C62    C67     1.441   .     S
Cu63   N92     2.022   .     S
Cu63   Cu64    2.691   .     S
Cu64   N91     2.022   .     S
C65    H81     1.085   .     S
C65    C75     1.391   .     A
C65    C67     1.393   .     A
C66    C68     1.393   .     A
C66    C76     1.391   .     A
C66    H82     1.085   .     S
C67    C69     1.395   .     A
C68    C70     1.395   .     A
C69    C71     1.401   .     A
C69    H83     1.082   .     S
C70    H84     1.082   .     S
C70    C72     1.401   .     A
C71    C77     1.416   .     A
C71    C73     1.421   .     A
C72    C78     1.416   .     A
C72    C74     1.421   .     A
C73    C75     1.412   .     A
C73    C24     1.402   1_655 S
C74    C76     1.412   .     A
C75    C80     1.399   .     A
C76    C79     1.399   .     A
C77    N95     1.438   .     S
C77    C29     1.398   1_655 S
C78    N98     1.438   .     S
C79    H85     1.084   .     S
C80    H86     1.084   .     S
C80    C28     1.398   1_655 S
C87    C288    1.325   1_545 S
C87    H289    1.088   1_545 S
C88    C187    1.325   .     S
C88    H190    1.088   .     S
H89    C187    1.088   .     S
H90    C288    1.088   1_545 S
N91    N692    1.293   1_554 S
N91    H693    1.029   1_554 S
N92    N391    1.293   .     S
N92    H394    1.029   .     S
H93    N391    1.029   .     S
H94    N692    1.029   1_554 S
N95    O96     1.302   .     A
N95    O297    1.302   1_545 S
O97    N195    1.302   .     S
N98    O99     1.302   .     A
N98    O200    1.302   .     S
O100   N298    1.302   1_545 S
O101   C105    1.293   .     A
O101   Cu113   1.954   .     S
O102   C106    1.293   .     A
O102   Cu114   1.954   .     S
O103   Cu114   1.947   .     S
O103   C105    1.284   .     A
O104   C106    1.284   .     A
O104   Cu113   1.947   .     S
C105   C137    1.424   .     S
C106   C138    1.424   .     S
O107   C111    1.295   .     A
O107   Cu113   1.959   .     S
O108   C112    1.295   .     A
O108   Cu114   1.959   .     S
O109   C111    1.291   .     A
O109   Cu114   1.946   .     S
O110   C112    1.291   .     A
O110   Cu113   1.946   .     S
C111   C118    1.441   .     S
C112   C117    1.441   .     S
Cu113  N142    2.022   .     S
Cu113  Cu114   2.691   .     S
Cu114  N141    2.022   .     S
C115   H131    1.085   .     S
C115   C125    1.391   .     A
C115   C117    1.393   .     A
C116   C118    1.393   .     A
C116   C126    1.391   .     A
C116   H132    1.085   .     S
C117   C119    1.395   .     A
C118   C120    1.395   .     A
C119   C121    1.401   .     A
C119   H133    1.082   .     S
C120   H134    1.082   .     S
C120   C122    1.401   .     A
C121   C127    1.416   .     A
C121   C123    1.421   .     A
C122   C128    1.416   .     A
C122   C124    1.421   .     A
C123   C125    1.412   .     A
C123   C174    1.402   .     S
C124   C126    1.412   .     A
C124   C173    1.402   1_455 S
C125   C130    1.399   .     A
C126   C129    1.399   .     A
C127   N145    1.438   .     S
C127   C179    1.398   .     S
C128   N148    1.438   .     S
C128   C180    1.398   1_455 S
C129   H135    1.084   .     S
C129   C177    1.398   1_455 S
C130   H136    1.084   .     S
C130   C178    1.398   .     S
C138   C237    1.325   .     S
C138   H240    1.088   .     S
H139   C237    1.088   .     S
N141   N742    1.293   1_554 S
N141   H743    1.029   1_554 S
N142   N441    1.293   .     S
N142   H444    1.029   .     S
H143   N441    1.029   .     S
H144   N742    1.029   1_554 S
N145   O146    1.302   .     A
O147   N245    1.302   .     S
N148   O149    1.302   .     A
N148   O250    1.302   .     S
O151   C155    1.293   .     A
O151   Cu163   1.954   .     S
O152   C156    1.293   .     A
O152   Cu164   1.954   .     S
O153   Cu164   1.947   .     S
O153   C155    1.284   .     A
O154   C156    1.284   .     A
O154   Cu163   1.947   .     S
C155   C187    1.424   .     S
C156   C188    1.424   .     S
O157   C161    1.295   .     A
O157   Cu163   1.959   .     S
O158   C162    1.295   .     A
O158   Cu164   1.959   .     S
O159   C161    1.291   .     A
O159   Cu164   1.946   .     S
O160   C162    1.291   .     A
O160   Cu163   1.946   .     S
C161   C168    1.441   .     S
C162   C167    1.441   .     S
Cu163  N192    2.022   .     S
Cu163  Cu164   2.691   .     S
Cu164  N191    2.022   .     S
C165   H181    1.085   .     S
C165   C175    1.391   .     A
C165   C167    1.393   .     A
C166   C168    1.393   .     A
C166   C176    1.391   .     A
C166   H182    1.085   .     S
C167   C169    1.395   .     A
C168   C170    1.395   .     A
C169   C171    1.401   .     A
C169   H183    1.082   .     S
C170   H184    1.082   .     S
C170   C172    1.401   .     A
C171   C177    1.416   .     A
C171   C173    1.421   .     A
C172   C178    1.416   .     A
C172   C174    1.421   .     A
C173   C175    1.412   .     A
C173   C124    1.402   1_655 S
C174   C176    1.412   .     A
C175   C180    1.399   .     A
C176   C179    1.399   .     A
C177   N195    1.438   .     S
C177   C129    1.398   1_655 S
C178   N198    1.438   .     S
C179   H185    1.084   .     S
C180   H186    1.084   .     S
C180   C128    1.398   1_655 S
C188   C287    1.325   .     S
C188   H290    1.088   .     S
H189   C287    1.088   .     S
N191   N792    1.293   1_554 S
N191   H793    1.029   1_554 S
N192   N491    1.293   .     S
N192   H494    1.029   .     S
H193   N491    1.029   .     S
H194   N792    1.029   1_554 S
N195   O196    1.302   .     A
O197   N295    1.302   .     S
N198   O199    1.302   .     A
N198   O300    1.302   .     S
O201   C205    1.293   .     A
O201   Cu213   1.954   .     S
O202   C206    1.293   .     A
O202   Cu214   1.954   .     S
O203   Cu214   1.947   .     S
O203   C205    1.284   .     A
O204   C206    1.284   .     A
O204   Cu213   1.947   .     S
C205   C237    1.424   .     S
C206   C238    1.424   .     S
O207   C211    1.295   .     A
O207   Cu213   1.959   .     S
O208   C212    1.295   .     A
O208   Cu214   1.959   .     S
O209   C211    1.291   .     A
O209   Cu214   1.946   .     S
O210   C212    1.291   .     A
O210   Cu213   1.946   .     S
C211   C218    1.441   .     S
C212   C217    1.441   .     S
Cu213  N242    2.022   .     S
Cu213  Cu214   2.691   .     S
Cu214  N241    2.022   .     S
C215   H231    1.085   .     S
C215   C225    1.391   .     A
C215   C217    1.393   .     A
C216   C218    1.393   .     A
C216   C226    1.391   .     A
C216   H232    1.085   .     S
C217   C219    1.395   .     A
C218   C220    1.395   .     A
C219   C221    1.401   .     A
C219   H233    1.082   .     S
C220   H234    1.082   .     S
C220   C222    1.401   .     A
C221   C227    1.416   .     A
C221   C223    1.421   .     A
C222   C228    1.416   .     A
C222   C224    1.421   .     A
C223   C225    1.412   .     A
C223   C274    1.402   .     S
C224   C226    1.412   .     A
C224   C273    1.402   1_455 S
C225   C230    1.399   .     A
C226   C229    1.399   .     A
C227   N245    1.438   .     S
C227   C279    1.398   .     S
C228   N248    1.438   .     S
C228   C280    1.398   1_455 S
C229   H235    1.084   .     S
C229   C277    1.398   1_455 S
C230   H236    1.084   .     S
C230   C278    1.398   .     S
C238   C37     1.325   1_565 S
C238   H40     1.088   1_565 S
H239   C37     1.088   1_565 S
N241   N842    1.293   1_554 S
N241   H843    1.029   1_554 S
N242   N541    1.293   .     S
N242   H544    1.029   .     S
H243   N541    1.029   .     S
H244   N842    1.029   1_554 S
N245   O246    1.302   .     A
O247   N45     1.302   1_565 S
N248   O249    1.302   .     A
N248   O50     1.302   1_565 S
O251   C255    1.293   .     A
O251   Cu263   1.954   .     S
O252   C256    1.293   .     A
O252   Cu264   1.954   .     S
O253   Cu264   1.947   .     S
O253   C255    1.284   .     A
O254   C256    1.284   .     A
O254   Cu263   1.947   .     S
C255   C287    1.424   .     S
C256   C288    1.424   .     S
O257   C261    1.295   .     A
O257   Cu263   1.959   .     S
O258   C262    1.295   .     A
O258   Cu264   1.959   .     S
O259   C261    1.291   .     A
O259   Cu264   1.946   .     S
O260   C262    1.291   .     A
O260   Cu263   1.946   .     S
C261   C268    1.441   .     S
C262   C267    1.441   .     S
Cu263  N292    2.022   .     S
Cu263  Cu264   2.691   .     S
Cu264  N291    2.022   .     S
C265   H281    1.085   .     S
C265   C275    1.391   .     A
C265   C267    1.393   .     A
C266   C268    1.393   .     A
C266   C276    1.391   .     A
C266   H282    1.085   .     S
C267   C269    1.395   .     A
C268   C270    1.395   .     A
C269   C271    1.401   .     A
C269   H283    1.082   .     S
C270   H284    1.082   .     S
C270   C272    1.401   .     A
C271   C277    1.416   .     A
C271   C273    1.421   .     A
C272   C278    1.416   .     A
C272   C274    1.421   .     A
C273   C275    1.412   .     A
C273   C224    1.402   1_655 S
C274   C276    1.412   .     A
C275   C280    1.399   .     A
C276   C279    1.399   .     A
C277   N295    1.438   .     S
C277   C229    1.398   1_655 S
C278   N298    1.438   .     S
C279   H285    1.084   .     S
C280   H286    1.084   .     S
C280   C228    1.398   1_655 S
C288   C87     1.325   1_565 S
C288   H90     1.088   1_565 S
H289   C87     1.088   1_565 S
N291   N892    1.293   1_554 S
N291   H893    1.029   1_554 S
N292   N591    1.293   .     S
N292   H594    1.029   .     S
H293   N591    1.029   .     S
H294   N892    1.029   1_554 S
N295   O296    1.302   .     A
O297   N95     1.302   1_565 S
N298   O299    1.302   .     A
N298   O100    1.302   1_565 S
O301   C305    1.293   .     A
O301   Cu313   1.954   .     S
O302   C306    1.293   .     A
O302   Cu314   1.954   .     S
O303   Cu314   1.947   .     S
O303   C305    1.284   .     A
O304   C306    1.284   .     A
O304   Cu313   1.947   .     S
C305   C337    1.424   .     S
C306   C338    1.424   .     S
O307   C311    1.295   .     A
O307   Cu313   1.959   .     S
O308   C312    1.295   .     A
O308   Cu314   1.959   .     S
O309   C311    1.291   .     A
O309   Cu314   1.946   .     S
O310   C312    1.291   .     A
O310   Cu313   1.946   .     S
C311   C318    1.441   .     S
C312   C317    1.441   .     S
Cu313  N342    2.022   .     S
Cu313  Cu314   2.691   .     S
Cu314  N341    2.022   .     S
C315   H331    1.085   .     S
C315   C325    1.391   .     A
C315   C317    1.393   .     A
C316   C318    1.393   .     A
C316   C326    1.391   .     A
C316   H332    1.085   .     S
C317   C319    1.395   .     A
C318   C320    1.395   .     A
C319   C321    1.401   .     A
C319   H333    1.082   .     S
C320   H334    1.082   .     S
C320   C322    1.401   .     A
C321   C327    1.416   .     A
C321   C323    1.421   .     A
C322   C328    1.416   .     A
C322   C324    1.421   .     A
C323   C325    1.412   .     A
C323   C374    1.402   .     S
C324   C326    1.412   .     A
C324   C373    1.402   1_455 S
C325   C330    1.399   .     A
C326   C329    1.399   .     A
C327   N345    1.438   .     S
C327   C379    1.398   .     S
C328   N348    1.438   .     S
C328   C380    1.398   1_455 S
C329   H335    1.084   .     S
C329   C377    1.398   1_455 S
C330   H336    1.084   .     S
C330   C378    1.398   .     S
C337   C538    1.325   1_545 S
C337   H539    1.088   1_545 S
C338   C437    1.325   .     S
C338   H440    1.088   .     S
H339   C437    1.088   .     S
H340   C538    1.088   1_545 S
N342   N641    1.293   .     S
N342   H644    1.029   .     S
H343   N641    1.029   .     S
N345   O346    1.302   .     A
N345   O547    1.302   1_545 S
O347   N445    1.302   .     S
N348   O349    1.302   .     A
N348   O450    1.302   .     S
O350   N548    1.302   1_545 S
O351   C355    1.293   .     A
O351   Cu363   1.954   .     S
O352   C356    1.293   .     A
O352   Cu364   1.954   .     S
O353   Cu364   1.947   .     S
O353   C355    1.284   .     A
O354   C356    1.284   .     A
O354   Cu363   1.947   .     S
C355   C387    1.424   .     S
C356   C388    1.424   .     S
O357   C361    1.295   .     A
O357   Cu363   1.959   .     S
O358   C362    1.295   .     A
O358   Cu364   1.959   .     S
O359   C361    1.291   .     A
O359   Cu364   1.946   .     S
O360   C362    1.291   .     A
O360   Cu363   1.946   .     S
C361   C368    1.441   .     S
C362   C367    1.441   .     S
Cu363  N392    2.022   .     S
Cu363  Cu364   2.691   .     S
Cu364  N391    2.022   .     S
C365   H381    1.085   .     S
C365   C375    1.391   .     A
C365   C367    1.393   .     A
C366   C368    1.393   .     A
C366   C376    1.391   .     A
C366   H382    1.085   .     S
C367   C369    1.395   .     A
C368   C370    1.395   .     A
C369   C371    1.401   .     A
C369   H383    1.082   .     S
C370   H384    1.082   .     S
C370   C372    1.401   .     A
C371   C377    1.416   .     A
C371   C373    1.421   .     A
C372   C378    1.416   .     A
C372   C374    1.421   .     A
C373   C375    1.412   .     A
C373   C324    1.402   1_655 S
C374   C376    1.412   .     A
C375   C380    1.399   .     A
C376   C379    1.399   .     A
C377   N395    1.438   .     S
C377   C329    1.398   1_655 S
C378   N398    1.438   .     S
C379   H385    1.084   .     S
C380   H386    1.084   .     S
C380   C328    1.398   1_655 S
C387   C588    1.325   1_545 S
C387   H589    1.088   1_545 S
C388   C487    1.325   .     S
C388   H490    1.088   .     S
H389   C487    1.088   .     S
H390   C588    1.088   1_545 S
N392   N691    1.293   .     S
N392   H694    1.029   .     S
H393   N691    1.029   .     S
N395   O396    1.302   .     A
N395   O597    1.302   1_545 S
O397   N495    1.302   .     S
N398   O399    1.302   .     A
N398   O500    1.302   .     S
O400   N598    1.302   1_545 S
O401   C405    1.293   .     A
O401   Cu413   1.954   .     S
O402   C406    1.293   .     A
O402   Cu414   1.954   .     S
O403   Cu414   1.947   .     S
O403   C405    1.284   .     A
O404   C406    1.284   .     A
O404   Cu413   1.947   .     S
C405   C437    1.424   .     S
C406   C438    1.424   .     S
O407   C411    1.295   .     A
O407   Cu413   1.959   .     S
O408   C412    1.295   .     A
O408   Cu414   1.959   .     S
O409   C411    1.291   .     A
O409   Cu414   1.946   .     S
O410   C412    1.291   .     A
O410   Cu413   1.946   .     S
C411   C418    1.441   .     S
C412   C417    1.441   .     S
Cu413  N442    2.022   .     S
Cu413  Cu414   2.691   .     S
Cu414  N441    2.022   .     S
C415   H431    1.085   .     S
C415   C425    1.391   .     A
C415   C417    1.393   .     A
C416   C418    1.393   .     A
C416   C426    1.391   .     A
C416   H432    1.085   .     S
C417   C419    1.395   .     A
C418   C420    1.395   .     A
C419   C421    1.401   .     A
C419   H433    1.082   .     S
C420   H434    1.082   .     S
C420   C422    1.401   .     A
C421   C427    1.416   .     A
C421   C423    1.421   .     A
C422   C428    1.416   .     A
C422   C424    1.421   .     A
C423   C425    1.412   .     A
C423   C474    1.402   .     S
C424   C426    1.412   .     A
C424   C473    1.402   1_455 S
C425   C430    1.399   .     A
C426   C429    1.399   .     A
C427   N445    1.438   .     S
C427   C479    1.398   .     S
C428   N448    1.438   .     S
C428   C480    1.398   1_455 S
C429   H435    1.084   .     S
C429   C477    1.398   1_455 S
C430   H436    1.084   .     S
C430   C478    1.398   .     S
C438   C537    1.325   .     S
C438   H540    1.088   .     S
H439   C537    1.088   .     S
N442   N741    1.293   .     S
N442   H744    1.029   .     S
H443   N741    1.029   .     S
N445   O446    1.302   .     A
O447   N545    1.302   .     S
N448   O449    1.302   .     A
N448   O550    1.302   .     S
O451   C455    1.293   .     A
O451   Cu463   1.954   .     S
O452   C456    1.293   .     A
O452   Cu464   1.954   .     S
O453   Cu464   1.947   .     S
O453   C455    1.284   .     A
O454   C456    1.284   .     A
O454   Cu463   1.947   .     S
C455   C487    1.424   .     S
C456   C488    1.424   .     S
O457   C461    1.295   .     A
O457   Cu463   1.959   .     S
O458   C462    1.295   .     A
O458   Cu464   1.959   .     S
O459   C461    1.291   .     A
O459   Cu464   1.946   .     S
O460   C462    1.291   .     A
O460   Cu463   1.946   .     S
C461   C468    1.441   .     S
C462   C467    1.441   .     S
Cu463  N492    2.022   .     S
Cu463  Cu464   2.691   .     S
Cu464  N491    2.022   .     S
C465   H481    1.085   .     S
C465   C475    1.391   .     A
C465   C467    1.393   .     A
C466   C468    1.393   .     A
C466   C476    1.391   .     A
C466   H482    1.085   .     S
C467   C469    1.395   .     A
C468   C470    1.395   .     A
C469   C471    1.401   .     A
C469   H483    1.082   .     S
C470   H484    1.082   .     S
C470   C472    1.401   .     A
C471   C477    1.416   .     A
C471   C473    1.421   .     A
C472   C478    1.416   .     A
C472   C474    1.421   .     A
C473   C475    1.412   .     A
C473   C424    1.402   1_655 S
C474   C476    1.412   .     A
C475   C480    1.399   .     A
C476   C479    1.399   .     A
C477   N495    1.438   .     S
C477   C429    1.398   1_655 S
C478   N498    1.438   .     S
C479   H485    1.084   .     S
C480   H486    1.084   .     S
C480   C428    1.398   1_655 S
C488   C587    1.325   .     S
C488   H590    1.088   .     S
H489   C587    1.088   .     S
N492   N791    1.293   .     S
N492   H794    1.029   .     S
H493   N791    1.029   .     S
N495   O496    1.302   .     A
O497   N595    1.302   .     S
N498   O499    1.302   .     A
N498   O600    1.302   .     S
O501   C505    1.293   .     A
O501   Cu513   1.954   .     S
O502   C506    1.293   .     A
O502   Cu514   1.954   .     S
O503   Cu514   1.947   .     S
O503   C505    1.284   .     A
O504   C506    1.284   .     A
O504   Cu513   1.947   .     S
C505   C537    1.424   .     S
C506   C538    1.424   .     S
O507   C511    1.295   .     A
O507   Cu513   1.959   .     S
O508   C512    1.295   .     A
O508   Cu514   1.959   .     S
O509   C511    1.291   .     A
O509   Cu514   1.946   .     S
O510   C512    1.291   .     A
O510   Cu513   1.946   .     S
C511   C518    1.441   .     S
C512   C517    1.441   .     S
Cu513  N542    2.022   .     S
Cu513  Cu514   2.691   .     S
Cu514  N541    2.022   .     S
C515   H531    1.085   .     S
C515   C525    1.391   .     A
C515   C517    1.393   .     A
C516   C518    1.393   .     A
C516   C526    1.391   .     A
C516   H532    1.085   .     S
C517   C519    1.395   .     A
C518   C520    1.395   .     A
C519   C521    1.401   .     A
C519   H533    1.082   .     S
C520   H534    1.082   .     S
C520   C522    1.401   .     A
C521   C527    1.416   .     A
C521   C523    1.421   .     A
C522   C528    1.416   .     A
C522   C524    1.421   .     A
C523   C525    1.412   .     A
C523   C574    1.402   .     S
C524   C526    1.412   .     A
C524   C573    1.402   1_455 S
C525   C530    1.399   .     A
C526   C529    1.399   .     A
C527   N545    1.438   .     S
C527   C579    1.398   .     S
C528   N548    1.438   .     S
C528   C580    1.398   1_455 S
C529   H535    1.084   .     S
C529   C577    1.398   1_455 S
C530   H536    1.084   .     S
C530   C578    1.398   .     S
C538   C337    1.325   1_565 S
C538   H340    1.088   1_565 S
H539   C337    1.088   1_565 S
N542   N841    1.293   .     S
N542   H844    1.029   .     S
H543   N841    1.029   .     S
N545   O546    1.302   .     A
O547   N345    1.302   1_565 S
N548   O549    1.302   .     A
N548   O350    1.302   1_565 S
O551   C555    1.293   .     A
O551   Cu563   1.954   .     S
O552   C556    1.293   .     A
O552   Cu564   1.954   .     S
O553   Cu564   1.947   .     S
O553   C555    1.284   .     A
O554   C556    1.284   .     A
O554   Cu563   1.947   .     S
C555   C587    1.424   .     S
C556   C588    1.424   .     S
O557   C561    1.295   .     A
O557   Cu563   1.959   .     S
O558   C562    1.295   .     A
O558   Cu564   1.959   .     S
O559   C561    1.291   .     A
O559   Cu564   1.946   .     S
O560   C562    1.291   .     A
O560   Cu563   1.946   .     S
C561   C568    1.441   .     S
C562   C567    1.441   .     S
Cu563  N592    2.022   .     S
Cu563  Cu564   2.691   .     S
Cu564  N591    2.022   .     S
C565   H581    1.085   .     S
C565   C575    1.391   .     A
C565   C567    1.393   .     A
C566   C568    1.393   .     A
C566   C576    1.391   .     A
C566   H582    1.085   .     S
C567   C569    1.395   .     A
C568   C570    1.395   .     A
C569   C571    1.401   .     A
C569   H583    1.082   .     S
C570   H584    1.082   .     S
C570   C572    1.401   .     A
C571   C577    1.416   .     A
C571   C573    1.421   .     A
C572   C578    1.416   .     A
C572   C574    1.421   .     A
C573   C575    1.412   .     A
C573   C524    1.402   1_655 S
C574   C576    1.412   .     A
C575   C580    1.399   .     A
C576   C579    1.399   .     A
C577   N595    1.438   .     S
C577   C529    1.398   1_655 S
C578   N598    1.438   .     S
C579   H585    1.084   .     S
C580   H586    1.084   .     S
C580   C528    1.398   1_655 S
C588   C387    1.325   1_565 S
C588   H390    1.088   1_565 S
H589   C387    1.088   1_565 S
N592   N891    1.293   .     S
N592   H894    1.029   .     S
H593   N891    1.029   .     S
N595   O596    1.302   .     A
O597   N395    1.302   1_565 S
N598   O599    1.302   .     A
N598   O400    1.302   1_565 S
O601   C605    1.293   .     A
O601   Cu613   1.954   .     S
O602   C606    1.293   .     A
O602   Cu614   1.954   .     S
O603   Cu614   1.947   .     S
O603   C605    1.284   .     A
O604   C606    1.284   .     A
O604   Cu613   1.947   .     S
C605   C637    1.424   .     S
C606   C638    1.424   .     S
O607   C611    1.295   .     A
O607   Cu613   1.959   .     S
O608   C612    1.295   .     A
O608   Cu614   1.959   .     S
O609   C611    1.291   .     A
O609   Cu614   1.946   .     S
O610   C612    1.291   .     A
O610   Cu613   1.946   .     S
C611   C618    1.441   .     S
C612   C617    1.441   .     S
Cu613  N642    2.022   .     S
Cu613  Cu614   2.691   .     S
Cu614  N641    2.022   .     S
C615   H631    1.085   .     S
C615   C625    1.391   .     A
C615   C617    1.393   .     A
C616   C618    1.393   .     A
C616   C626    1.391   .     A
C616   H632    1.085   .     S
C617   C619    1.395   .     A
C618   C620    1.395   .     A
C619   C621    1.401   .     A
C619   H633    1.082   .     S
C620   H634    1.082   .     S
C620   C622    1.401   .     A
C621   C627    1.416   .     A
C621   C623    1.421   .     A
C622   C628    1.416   .     A
C622   C624    1.421   .     A
C623   C625    1.412   .     A
C623   C674    1.402   .     S
C624   C626    1.412   .     A
C624   C673    1.402   1_455 S
C625   C630    1.399   .     A
C626   C629    1.399   .     A
C627   N645    1.438   .     S
C627   C679    1.398   .     S
C628   N648    1.438   .     S
C628   C680    1.398   1_455 S
C629   H635    1.084   .     S
C629   C677    1.398   1_455 S
C630   H636    1.084   .     S
C630   C678    1.398   .     S
C637   C838    1.325   1_545 S
C637   H839    1.088   1_545 S
C638   C737    1.325   .     S
C638   H740    1.088   .     S
H639   C737    1.088   .     S
H640   C838    1.088   1_545 S
N642   N41     1.293   1_556 S
N642   H44     1.029   1_556 S
H643   N41     1.029   1_556 S
N645   O646    1.302   .     A
N645   O847    1.302   1_545 S
O647   N745    1.302   .     S
N648   O649    1.302   .     A
N648   O750    1.302   .     S
O650   N848    1.302   1_545 S
O651   C655    1.293   .     A
O651   Cu663   1.954   .     S
O652   C656    1.293   .     A
O652   Cu664   1.954   .     S
O653   Cu664   1.947   .     S
O653   C655    1.284   .     A
O654   C656    1.284   .     A
O654   Cu663   1.947   .     S
C655   C687    1.424   .     S
C656   C688    1.424   .     S
O657   C661    1.295   .     A
O657   Cu663   1.959   .     S
O658   C662    1.295   .     A
O658   Cu664   1.959   .     S
O659   C661    1.291   .     A
O659   Cu664   1.946   .     S
O660   C662    1.291   .     A
O660   Cu663   1.946   .     S
C661   C668    1.441   .     S
C662   C667    1.441   .     S
Cu663  N692    2.022   .     S
Cu663  Cu664   2.691   .     S
Cu664  N691    2.022   .     S
C665   H681    1.085   .     S
C665   C675    1.391   .     A
C665   C667    1.393   .     A
C666   C668    1.393   .     A
C666   C676    1.391   .     A
C666   H682    1.085   .     S
C667   C669    1.395   .     A
C668   C670    1.395   .     A
C669   C671    1.401   .     A
C669   H683    1.082   .     S
C670   H684    1.082   .     S
C670   C672    1.401   .     A
C671   C677    1.416   .     A
C671   C673    1.421   .     A
C672   C678    1.416   .     A
C672   C674    1.421   .     A
C673   C675    1.412   .     A
C673   C624    1.402   1_655 S
C674   C676    1.412   .     A
C675   C680    1.399   .     A
C676   C679    1.399   .     A
C677   N695    1.438   .     S
C677   C629    1.398   1_655 S
C678   N698    1.438   .     S
C679   H685    1.084   .     S
C680   H686    1.084   .     S
C680   C628    1.398   1_655 S
C687   C888    1.325   1_545 S
C687   H889    1.088   1_545 S
C688   C787    1.325   .     S
C688   H790    1.088   .     S
H689   C787    1.088   .     S
H690   C888    1.088   1_545 S
N692   N91     1.293   1_556 S
N692   H94     1.029   1_556 S
H693   N91     1.029   1_556 S
N695   O696    1.302   .     A
N695   O897    1.302   1_545 S
O697   N795    1.302   .     S
N698   O699    1.302   .     A
N698   O800    1.302   .     S
O700   N898    1.302   1_545 S
O701   C705    1.293   .     A
O701   Cu713   1.954   .     S
O702   C706    1.293   .     A
O702   Cu714   1.954   .     S
O703   Cu714   1.947   .     S
O703   C705    1.284   .     A
O704   C706    1.284   .     A
O704   Cu713   1.947   .     S
C705   C737    1.424   .     S
C706   C738    1.424   .     S
O707   C711    1.295   .     A
O707   Cu713   1.959   .     S
O708   C712    1.295   .     A
O708   Cu714   1.959   .     S
O709   C711    1.291   .     A
O709   Cu714   1.946   .     S
O710   C712    1.291   .     A
O710   Cu713   1.946   .     S
C711   C718    1.441   .     S
C712   C717    1.441   .     S
Cu713  N742    2.022   .     S
Cu713  Cu714   2.691   .     S
Cu714  N741    2.022   .     S
C715   H731    1.085   .     S
C715   C725    1.391   .     A
C715   C717    1.393   .     A
C716   C718    1.393   .     A
C716   C726    1.391   .     A
C716   H732    1.085   .     S
C717   C719    1.395   .     A
C718   C720    1.395   .     A
C719   C721    1.401   .     A
C719   H733    1.082   .     S
C720   H734    1.082   .     S
C720   C722    1.401   .     A
C721   C727    1.416   .     A
C721   C723    1.421   .     A
C722   C728    1.416   .     A
C722   C724    1.421   .     A
C723   C725    1.412   .     A
C723   C774    1.402   .     S
C724   C726    1.412   .     A
C724   C773    1.402   1_455 S
C725   C730    1.399   .     A
C726   C729    1.399   .     A
C727   N745    1.438   .     S
C727   C779    1.398   .     S
C728   N748    1.438   .     S
C728   C780    1.398   1_455 S
C729   H735    1.084   .     S
C729   C777    1.398   1_455 S
C730   H736    1.084   .     S
C730   C778    1.398   .     S
C738   C837    1.325   .     S
C738   H840    1.088   .     S
H739   C837    1.088   .     S
N742   N141    1.293   1_556 S
N742   H144    1.029   1_556 S
H743   N141    1.029   1_556 S
N745   O746    1.302   .     A
O747   N845    1.302   .     S
N748   O749    1.302   .     A
N748   O850    1.302   .     S
O751   C755    1.293   .     A
O751   Cu763   1.954   .     S
O752   C756    1.293   .     A
O752   Cu764   1.954   .     S
O753   Cu764   1.947   .     S
O753   C755    1.284   .     A
O754   C756    1.284   .     A
O754   Cu763   1.947   .     S
C755   C787    1.424   .     S
C756   C788    1.424   .     S
O757   C761    1.295   .     A
O757   Cu763   1.959   .     S
O758   C762    1.295   .     A
O758   Cu764   1.959   .     S
O759   C761    1.291   .     A
O759   Cu764   1.946   .     S
O760   C762    1.291   .     A
O760   Cu763   1.946   .     S
C761   C768    1.441   .     S
C762   C767    1.441   .     S
Cu763  N792    2.022   .     S
Cu763  Cu764   2.691   .     S
Cu764  N791    2.022   .     S
C765   H781    1.085   .     S
C765   C775    1.391   .     A
C765   C767    1.393   .     A
C766   C768    1.393   .     A
C766   C776    1.391   .     A
C766   H782    1.085   .     S
C767   C769    1.395   .     A
C768   C770    1.395   .     A
C769   C771    1.401   .     A
C769   H783    1.082   .     S
C770   H784    1.082   .     S
C770   C772    1.401   .     A
C771   C777    1.416   .     A
C771   C773    1.421   .     A
C772   C778    1.416   .     A
C772   C774    1.421   .     A
C773   C775    1.412   .     A
C773   C724    1.402   1_655 S
C774   C776    1.412   .     A
C775   C780    1.399   .     A
C776   C779    1.399   .     A
C777   N795    1.438   .     S
C777   C729    1.398   1_655 S
C778   N798    1.438   .     S
C779   H785    1.084   .     S
C780   H786    1.084   .     S
C780   C728    1.398   1_655 S
C788   C887    1.325   .     S
C788   H890    1.088   .     S
H789   C887    1.088   .     S
N792   N191    1.293   1_556 S
N792   H194    1.029   1_556 S
H793   N191    1.029   1_556 S
N795   O796    1.302   .     A
O797   N895    1.302   .     S
N798   O799    1.302   .     A
N798   O900    1.302   .     S
O801   C805    1.293   .     A
O801   Cu813   1.954   .     S
O802   C806    1.293   .     A
O802   Cu814   1.954   .     S
O803   Cu814   1.947   .     S
O803   C805    1.284   .     A
O804   C806    1.284   .     A
O804   Cu813   1.947   .     S
C805   C837    1.424   .     S
C806   C838    1.424   .     S
O807   C811    1.295   .     A
O807   Cu813   1.959   .     S
O808   C812    1.295   .     A
O808   Cu814   1.959   .     S
O809   C811    1.291   .     A
O809   Cu814   1.946   .     S
O810   C812    1.291   .     A
O810   Cu813   1.946   .     S
C811   C818    1.441   .     S
C812   C817    1.441   .     S
Cu813  N842    2.022   .     S
Cu813  Cu814   2.691   .     S
Cu814  N841    2.022   .     S
C815   H831    1.085   .     S
C815   C825    1.391   .     A
C815   C817    1.393   .     A
C816   C818    1.393   .     A
C816   C826    1.391   .     A
C816   H832    1.085   .     S
C817   C819    1.395   .     A
C818   C820    1.395   .     A
C819   C821    1.401   .     A
C819   H833    1.082   .     S
C820   H834    1.082   .     S
C820   C822    1.401   .     A
C821   C827    1.416   .     A
C821   C823    1.421   .     A
C822   C828    1.416   .     A
C822   C824    1.421   .     A
C823   C825    1.412   .     A
C823   C874    1.402   .     S
C824   C826    1.412   .     A
C824   C873    1.402   1_455 S
C825   C830    1.399   .     A
C826   C829    1.399   .     A
C827   N845    1.438   .     S
C827   C879    1.398   .     S
C828   N848    1.438   .     S
C828   C880    1.398   1_455 S
C829   H835    1.084   .     S
C829   C877    1.398   1_455 S
C830   H836    1.084   .     S
C830   C878    1.398   .     S
C838   C637    1.325   1_565 S
C838   H640    1.088   1_565 S
H839   C637    1.088   1_565 S
N842   N241    1.293   1_556 S
N842   H244    1.029   1_556 S
H843   N241    1.029   1_556 S
N845   O846    1.302   .     A
O847   N645    1.302   1_565 S
N848   O849    1.302   .     A
N848   O650    1.302   1_565 S
O851   C855    1.293   .     A
O851   Cu863   1.954   .     S
O852   C856    1.293   .     A
O852   Cu864   1.954   .     S
O853   Cu864   1.947   .     S
O853   C855    1.284   .     A
O854   C856    1.284   .     A
O854   Cu863   1.947   .     S
C855   C887    1.424   .     S
C856   C888    1.424   .     S
O857   C861    1.295   .     A
O857   Cu863   1.959   .     S
O858   C862    1.295   .     A
O858   Cu864   1.959   .     S
O859   C861    1.291   .     A
O859   Cu864   1.946   .     S
O860   C862    1.291   .     A
O860   Cu863   1.946   .     S
C861   C868    1.441   .     S
C862   C867    1.441   .     S
Cu863  N892    2.022   .     S
Cu863  Cu864   2.691   .     S
Cu864  N891    2.022   .     S
C865   H881    1.085   .     S
C865   C875    1.391   .     A
C865   C867    1.393   .     A
C866   C868    1.393   .     A
C866   C876    1.391   .     A
C866   H882    1.085   .     S
C867   C869    1.395   .     A
C868   C870    1.395   .     A
C869   C871    1.401   .     A
C869   H883    1.082   .     S
C870   H884    1.082   .     S
C870   C872    1.401   .     A
C871   C877    1.416   .     A
C871   C873    1.421   .     A
C872   C878    1.416   .     A
C872   C874    1.421   .     A
C873   C875    1.412   .     A
C873   C824    1.402   1_655 S
C874   C876    1.412   .     A
C875   C880    1.399   .     A
C876   C879    1.399   .     A
C877   N895    1.438   .     S
C877   C829    1.398   1_655 S
C878   N898    1.438   .     S
C879   H885    1.084   .     S
C880   H886    1.084   .     S
C880   C828    1.398   1_655 S
C888   C687    1.325   1_565 S
C888   H690    1.088   1_565 S
H889   C687    1.088   1_565 S
N892   N291    1.293   1_556 S
N892   H294    1.029   1_556 S
H893   N291    1.029   1_556 S
N895   O896    1.302   .     A
O897   N695    1.302   1_565 S
N898   O899    1.302   .     A
N898   O700    1.302   1_565 S
