data_str_m3_o10_o16_pcu_sym.62
_audit_creation_date              2020-01-03
_audit_creation_method            'Materials Studio'
_symmetry_space_group_name_H-M    'P1'
_symmetry_Int_Tables_number       1
_symmetry_cell_setting            triclinic
loop_
_symmetry_equiv_pos_as_xyz
  x,y,z
_cell_length_a                    23.4946
_cell_length_b                    25.7066
_cell_length_c                    24.1306
_cell_angle_alpha                 92.2918
_cell_angle_beta                  101.1488
_cell_angle_gamma                 94.2165
loop_
_atom_site_label
_atom_site_type_symbol
_atom_site_fract_x
_atom_site_fract_y
_atom_site_fract_z
_atom_site_U_iso_or_equiv
_atom_site_adp_type
_atom_site_occupancy
C1     C     0.01487   0.26491   0.24860   0.00000  Uiso   1.00
C2     C     0.05283   0.16780   0.41640   0.00000  Uiso   1.00
C3     C     0.02261   0.31950   0.24783   0.00000  Uiso   1.00
C4     C     0.03531   0.16801   0.35527   0.00000  Uiso   1.00
C5     C     0.31073   0.01384   0.25215   0.00000  Uiso   1.00
C6     C     0.31846   0.06842   0.25139   0.00000  Uiso   1.00
C7     C     0.29760   0.16298   0.14481   0.00000  Uiso   1.00
C8     C     0.26647   0.09087   0.00468   0.00000  Uiso   1.00
C9     C     0.27732   0.15268   0.08466   0.00000  Uiso   1.00
C10    C     0.02383   0.19713   0.45090   0.00000  Uiso   1.00
C11    C     0.04700   0.20557   0.00830   0.00000  Uiso   1.00
C12    C     0.13213   0.16129   0.49515   0.00000  Uiso   1.00
C13    C     0.10114   0.18837   0.03040   0.00000  Uiso   1.00
C14    C     0.22046   0.22893   0.07765   0.00000  Uiso   1.00
C15    C     0.10323   0.14421   0.44028   0.00000  Uiso   1.00
C16    C     0.19012   0.14886   0.01317   0.00000  Uiso   1.00
C17    C     0.21190   0.10842   0.48327   0.00000  Uiso   1.00
C18    C     0.17864   0.08579   0.43281   0.00000  Uiso   1.00
C19    C     0.12547   0.10438   0.41071   0.00000  Uiso   1.00
C20    C     0.22782   0.17572   0.05924   0.00000  Uiso   1.00
C21    C     0.29784   0.11128   0.05679   0.00000  Uiso   1.00
H22    H     0.00338   0.09358   0.07624   0.00000  Uiso   1.00
H23    H     0.10108   0.08617   0.37117   0.00000  Uiso   1.00
H24    H     0.06519   0.00338   0.24376   0.00000  Uiso   1.00
H25    H     0.26814   0.32995   0.25623   0.00000  Uiso   1.00
H26    H     0.15652   0.12500   0.20810   0.00000  Uiso   1.00
H27    H     0.17681   0.20833   0.29190   0.00000  Uiso   1.00
H28    H     0.19435   0.05465   0.40972   0.00000  Uiso   1.00
H29    H     0.28307   0.05939   0.48290   0.00000  Uiso   1.00
H30    H     0.31740   0.21444   0.43331   0.00000  Uiso   1.00
H31    H     0.11746   0.19516   0.07534   0.00000  Uiso   1.00
H32    H     0.02404   0.22707   0.03530   0.00000  Uiso   1.00
N33    N     0.14493   0.15223   0.23542   0.00000  Uiso   1.00
N34    N     0.18840   0.18110   0.26457   0.00000  Uiso   1.00
N35    N     0.21492   0.27136   0.09234   0.00000  Uiso   1.00
O36    O     0.29769   0.24629   0.25357   0.00000  Uiso   1.00
O37    O     0.05742   0.23704   0.24423   0.00000  Uiso   1.00
O38    O     0.31490   0.17358   0.33380   0.00000  Uiso   1.00
O39    O     0.07463   0.16433   0.32446   0.00000  Uiso   1.00
O40    O     0.27592   0.09629   0.25576   0.00000  Uiso   1.00
O41    O     0.03565   0.08704   0.24642   0.00000  Uiso   1.00
O42    O     0.25870   0.16901   0.17554   0.00000  Uiso   1.00
O43    O     0.01843   0.15976   0.16620   0.00000  Uiso   1.00
Zn44   Zn    0.27119   0.17284   0.25623   0.00000  Uiso   1.00
Zn45   Zn    0.06214   0.16049   0.24376   0.00000  Uiso   1.00
C46    C     0.34821   0.26491   0.24860   0.00000  Uiso   1.00
C47    C     0.38617   0.16780   0.41640   0.00000  Uiso   1.00
C48    C     0.35594   0.31950   0.24783   0.00000  Uiso   1.00
C49    C     0.36864   0.16801   0.35527   0.00000  Uiso   1.00
C50    C     0.64406   0.01384   0.25215   0.00000  Uiso   1.00
C51    C     0.65179   0.06842   0.25139   0.00000  Uiso   1.00
C52    C     0.63094   0.16298   0.14481   0.00000  Uiso   1.00
C53    C     0.59980   0.09087   0.00468   0.00000  Uiso   1.00
C54    C     0.61065   0.15268   0.08466   0.00000  Uiso   1.00
C55    C     0.35716   0.19713   0.45090   0.00000  Uiso   1.00
C56    C     0.38033   0.20557   0.00830   0.00000  Uiso   1.00
C57    C     0.46546   0.16129   0.49515   0.00000  Uiso   1.00
C58    C     0.43447   0.18837   0.03040   0.00000  Uiso   1.00
C59    C     0.55379   0.22893   0.07765   0.00000  Uiso   1.00
C60    C     0.43656   0.14421   0.44028   0.00000  Uiso   1.00
C61    C     0.52345   0.14886   0.01317   0.00000  Uiso   1.00
C62    C     0.54523   0.10842   0.48327   0.00000  Uiso   1.00
C63    C     0.51197   0.08579   0.43281   0.00000  Uiso   1.00
C64    C     0.45880   0.10438   0.41071   0.00000  Uiso   1.00
C65    C     0.56115   0.17572   0.05924   0.00000  Uiso   1.00
C66    C     0.63118   0.11128   0.05679   0.00000  Uiso   1.00
H67    H     0.33671   0.09358   0.07624   0.00000  Uiso   1.00
H68    H     0.43442   0.08617   0.37117   0.00000  Uiso   1.00
H69    H     0.39853   0.00338   0.24376   0.00000  Uiso   1.00
H70    H     0.60147   0.32995   0.25623   0.00000  Uiso   1.00
H71    H     0.48986   0.12500   0.20810   0.00000  Uiso   1.00
H72    H     0.51014   0.20833   0.29190   0.00000  Uiso   1.00
H73    H     0.52768   0.05465   0.40972   0.00000  Uiso   1.00
H74    H     0.61640   0.05939   0.48290   0.00000  Uiso   1.00
H75    H     0.65073   0.21444   0.43331   0.00000  Uiso   1.00
H76    H     0.45079   0.19516   0.07534   0.00000  Uiso   1.00
H77    H     0.35738   0.22707   0.03530   0.00000  Uiso   1.00
N78    N     0.47827   0.15223   0.23542   0.00000  Uiso   1.00
N79    N     0.52173   0.18110   0.26457   0.00000  Uiso   1.00
N80    N     0.54825   0.27136   0.09234   0.00000  Uiso   1.00
O81    O     0.63102   0.24629   0.25357   0.00000  Uiso   1.00
O82    O     0.39075   0.23704   0.24423   0.00000  Uiso   1.00
O83    O     0.64823   0.17358   0.33380   0.00000  Uiso   1.00
O84    O     0.40796   0.16433   0.32446   0.00000  Uiso   1.00
O85    O     0.60925   0.09629   0.25576   0.00000  Uiso   1.00
O86    O     0.36898   0.08704   0.24642   0.00000  Uiso   1.00
O87    O     0.59204   0.16901   0.17554   0.00000  Uiso   1.00
O88    O     0.35177   0.15976   0.16620   0.00000  Uiso   1.00
Zn89   Zn    0.60453   0.17284   0.25623   0.00000  Uiso   1.00
Zn90   Zn    0.39547   0.16049   0.24376   0.00000  Uiso   1.00
C91    C     0.68154   0.26491   0.24860   0.00000  Uiso   1.00
C92    C     0.71950   0.16780   0.41640   0.00000  Uiso   1.00
C93    C     0.68927   0.31950   0.24783   0.00000  Uiso   1.00
C94    C     0.70197   0.16801   0.35527   0.00000  Uiso   1.00
C95    C     0.97739   0.01384   0.25215   0.00000  Uiso   1.00
C96    C     0.98512   0.06842   0.25139   0.00000  Uiso   1.00
C97    C     0.96427   0.16298   0.14481   0.00000  Uiso   1.00
C98    C     0.93313   0.09087   0.00468   0.00000  Uiso   1.00
C99    C     0.94399   0.15268   0.08466   0.00000  Uiso   1.00
C100   C     0.69049   0.19713   0.45090   0.00000  Uiso   1.00
C101   C     0.71367   0.20557   0.00830   0.00000  Uiso   1.00
C102   C     0.79879   0.16129   0.49515   0.00000  Uiso   1.00
C103   C     0.76780   0.18837   0.03040   0.00000  Uiso   1.00
C104   C     0.88713   0.22893   0.07765   0.00000  Uiso   1.00
C105   C     0.76990   0.14421   0.44028   0.00000  Uiso   1.00
C106   C     0.85679   0.14886   0.01317   0.00000  Uiso   1.00
C107   C     0.87857   0.10842   0.48327   0.00000  Uiso   1.00
C108   C     0.84530   0.08579   0.43281   0.00000  Uiso   1.00
C109   C     0.79214   0.10438   0.41071   0.00000  Uiso   1.00
C110   C     0.89449   0.17572   0.05924   0.00000  Uiso   1.00
C111   C     0.96451   0.11128   0.05679   0.00000  Uiso   1.00
H112   H     0.67004   0.09358   0.07624   0.00000  Uiso   1.00
H113   H     0.76775   0.08617   0.37117   0.00000  Uiso   1.00
H114   H     0.73186   0.00338   0.24376   0.00000  Uiso   1.00
H115   H     0.93481   0.32995   0.25623   0.00000  Uiso   1.00
H116   H     0.82319   0.12500   0.20810   0.00000  Uiso   1.00
H117   H     0.84348   0.20833   0.29190   0.00000  Uiso   1.00
H118   H     0.86101   0.05465   0.40972   0.00000  Uiso   1.00
H119   H     0.94973   0.05939   0.48290   0.00000  Uiso   1.00
H120   H     0.98407   0.21444   0.43331   0.00000  Uiso   1.00
H121   H     0.78412   0.19516   0.07534   0.00000  Uiso   1.00
H122   H     0.69071   0.22707   0.03530   0.00000  Uiso   1.00
N123   N     0.81160   0.15223   0.23542   0.00000  Uiso   1.00
N124   N     0.85507   0.18110   0.26457   0.00000  Uiso   1.00
N125   N     0.88158   0.27136   0.09234   0.00000  Uiso   1.00
O126   O     0.96435   0.24629   0.25357   0.00000  Uiso   1.00
O127   O     0.72408   0.23704   0.24423   0.00000  Uiso   1.00
O128   O     0.98157   0.17358   0.33380   0.00000  Uiso   1.00
O129   O     0.74130   0.16433   0.32446   0.00000  Uiso   1.00
O130   O     0.94258   0.09629   0.25576   0.00000  Uiso   1.00
O131   O     0.70231   0.08704   0.24642   0.00000  Uiso   1.00
O132   O     0.92537   0.16901   0.17554   0.00000  Uiso   1.00
O133   O     0.68510   0.15976   0.16620   0.00000  Uiso   1.00
Zn134  Zn    0.93786   0.17284   0.25623   0.00000  Uiso   1.00
Zn135  Zn    0.72881   0.16049   0.24376   0.00000  Uiso   1.00
C136   C     0.01487   0.59824   0.24860   0.00000  Uiso   1.00
C137   C     0.05283   0.50113   0.41640   0.00000  Uiso   1.00
C138   C     0.02261   0.65283   0.24783   0.00000  Uiso   1.00
C139   C     0.03531   0.50134   0.35527   0.00000  Uiso   1.00
C140   C     0.31073   0.34717   0.25215   0.00000  Uiso   1.00
C141   C     0.31846   0.40175   0.25139   0.00000  Uiso   1.00
C142   C     0.29760   0.49631   0.14481   0.00000  Uiso   1.00
C143   C     0.26647   0.42420   0.00468   0.00000  Uiso   1.00
C144   C     0.27732   0.48601   0.08466   0.00000  Uiso   1.00
C145   C     0.02383   0.53047   0.45090   0.00000  Uiso   1.00
C146   C     0.04700   0.53890   0.00830   0.00000  Uiso   1.00
C147   C     0.13213   0.49462   0.49515   0.00000  Uiso   1.00
C148   C     0.10114   0.52170   0.03040   0.00000  Uiso   1.00
C149   C     0.22046   0.56227   0.07765   0.00000  Uiso   1.00
C150   C     0.10323   0.47755   0.44028   0.00000  Uiso   1.00
C151   C     0.19012   0.48220   0.01317   0.00000  Uiso   1.00
C152   C     0.21190   0.44175   0.48327   0.00000  Uiso   1.00
C153   C     0.17864   0.41912   0.43281   0.00000  Uiso   1.00
C154   C     0.12547   0.43772   0.41071   0.00000  Uiso   1.00
C155   C     0.22782   0.50905   0.05924   0.00000  Uiso   1.00
C156   C     0.29784   0.44462   0.05679   0.00000  Uiso   1.00
H157   H     0.00338   0.42691   0.07624   0.00000  Uiso   1.00
H158   H     0.10108   0.41951   0.37117   0.00000  Uiso   1.00
H159   H     0.06519   0.33672   0.24376   0.00000  Uiso   1.00
H160   H     0.26814   0.66329   0.25623   0.00000  Uiso   1.00
H161   H     0.15652   0.45833   0.20810   0.00000  Uiso   1.00
H162   H     0.17681   0.54167   0.29190   0.00000  Uiso   1.00
H163   H     0.19435   0.38798   0.40972   0.00000  Uiso   1.00
H164   H     0.28307   0.39273   0.48290   0.00000  Uiso   1.00
H165   H     0.31740   0.54777   0.43331   0.00000  Uiso   1.00
H166   H     0.11746   0.52849   0.07534   0.00000  Uiso   1.00
H167   H     0.02404   0.56040   0.03530   0.00000  Uiso   1.00
N168   N     0.14493   0.48556   0.23542   0.00000  Uiso   1.00
N169   N     0.18840   0.51444   0.26457   0.00000  Uiso   1.00
N170   N     0.21492   0.60469   0.09234   0.00000  Uiso   1.00
O171   O     0.29769   0.57963   0.25357   0.00000  Uiso   1.00
O172   O     0.05742   0.57038   0.24423   0.00000  Uiso   1.00
O173   O     0.31490   0.50691   0.33380   0.00000  Uiso   1.00
O174   O     0.07463   0.49766   0.32446   0.00000  Uiso   1.00
O175   O     0.27592   0.42962   0.25576   0.00000  Uiso   1.00
O176   O     0.03565   0.42037   0.24642   0.00000  Uiso   1.00
O177   O     0.25870   0.50234   0.17554   0.00000  Uiso   1.00
O178   O     0.01843   0.49309   0.16620   0.00000  Uiso   1.00
Zn179  Zn    0.27119   0.50618   0.25623   0.00000  Uiso   1.00
Zn180  Zn    0.06214   0.49382   0.24376   0.00000  Uiso   1.00
C181   C     0.34821   0.59824   0.24860   0.00000  Uiso   1.00
C182   C     0.38617   0.50113   0.41640   0.00000  Uiso   1.00
C183   C     0.35594   0.65283   0.24783   0.00000  Uiso   1.00
C184   C     0.36864   0.50134   0.35527   0.00000  Uiso   1.00
C185   C     0.64406   0.34717   0.25215   0.00000  Uiso   1.00
C186   C     0.65179   0.40175   0.25139   0.00000  Uiso   1.00
C187   C     0.63094   0.49631   0.14481   0.00000  Uiso   1.00
C188   C     0.59980   0.42420   0.00468   0.00000  Uiso   1.00
C189   C     0.61065   0.48601   0.08466   0.00000  Uiso   1.00
C190   C     0.35716   0.53047   0.45090   0.00000  Uiso   1.00
C191   C     0.38033   0.53890   0.00830   0.00000  Uiso   1.00
C192   C     0.46546   0.49462   0.49515   0.00000  Uiso   1.00
C193   C     0.43447   0.52170   0.03040   0.00000  Uiso   1.00
C194   C     0.55379   0.56227   0.07765   0.00000  Uiso   1.00
C195   C     0.43656   0.47755   0.44028   0.00000  Uiso   1.00
C196   C     0.52345   0.48220   0.01317   0.00000  Uiso   1.00
C197   C     0.54523   0.44175   0.48327   0.00000  Uiso   1.00
C198   C     0.51197   0.41912   0.43281   0.00000  Uiso   1.00
C199   C     0.45880   0.43772   0.41071   0.00000  Uiso   1.00
C200   C     0.56115   0.50905   0.05924   0.00000  Uiso   1.00
C201   C     0.63118   0.44462   0.05679   0.00000  Uiso   1.00
H202   H     0.33671   0.42691   0.07624   0.00000  Uiso   1.00
H203   H     0.43442   0.41951   0.37117   0.00000  Uiso   1.00
H204   H     0.39853   0.33672   0.24376   0.00000  Uiso   1.00
H205   H     0.60147   0.66329   0.25623   0.00000  Uiso   1.00
H206   H     0.48986   0.45833   0.20810   0.00000  Uiso   1.00
H207   H     0.51014   0.54167   0.29190   0.00000  Uiso   1.00
H208   H     0.52768   0.38798   0.40972   0.00000  Uiso   1.00
H209   H     0.61640   0.39273   0.48290   0.00000  Uiso   1.00
H210   H     0.65073   0.54777   0.43331   0.00000  Uiso   1.00
H211   H     0.45079   0.52849   0.07534   0.00000  Uiso   1.00
H212   H     0.35738   0.56040   0.03530   0.00000  Uiso   1.00
N213   N     0.47827   0.48556   0.23542   0.00000  Uiso   1.00
N214   N     0.52173   0.51444   0.26457   0.00000  Uiso   1.00
N215   N     0.54825   0.60469   0.09234   0.00000  Uiso   1.00
O216   O     0.63102   0.57963   0.25357   0.00000  Uiso   1.00
O217   O     0.39075   0.57038   0.24423   0.00000  Uiso   1.00
O218   O     0.64823   0.50691   0.33380   0.00000  Uiso   1.00
O219   O     0.40796   0.49766   0.32446   0.00000  Uiso   1.00
O220   O     0.60925   0.42962   0.25576   0.00000  Uiso   1.00
O221   O     0.36898   0.42037   0.24642   0.00000  Uiso   1.00
O222   O     0.59204   0.50234   0.17554   0.00000  Uiso   1.00
O223   O     0.35177   0.49309   0.16620   0.00000  Uiso   1.00
Zn224  Zn    0.60453   0.50618   0.25623   0.00000  Uiso   1.00
Zn225  Zn    0.39547   0.49382   0.24376   0.00000  Uiso   1.00
C226   C     0.68154   0.59824   0.24860   0.00000  Uiso   1.00
C227   C     0.71950   0.50113   0.41640   0.00000  Uiso   1.00
C228   C     0.68927   0.65283   0.24783   0.00000  Uiso   1.00
C229   C     0.70197   0.50134   0.35527   0.00000  Uiso   1.00
C230   C     0.97739   0.34717   0.25215   0.00000  Uiso   1.00
C231   C     0.98512   0.40175   0.25139   0.00000  Uiso   1.00
C232   C     0.96427   0.49631   0.14481   0.00000  Uiso   1.00
C233   C     0.93313   0.42420   0.00468   0.00000  Uiso   1.00
C234   C     0.94399   0.48601   0.08466   0.00000  Uiso   1.00
C235   C     0.69049   0.53047   0.45090   0.00000  Uiso   1.00
C236   C     0.71367   0.53890   0.00830   0.00000  Uiso   1.00
C237   C     0.79879   0.49462   0.49515   0.00000  Uiso   1.00
C238   C     0.76780   0.52170   0.03040   0.00000  Uiso   1.00
C239   C     0.88713   0.56227   0.07765   0.00000  Uiso   1.00
C240   C     0.76990   0.47755   0.44028   0.00000  Uiso   1.00
C241   C     0.85679   0.48220   0.01317   0.00000  Uiso   1.00
C242   C     0.87857   0.44175   0.48327   0.00000  Uiso   1.00
C243   C     0.84530   0.41912   0.43281   0.00000  Uiso   1.00
C244   C     0.79214   0.43772   0.41071   0.00000  Uiso   1.00
C245   C     0.89449   0.50905   0.05924   0.00000  Uiso   1.00
C246   C     0.96451   0.44462   0.05679   0.00000  Uiso   1.00
H247   H     0.67004   0.42691   0.07624   0.00000  Uiso   1.00
H248   H     0.76775   0.41951   0.37117   0.00000  Uiso   1.00
H249   H     0.73186   0.33672   0.24376   0.00000  Uiso   1.00
H250   H     0.93481   0.66329   0.25623   0.00000  Uiso   1.00
H251   H     0.82319   0.45833   0.20810   0.00000  Uiso   1.00
H252   H     0.84348   0.54167   0.29190   0.00000  Uiso   1.00
H253   H     0.86101   0.38798   0.40972   0.00000  Uiso   1.00
H254   H     0.94973   0.39273   0.48290   0.00000  Uiso   1.00
H255   H     0.98407   0.54777   0.43331   0.00000  Uiso   1.00
H256   H     0.78412   0.52849   0.07534   0.00000  Uiso   1.00
H257   H     0.69071   0.56040   0.03530   0.00000  Uiso   1.00
N258   N     0.81160   0.48556   0.23542   0.00000  Uiso   1.00
N259   N     0.85507   0.51444   0.26457   0.00000  Uiso   1.00
N260   N     0.88158   0.60469   0.09234   0.00000  Uiso   1.00
O261   O     0.96435   0.57963   0.25357   0.00000  Uiso   1.00
O262   O     0.72408   0.57038   0.24423   0.00000  Uiso   1.00
O263   O     0.98157   0.50691   0.33380   0.00000  Uiso   1.00
O264   O     0.74130   0.49766   0.32446   0.00000  Uiso   1.00
O265   O     0.94258   0.42962   0.25576   0.00000  Uiso   1.00
O266   O     0.70231   0.42037   0.24642   0.00000  Uiso   1.00
O267   O     0.92537   0.50234   0.17554   0.00000  Uiso   1.00
O268   O     0.68510   0.49309   0.16620   0.00000  Uiso   1.00
Zn269  Zn    0.93786   0.50618   0.25623   0.00000  Uiso   1.00
Zn270  Zn    0.72881   0.49382   0.24376   0.00000  Uiso   1.00
C271   C     0.01487   0.93158   0.24860   0.00000  Uiso   1.00
C272   C     0.05283   0.83446   0.41640   0.00000  Uiso   1.00
C273   C     0.02261   0.98617   0.24783   0.00000  Uiso   1.00
C274   C     0.03531   0.83467   0.35527   0.00000  Uiso   1.00
C275   C     0.31073   0.68050   0.25215   0.00000  Uiso   1.00
C276   C     0.31846   0.73509   0.25139   0.00000  Uiso   1.00
C277   C     0.29760   0.82965   0.14481   0.00000  Uiso   1.00
C278   C     0.26647   0.75753   0.00468   0.00000  Uiso   1.00
C279   C     0.27732   0.81935   0.08466   0.00000  Uiso   1.00
C280   C     0.02383   0.86380   0.45090   0.00000  Uiso   1.00
C281   C     0.04700   0.87223   0.00830   0.00000  Uiso   1.00
C282   C     0.13213   0.82796   0.49515   0.00000  Uiso   1.00
C283   C     0.10114   0.85504   0.03040   0.00000  Uiso   1.00
C284   C     0.22046   0.89560   0.07765   0.00000  Uiso   1.00
C285   C     0.10323   0.81088   0.44028   0.00000  Uiso   1.00
C286   C     0.19012   0.81553   0.01317   0.00000  Uiso   1.00
C287   C     0.21190   0.77508   0.48327   0.00000  Uiso   1.00
C288   C     0.17864   0.75246   0.43281   0.00000  Uiso   1.00
C289   C     0.12547   0.77105   0.41071   0.00000  Uiso   1.00
C290   C     0.22782   0.84239   0.05924   0.00000  Uiso   1.00
C291   C     0.29784   0.77795   0.05679   0.00000  Uiso   1.00
H292   H     0.00338   0.76025   0.07624   0.00000  Uiso   1.00
H293   H     0.10108   0.75284   0.37117   0.00000  Uiso   1.00
H294   H     0.06519   0.67005   0.24376   0.00000  Uiso   1.00
H295   H     0.26814   0.99662   0.25623   0.00000  Uiso   1.00
H296   H     0.15652   0.79167   0.20810   0.00000  Uiso   1.00
H297   H     0.17681   0.87500   0.29190   0.00000  Uiso   1.00
H298   H     0.19435   0.72131   0.40972   0.00000  Uiso   1.00
H299   H     0.28307   0.72606   0.48290   0.00000  Uiso   1.00
H300   H     0.31740   0.88111   0.43331   0.00000  Uiso   1.00
H301   H     0.11746   0.86182   0.07534   0.00000  Uiso   1.00
H302   H     0.02404   0.89374   0.03530   0.00000  Uiso   1.00
N303   N     0.14493   0.81890   0.23542   0.00000  Uiso   1.00
N304   N     0.18840   0.84777   0.26457   0.00000  Uiso   1.00
N305   N     0.21492   0.93803   0.09234   0.00000  Uiso   1.00
O306   O     0.29769   0.91296   0.25357   0.00000  Uiso   1.00
O307   O     0.05742   0.90371   0.24423   0.00000  Uiso   1.00
O308   O     0.31490   0.84024   0.33380   0.00000  Uiso   1.00
O309   O     0.07463   0.83099   0.32446   0.00000  Uiso   1.00
O310   O     0.27592   0.76296   0.25576   0.00000  Uiso   1.00
O311   O     0.03565   0.75371   0.24642   0.00000  Uiso   1.00
O312   O     0.25870   0.83567   0.17554   0.00000  Uiso   1.00
O313   O     0.01843   0.82642   0.16620   0.00000  Uiso   1.00
Zn314  Zn    0.27119   0.83951   0.25623   0.00000  Uiso   1.00
Zn315  Zn    0.06214   0.82716   0.24376   0.00000  Uiso   1.00
C316   C     0.34821   0.93158   0.24860   0.00000  Uiso   1.00
C317   C     0.38617   0.83446   0.41640   0.00000  Uiso   1.00
C318   C     0.35594   0.98617   0.24783   0.00000  Uiso   1.00
C319   C     0.36864   0.83467   0.35527   0.00000  Uiso   1.00
C320   C     0.64406   0.68050   0.25215   0.00000  Uiso   1.00
C321   C     0.65179   0.73509   0.25139   0.00000  Uiso   1.00
C322   C     0.63094   0.82965   0.14481   0.00000  Uiso   1.00
C323   C     0.59980   0.75753   0.00468   0.00000  Uiso   1.00
C324   C     0.61065   0.81935   0.08466   0.00000  Uiso   1.00
C325   C     0.35716   0.86380   0.45090   0.00000  Uiso   1.00
C326   C     0.38033   0.87223   0.00830   0.00000  Uiso   1.00
C327   C     0.46546   0.82796   0.49515   0.00000  Uiso   1.00
C328   C     0.43447   0.85504   0.03040   0.00000  Uiso   1.00
C329   C     0.55379   0.89560   0.07765   0.00000  Uiso   1.00
C330   C     0.43656   0.81088   0.44028   0.00000  Uiso   1.00
C331   C     0.52345   0.81553   0.01317   0.00000  Uiso   1.00
C332   C     0.54523   0.77508   0.48327   0.00000  Uiso   1.00
C333   C     0.51197   0.75246   0.43281   0.00000  Uiso   1.00
C334   C     0.45880   0.77105   0.41071   0.00000  Uiso   1.00
C335   C     0.56115   0.84239   0.05924   0.00000  Uiso   1.00
C336   C     0.63118   0.77795   0.05679   0.00000  Uiso   1.00
H337   H     0.33671   0.76025   0.07624   0.00000  Uiso   1.00
H338   H     0.43442   0.75284   0.37117   0.00000  Uiso   1.00
H339   H     0.39853   0.67005   0.24376   0.00000  Uiso   1.00
H340   H     0.60147   0.99662   0.25623   0.00000  Uiso   1.00
H341   H     0.48986   0.79167   0.20810   0.00000  Uiso   1.00
H342   H     0.51014   0.87500   0.29190   0.00000  Uiso   1.00
H343   H     0.52768   0.72131   0.40972   0.00000  Uiso   1.00
H344   H     0.61640   0.72606   0.48290   0.00000  Uiso   1.00
H345   H     0.65073   0.88111   0.43331   0.00000  Uiso   1.00
H346   H     0.45079   0.86182   0.07534   0.00000  Uiso   1.00
H347   H     0.35738   0.89374   0.03530   0.00000  Uiso   1.00
N348   N     0.47827   0.81890   0.23542   0.00000  Uiso   1.00
N349   N     0.52173   0.84777   0.26457   0.00000  Uiso   1.00
N350   N     0.54825   0.93803   0.09234   0.00000  Uiso   1.00
O351   O     0.63102   0.91296   0.25357   0.00000  Uiso   1.00
O352   O     0.39075   0.90371   0.24423   0.00000  Uiso   1.00
O353   O     0.64823   0.84024   0.33380   0.00000  Uiso   1.00
O354   O     0.40796   0.83099   0.32446   0.00000  Uiso   1.00
O355   O     0.60925   0.76296   0.25576   0.00000  Uiso   1.00
O356   O     0.36898   0.75371   0.24642   0.00000  Uiso   1.00
O357   O     0.59204   0.83567   0.17554   0.00000  Uiso   1.00
O358   O     0.35177   0.82642   0.16620   0.00000  Uiso   1.00
Zn359  Zn    0.60453   0.83951   0.25623   0.00000  Uiso   1.00
Zn360  Zn    0.39547   0.82716   0.24376   0.00000  Uiso   1.00
C361   C     0.68154   0.93158   0.24860   0.00000  Uiso   1.00
C362   C     0.71950   0.83446   0.41640   0.00000  Uiso   1.00
C363   C     0.68927   0.98617   0.24783   0.00000  Uiso   1.00
C364   C     0.70197   0.83467   0.35527   0.00000  Uiso   1.00
C365   C     0.97739   0.68050   0.25215   0.00000  Uiso   1.00
C366   C     0.98512   0.73509   0.25139   0.00000  Uiso   1.00
C367   C     0.96427   0.82965   0.14481   0.00000  Uiso   1.00
C368   C     0.93313   0.75753   0.00468   0.00000  Uiso   1.00
C369   C     0.94399   0.81935   0.08466   0.00000  Uiso   1.00
C370   C     0.69049   0.86380   0.45090   0.00000  Uiso   1.00
C371   C     0.71367   0.87223   0.00830   0.00000  Uiso   1.00
C372   C     0.79879   0.82796   0.49515   0.00000  Uiso   1.00
C373   C     0.76780   0.85504   0.03040   0.00000  Uiso   1.00
C374   C     0.88713   0.89560   0.07765   0.00000  Uiso   1.00
C375   C     0.76990   0.81088   0.44028   0.00000  Uiso   1.00
C376   C     0.85679   0.81553   0.01317   0.00000  Uiso   1.00
C377   C     0.87857   0.77508   0.48327   0.00000  Uiso   1.00
C378   C     0.84530   0.75246   0.43281   0.00000  Uiso   1.00
C379   C     0.79214   0.77105   0.41071   0.00000  Uiso   1.00
C380   C     0.89449   0.84239   0.05924   0.00000  Uiso   1.00
C381   C     0.96451   0.77795   0.05679   0.00000  Uiso   1.00
H382   H     0.67004   0.76025   0.07624   0.00000  Uiso   1.00
H383   H     0.76775   0.75284   0.37117   0.00000  Uiso   1.00
H384   H     0.73186   0.67005   0.24376   0.00000  Uiso   1.00
H385   H     0.93481   0.99662   0.25623   0.00000  Uiso   1.00
H386   H     0.82319   0.79167   0.20810   0.00000  Uiso   1.00
H387   H     0.84348   0.87500   0.29190   0.00000  Uiso   1.00
H388   H     0.86101   0.72131   0.40972   0.00000  Uiso   1.00
H389   H     0.94973   0.72606   0.48290   0.00000  Uiso   1.00
H390   H     0.98407   0.88111   0.43331   0.00000  Uiso   1.00
H391   H     0.78412   0.86182   0.07534   0.00000  Uiso   1.00
H392   H     0.69071   0.89374   0.03530   0.00000  Uiso   1.00
N393   N     0.81160   0.81890   0.23542   0.00000  Uiso   1.00
N394   N     0.85507   0.84777   0.26457   0.00000  Uiso   1.00
N395   N     0.88158   0.93803   0.09234   0.00000  Uiso   1.00
O396   O     0.96435   0.91296   0.25357   0.00000  Uiso   1.00
O397   O     0.72408   0.90371   0.24423   0.00000  Uiso   1.00
O398   O     0.98157   0.84024   0.33380   0.00000  Uiso   1.00
O399   O     0.74130   0.83099   0.32446   0.00000  Uiso   1.00
O400   O     0.94258   0.76296   0.25576   0.00000  Uiso   1.00
O401   O     0.70231   0.75371   0.24642   0.00000  Uiso   1.00
O402   O     0.92537   0.83567   0.17554   0.00000  Uiso   1.00
O403   O     0.68510   0.82642   0.16620   0.00000  Uiso   1.00
Zn404  Zn    0.93786   0.83951   0.25623   0.00000  Uiso   1.00
Zn405  Zn    0.72881   0.82716   0.24376   0.00000  Uiso   1.00
C406   C     0.01487   0.26491   0.74860   0.00000  Uiso   1.00
C407   C     0.05283   0.16780   0.91640   0.00000  Uiso   1.00
C408   C     0.02261   0.31950   0.74783   0.00000  Uiso   1.00
C409   C     0.03531   0.16801   0.85527   0.00000  Uiso   1.00
C410   C     0.31073   0.01384   0.75215   0.00000  Uiso   1.00
C411   C     0.31846   0.06842   0.75139   0.00000  Uiso   1.00
C412   C     0.29760   0.16298   0.64481   0.00000  Uiso   1.00
C413   C     0.26647   0.09087   0.50468   0.00000  Uiso   1.00
C414   C     0.27732   0.15268   0.58466   0.00000  Uiso   1.00
C415   C     0.02383   0.19713   0.95090   0.00000  Uiso   1.00
C416   C     0.04700   0.20557   0.50830   0.00000  Uiso   1.00
C417   C     0.13213   0.16129   0.99515   0.00000  Uiso   1.00
C418   C     0.10114   0.18837   0.53040   0.00000  Uiso   1.00
C419   C     0.22046   0.22893   0.57765   0.00000  Uiso   1.00
C420   C     0.10323   0.14421   0.94028   0.00000  Uiso   1.00
C421   C     0.19012   0.14886   0.51317   0.00000  Uiso   1.00
C422   C     0.21190   0.10842   0.98327   0.00000  Uiso   1.00
C423   C     0.17864   0.08579   0.93281   0.00000  Uiso   1.00
C424   C     0.12547   0.10438   0.91071   0.00000  Uiso   1.00
C425   C     0.22782   0.17572   0.55924   0.00000  Uiso   1.00
C426   C     0.29784   0.11128   0.55679   0.00000  Uiso   1.00
H427   H     0.00338   0.09358   0.57624   0.00000  Uiso   1.00
H428   H     0.10108   0.08617   0.87117   0.00000  Uiso   1.00
H429   H     0.06519   0.00338   0.74376   0.00000  Uiso   1.00
H430   H     0.26814   0.32995   0.75623   0.00000  Uiso   1.00
H431   H     0.15652   0.12500   0.70810   0.00000  Uiso   1.00
H432   H     0.17681   0.20833   0.79190   0.00000  Uiso   1.00
H433   H     0.19435   0.05465   0.90972   0.00000  Uiso   1.00
H434   H     0.28307   0.05939   0.98290   0.00000  Uiso   1.00
H435   H     0.31740   0.21444   0.93331   0.00000  Uiso   1.00
H436   H     0.11746   0.19516   0.57534   0.00000  Uiso   1.00
H437   H     0.02404   0.22707   0.53530   0.00000  Uiso   1.00
N438   N     0.14493   0.15223   0.73542   0.00000  Uiso   1.00
N439   N     0.18840   0.18110   0.76457   0.00000  Uiso   1.00
N440   N     0.21492   0.27136   0.59234   0.00000  Uiso   1.00
O441   O     0.29769   0.24629   0.75357   0.00000  Uiso   1.00
O442   O     0.05742   0.23704   0.74423   0.00000  Uiso   1.00
O443   O     0.31490   0.17358   0.83380   0.00000  Uiso   1.00
O444   O     0.07463   0.16433   0.82446   0.00000  Uiso   1.00
O445   O     0.27592   0.09629   0.75576   0.00000  Uiso   1.00
O446   O     0.03565   0.08704   0.74642   0.00000  Uiso   1.00
O447   O     0.25870   0.16901   0.67554   0.00000  Uiso   1.00
O448   O     0.01843   0.15976   0.66620   0.00000  Uiso   1.00
Zn449  Zn    0.27119   0.17284   0.75623   0.00000  Uiso   1.00
Zn450  Zn    0.06214   0.16049   0.74376   0.00000  Uiso   1.00
C451   C     0.34821   0.26491   0.74860   0.00000  Uiso   1.00
C452   C     0.38617   0.16780   0.91640   0.00000  Uiso   1.00
C453   C     0.35594   0.31950   0.74783   0.00000  Uiso   1.00
C454   C     0.36864   0.16801   0.85527   0.00000  Uiso   1.00
C455   C     0.64406   0.01384   0.75215   0.00000  Uiso   1.00
C456   C     0.65179   0.06842   0.75139   0.00000  Uiso   1.00
C457   C     0.63094   0.16298   0.64481   0.00000  Uiso   1.00
C458   C     0.59980   0.09087   0.50468   0.00000  Uiso   1.00
C459   C     0.61065   0.15268   0.58466   0.00000  Uiso   1.00
C460   C     0.35716   0.19713   0.95090   0.00000  Uiso   1.00
C461   C     0.38033   0.20557   0.50830   0.00000  Uiso   1.00
C462   C     0.46546   0.16129   0.99515   0.00000  Uiso   1.00
C463   C     0.43447   0.18837   0.53040   0.00000  Uiso   1.00
C464   C     0.55379   0.22893   0.57765   0.00000  Uiso   1.00
C465   C     0.43656   0.14421   0.94028   0.00000  Uiso   1.00
C466   C     0.52345   0.14886   0.51317   0.00000  Uiso   1.00
C467   C     0.54523   0.10842   0.98327   0.00000  Uiso   1.00
C468   C     0.51197   0.08579   0.93281   0.00000  Uiso   1.00
C469   C     0.45880   0.10438   0.91071   0.00000  Uiso   1.00
C470   C     0.56115   0.17572   0.55924   0.00000  Uiso   1.00
C471   C     0.63118   0.11128   0.55679   0.00000  Uiso   1.00
H472   H     0.33671   0.09358   0.57624   0.00000  Uiso   1.00
H473   H     0.43442   0.08617   0.87117   0.00000  Uiso   1.00
H474   H     0.39853   0.00338   0.74376   0.00000  Uiso   1.00
H475   H     0.60147   0.32995   0.75623   0.00000  Uiso   1.00
H476   H     0.48986   0.12500   0.70810   0.00000  Uiso   1.00
H477   H     0.51014   0.20833   0.79190   0.00000  Uiso   1.00
H478   H     0.52768   0.05465   0.90972   0.00000  Uiso   1.00
H479   H     0.61640   0.05939   0.98290   0.00000  Uiso   1.00
H480   H     0.65073   0.21444   0.93331   0.00000  Uiso   1.00
H481   H     0.45079   0.19516   0.57534   0.00000  Uiso   1.00
H482   H     0.35738   0.22707   0.53530   0.00000  Uiso   1.00
N483   N     0.47827   0.15223   0.73542   0.00000  Uiso   1.00
N484   N     0.52173   0.18110   0.76457   0.00000  Uiso   1.00
N485   N     0.54825   0.27136   0.59234   0.00000  Uiso   1.00
O486   O     0.63102   0.24629   0.75357   0.00000  Uiso   1.00
O487   O     0.39075   0.23704   0.74423   0.00000  Uiso   1.00
O488   O     0.64823   0.17358   0.83380   0.00000  Uiso   1.00
O489   O     0.40796   0.16433   0.82446   0.00000  Uiso   1.00
O490   O     0.60925   0.09629   0.75576   0.00000  Uiso   1.00
O491   O     0.36898   0.08704   0.74642   0.00000  Uiso   1.00
O492   O     0.59204   0.16901   0.67554   0.00000  Uiso   1.00
O493   O     0.35177   0.15976   0.66620   0.00000  Uiso   1.00
Zn494  Zn    0.60453   0.17284   0.75623   0.00000  Uiso   1.00
Zn495  Zn    0.39547   0.16049   0.74376   0.00000  Uiso   1.00
C496   C     0.68154   0.26491   0.74860   0.00000  Uiso   1.00
C497   C     0.71950   0.16780   0.91640   0.00000  Uiso   1.00
C498   C     0.68927   0.31950   0.74783   0.00000  Uiso   1.00
C499   C     0.70197   0.16801   0.85527   0.00000  Uiso   1.00
C500   C     0.97739   0.01384   0.75215   0.00000  Uiso   1.00
C501   C     0.98512   0.06842   0.75139   0.00000  Uiso   1.00
C502   C     0.96427   0.16298   0.64481   0.00000  Uiso   1.00
C503   C     0.93313   0.09087   0.50468   0.00000  Uiso   1.00
C504   C     0.94399   0.15268   0.58466   0.00000  Uiso   1.00
C505   C     0.69049   0.19713   0.95090   0.00000  Uiso   1.00
C506   C     0.71367   0.20557   0.50830   0.00000  Uiso   1.00
C507   C     0.79879   0.16129   0.99515   0.00000  Uiso   1.00
C508   C     0.76780   0.18837   0.53040   0.00000  Uiso   1.00
C509   C     0.88713   0.22893   0.57765   0.00000  Uiso   1.00
C510   C     0.76990   0.14421   0.94028   0.00000  Uiso   1.00
C511   C     0.85679   0.14886   0.51317   0.00000  Uiso   1.00
C512   C     0.87857   0.10842   0.98327   0.00000  Uiso   1.00
C513   C     0.84530   0.08579   0.93281   0.00000  Uiso   1.00
C514   C     0.79214   0.10438   0.91071   0.00000  Uiso   1.00
C515   C     0.89449   0.17572   0.55924   0.00000  Uiso   1.00
C516   C     0.96451   0.11128   0.55679   0.00000  Uiso   1.00
H517   H     0.67004   0.09358   0.57624   0.00000  Uiso   1.00
H518   H     0.76775   0.08617   0.87117   0.00000  Uiso   1.00
H519   H     0.73186   0.00338   0.74376   0.00000  Uiso   1.00
H520   H     0.93481   0.32995   0.75623   0.00000  Uiso   1.00
H521   H     0.82319   0.12500   0.70810   0.00000  Uiso   1.00
H522   H     0.84348   0.20833   0.79190   0.00000  Uiso   1.00
H523   H     0.86101   0.05465   0.90972   0.00000  Uiso   1.00
H524   H     0.94973   0.05939   0.98290   0.00000  Uiso   1.00
H525   H     0.98407   0.21444   0.93331   0.00000  Uiso   1.00
H526   H     0.78412   0.19516   0.57534   0.00000  Uiso   1.00
H527   H     0.69071   0.22707   0.53530   0.00000  Uiso   1.00
N528   N     0.81160   0.15223   0.73542   0.00000  Uiso   1.00
N529   N     0.85507   0.18110   0.76457   0.00000  Uiso   1.00
N530   N     0.88158   0.27136   0.59234   0.00000  Uiso   1.00
O531   O     0.96435   0.24629   0.75357   0.00000  Uiso   1.00
O532   O     0.72408   0.23704   0.74423   0.00000  Uiso   1.00
O533   O     0.98157   0.17358   0.83380   0.00000  Uiso   1.00
O534   O     0.74130   0.16433   0.82446   0.00000  Uiso   1.00
O535   O     0.94258   0.09629   0.75576   0.00000  Uiso   1.00
O536   O     0.70231   0.08704   0.74642   0.00000  Uiso   1.00
O537   O     0.92537   0.16901   0.67554   0.00000  Uiso   1.00
O538   O     0.68510   0.15976   0.66620   0.00000  Uiso   1.00
Zn539  Zn    0.93786   0.17284   0.75623   0.00000  Uiso   1.00
Zn540  Zn    0.72881   0.16049   0.74376   0.00000  Uiso   1.00
C541   C     0.01487   0.59824   0.74860   0.00000  Uiso   1.00
C542   C     0.05283   0.50113   0.91640   0.00000  Uiso   1.00
C543   C     0.02261   0.65283   0.74783   0.00000  Uiso   1.00
C544   C     0.03531   0.50134   0.85527   0.00000  Uiso   1.00
C545   C     0.31073   0.34717   0.75215   0.00000  Uiso   1.00
C546   C     0.31846   0.40175   0.75139   0.00000  Uiso   1.00
C547   C     0.29760   0.49631   0.64481   0.00000  Uiso   1.00
C548   C     0.26647   0.42420   0.50468   0.00000  Uiso   1.00
C549   C     0.27732   0.48601   0.58466   0.00000  Uiso   1.00
C550   C     0.02383   0.53047   0.95090   0.00000  Uiso   1.00
C551   C     0.04700   0.53890   0.50830   0.00000  Uiso   1.00
C552   C     0.13213   0.49462   0.99515   0.00000  Uiso   1.00
C553   C     0.10114   0.52170   0.53040   0.00000  Uiso   1.00
C554   C     0.22046   0.56227   0.57765   0.00000  Uiso   1.00
C555   C     0.10323   0.47755   0.94028   0.00000  Uiso   1.00
C556   C     0.19012   0.48220   0.51317   0.00000  Uiso   1.00
C557   C     0.21190   0.44175   0.98327   0.00000  Uiso   1.00
C558   C     0.17864   0.41912   0.93281   0.00000  Uiso   1.00
C559   C     0.12547   0.43772   0.91071   0.00000  Uiso   1.00
C560   C     0.22782   0.50905   0.55924   0.00000  Uiso   1.00
C561   C     0.29784   0.44462   0.55679   0.00000  Uiso   1.00
H562   H     0.00338   0.42691   0.57624   0.00000  Uiso   1.00
H563   H     0.10108   0.41951   0.87117   0.00000  Uiso   1.00
H564   H     0.06519   0.33672   0.74376   0.00000  Uiso   1.00
H565   H     0.26814   0.66329   0.75623   0.00000  Uiso   1.00
H566   H     0.15652   0.45833   0.70810   0.00000  Uiso   1.00
H567   H     0.17681   0.54167   0.79190   0.00000  Uiso   1.00
H568   H     0.19435   0.38798   0.90972   0.00000  Uiso   1.00
H569   H     0.28307   0.39273   0.98290   0.00000  Uiso   1.00
H570   H     0.31740   0.54777   0.93331   0.00000  Uiso   1.00
H571   H     0.11746   0.52849   0.57534   0.00000  Uiso   1.00
H572   H     0.02404   0.56040   0.53530   0.00000  Uiso   1.00
N573   N     0.14493   0.48556   0.73542   0.00000  Uiso   1.00
N574   N     0.18840   0.51444   0.76457   0.00000  Uiso   1.00
N575   N     0.21492   0.60469   0.59234   0.00000  Uiso   1.00
O576   O     0.29769   0.57963   0.75357   0.00000  Uiso   1.00
O577   O     0.05742   0.57038   0.74423   0.00000  Uiso   1.00
O578   O     0.31490   0.50691   0.83380   0.00000  Uiso   1.00
O579   O     0.07463   0.49766   0.82446   0.00000  Uiso   1.00
O580   O     0.27592   0.42962   0.75576   0.00000  Uiso   1.00
O581   O     0.03565   0.42037   0.74642   0.00000  Uiso   1.00
O582   O     0.25870   0.50234   0.67554   0.00000  Uiso   1.00
O583   O     0.01843   0.49309   0.66620   0.00000  Uiso   1.00
Zn584  Zn    0.27119   0.50618   0.75623   0.00000  Uiso   1.00
Zn585  Zn    0.06214   0.49382   0.74376   0.00000  Uiso   1.00
C586   C     0.34821   0.59824   0.74860   0.00000  Uiso   1.00
C587   C     0.38617   0.50113   0.91640   0.00000  Uiso   1.00
C588   C     0.35594   0.65283   0.74783   0.00000  Uiso   1.00
C589   C     0.36864   0.50134   0.85527   0.00000  Uiso   1.00
C590   C     0.64406   0.34717   0.75215   0.00000  Uiso   1.00
C591   C     0.65179   0.40175   0.75139   0.00000  Uiso   1.00
C592   C     0.63094   0.49631   0.64481   0.00000  Uiso   1.00
C593   C     0.59980   0.42420   0.50468   0.00000  Uiso   1.00
C594   C     0.61065   0.48601   0.58466   0.00000  Uiso   1.00
C595   C     0.35716   0.53047   0.95090   0.00000  Uiso   1.00
C596   C     0.38033   0.53890   0.50830   0.00000  Uiso   1.00
C597   C     0.46546   0.49462   0.99515   0.00000  Uiso   1.00
C598   C     0.43447   0.52170   0.53040   0.00000  Uiso   1.00
C599   C     0.55379   0.56227   0.57765   0.00000  Uiso   1.00
C600   C     0.43656   0.47755   0.94028   0.00000  Uiso   1.00
C601   C     0.52345   0.48220   0.51317   0.00000  Uiso   1.00
C602   C     0.54523   0.44175   0.98327   0.00000  Uiso   1.00
C603   C     0.51197   0.41912   0.93281   0.00000  Uiso   1.00
C604   C     0.45880   0.43772   0.91071   0.00000  Uiso   1.00
C605   C     0.56115   0.50905   0.55924   0.00000  Uiso   1.00
C606   C     0.63118   0.44462   0.55679   0.00000  Uiso   1.00
H607   H     0.33671   0.42691   0.57624   0.00000  Uiso   1.00
H608   H     0.43442   0.41951   0.87117   0.00000  Uiso   1.00
H609   H     0.39853   0.33672   0.74376   0.00000  Uiso   1.00
H610   H     0.60147   0.66329   0.75623   0.00000  Uiso   1.00
H611   H     0.48986   0.45833   0.70810   0.00000  Uiso   1.00
H612   H     0.51014   0.54167   0.79190   0.00000  Uiso   1.00
H613   H     0.52768   0.38798   0.90972   0.00000  Uiso   1.00
H614   H     0.61640   0.39273   0.98290   0.00000  Uiso   1.00
H615   H     0.65073   0.54777   0.93331   0.00000  Uiso   1.00
H616   H     0.45079   0.52849   0.57534   0.00000  Uiso   1.00
H617   H     0.35738   0.56040   0.53530   0.00000  Uiso   1.00
N618   N     0.47827   0.48556   0.73542   0.00000  Uiso   1.00
N619   N     0.52173   0.51444   0.76457   0.00000  Uiso   1.00
N620   N     0.54825   0.60469   0.59234   0.00000  Uiso   1.00
O621   O     0.63102   0.57963   0.75357   0.00000  Uiso   1.00
O622   O     0.39075   0.57038   0.74423   0.00000  Uiso   1.00
O623   O     0.64823   0.50691   0.83380   0.00000  Uiso   1.00
O624   O     0.40796   0.49766   0.82446   0.00000  Uiso   1.00
O625   O     0.60925   0.42962   0.75576   0.00000  Uiso   1.00
O626   O     0.36898   0.42037   0.74642   0.00000  Uiso   1.00
O627   O     0.59204   0.50234   0.67554   0.00000  Uiso   1.00
O628   O     0.35177   0.49309   0.66620   0.00000  Uiso   1.00
Zn629  Zn    0.60453   0.50618   0.75623   0.00000  Uiso   1.00
Zn630  Zn    0.39547   0.49382   0.74376   0.00000  Uiso   1.00
C631   C     0.68154   0.59824   0.74860   0.00000  Uiso   1.00
C632   C     0.71950   0.50113   0.91640   0.00000  Uiso   1.00
C633   C     0.68927   0.65283   0.74783   0.00000  Uiso   1.00
C634   C     0.70197   0.50134   0.85527   0.00000  Uiso   1.00
C635   C     0.97739   0.34717   0.75215   0.00000  Uiso   1.00
C636   C     0.98512   0.40175   0.75139   0.00000  Uiso   1.00
C637   C     0.96427   0.49631   0.64481   0.00000  Uiso   1.00
C638   C     0.93313   0.42420   0.50468   0.00000  Uiso   1.00
C639   C     0.94399   0.48601   0.58466   0.00000  Uiso   1.00
C640   C     0.69049   0.53047   0.95090   0.00000  Uiso   1.00
C641   C     0.71367   0.53890   0.50830   0.00000  Uiso   1.00
C642   C     0.79879   0.49462   0.99515   0.00000  Uiso   1.00
C643   C     0.76780   0.52170   0.53040   0.00000  Uiso   1.00
C644   C     0.88713   0.56227   0.57765   0.00000  Uiso   1.00
C645   C     0.76990   0.47755   0.94028   0.00000  Uiso   1.00
C646   C     0.85679   0.48220   0.51317   0.00000  Uiso   1.00
C647   C     0.87857   0.44175   0.98327   0.00000  Uiso   1.00
C648   C     0.84530   0.41912   0.93281   0.00000  Uiso   1.00
C649   C     0.79214   0.43772   0.91071   0.00000  Uiso   1.00
C650   C     0.89449   0.50905   0.55924   0.00000  Uiso   1.00
C651   C     0.96451   0.44462   0.55679   0.00000  Uiso   1.00
H652   H     0.67004   0.42691   0.57624   0.00000  Uiso   1.00
H653   H     0.76775   0.41951   0.87117   0.00000  Uiso   1.00
H654   H     0.73186   0.33672   0.74376   0.00000  Uiso   1.00
H655   H     0.93481   0.66329   0.75623   0.00000  Uiso   1.00
H656   H     0.82319   0.45833   0.70810   0.00000  Uiso   1.00
H657   H     0.84348   0.54167   0.79190   0.00000  Uiso   1.00
H658   H     0.86101   0.38798   0.90972   0.00000  Uiso   1.00
H659   H     0.94973   0.39273   0.98290   0.00000  Uiso   1.00
H660   H     0.98407   0.54777   0.93331   0.00000  Uiso   1.00
H661   H     0.78412   0.52849   0.57534   0.00000  Uiso   1.00
H662   H     0.69071   0.56040   0.53530   0.00000  Uiso   1.00
N663   N     0.81160   0.48556   0.73542   0.00000  Uiso   1.00
N664   N     0.85507   0.51444   0.76457   0.00000  Uiso   1.00
N665   N     0.88158   0.60469   0.59234   0.00000  Uiso   1.00
O666   O     0.96435   0.57963   0.75357   0.00000  Uiso   1.00
O667   O     0.72408   0.57038   0.74423   0.00000  Uiso   1.00
O668   O     0.98157   0.50691   0.83380   0.00000  Uiso   1.00
O669   O     0.74130   0.49766   0.82446   0.00000  Uiso   1.00
O670   O     0.94258   0.42962   0.75576   0.00000  Uiso   1.00
O671   O     0.70231   0.42037   0.74642   0.00000  Uiso   1.00
O672   O     0.92537   0.50234   0.67554   0.00000  Uiso   1.00
O673   O     0.68510   0.49309   0.66620   0.00000  Uiso   1.00
Zn674  Zn    0.93786   0.50618   0.75623   0.00000  Uiso   1.00
Zn675  Zn    0.72881   0.49382   0.74376   0.00000  Uiso   1.00
C676   C     0.01487   0.93158   0.74860   0.00000  Uiso   1.00
C677   C     0.05283   0.83446   0.91640   0.00000  Uiso   1.00
C678   C     0.02261   0.98617   0.74783   0.00000  Uiso   1.00
C679   C     0.03531   0.83467   0.85527   0.00000  Uiso   1.00
C680   C     0.31073   0.68050   0.75215   0.00000  Uiso   1.00
C681   C     0.31846   0.73509   0.75139   0.00000  Uiso   1.00
C682   C     0.29760   0.82965   0.64481   0.00000  Uiso   1.00
C683   C     0.26647   0.75753   0.50468   0.00000  Uiso   1.00
C684   C     0.27732   0.81935   0.58466   0.00000  Uiso   1.00
C685   C     0.02383   0.86380   0.95090   0.00000  Uiso   1.00
C686   C     0.04700   0.87223   0.50830   0.00000  Uiso   1.00
C687   C     0.13213   0.82796   0.99515   0.00000  Uiso   1.00
C688   C     0.10114   0.85504   0.53040   0.00000  Uiso   1.00
C689   C     0.22046   0.89560   0.57765   0.00000  Uiso   1.00
C690   C     0.10323   0.81088   0.94028   0.00000  Uiso   1.00
C691   C     0.19012   0.81553   0.51317   0.00000  Uiso   1.00
C692   C     0.21190   0.77508   0.98327   0.00000  Uiso   1.00
C693   C     0.17864   0.75246   0.93281   0.00000  Uiso   1.00
C694   C     0.12547   0.77105   0.91071   0.00000  Uiso   1.00
C695   C     0.22782   0.84239   0.55924   0.00000  Uiso   1.00
C696   C     0.29784   0.77795   0.55679   0.00000  Uiso   1.00
H697   H     0.00338   0.76025   0.57624   0.00000  Uiso   1.00
H698   H     0.10108   0.75284   0.87117   0.00000  Uiso   1.00
H699   H     0.06519   0.67005   0.74376   0.00000  Uiso   1.00
H700   H     0.26814   0.99662   0.75623   0.00000  Uiso   1.00
H701   H     0.15652   0.79167   0.70810   0.00000  Uiso   1.00
H702   H     0.17681   0.87500   0.79190   0.00000  Uiso   1.00
H703   H     0.19435   0.72131   0.90972   0.00000  Uiso   1.00
H704   H     0.28307   0.72606   0.98290   0.00000  Uiso   1.00
H705   H     0.31740   0.88111   0.93331   0.00000  Uiso   1.00
H706   H     0.11746   0.86182   0.57534   0.00000  Uiso   1.00
H707   H     0.02404   0.89374   0.53530   0.00000  Uiso   1.00
N708   N     0.14493   0.81890   0.73542   0.00000  Uiso   1.00
N709   N     0.18840   0.84777   0.76457   0.00000  Uiso   1.00
N710   N     0.21492   0.93803   0.59234   0.00000  Uiso   1.00
O711   O     0.29769   0.91296   0.75357   0.00000  Uiso   1.00
O712   O     0.05742   0.90371   0.74423   0.00000  Uiso   1.00
O713   O     0.31490   0.84024   0.83380   0.00000  Uiso   1.00
O714   O     0.07463   0.83099   0.82446   0.00000  Uiso   1.00
O715   O     0.27592   0.76296   0.75576   0.00000  Uiso   1.00
O716   O     0.03565   0.75371   0.74642   0.00000  Uiso   1.00
O717   O     0.25870   0.83567   0.67554   0.00000  Uiso   1.00
O718   O     0.01843   0.82642   0.66620   0.00000  Uiso   1.00
Zn719  Zn    0.27119   0.83951   0.75623   0.00000  Uiso   1.00
Zn720  Zn    0.06214   0.82716   0.74376   0.00000  Uiso   1.00
C721   C     0.34821   0.93158   0.74860   0.00000  Uiso   1.00
C722   C     0.38617   0.83446   0.91640   0.00000  Uiso   1.00
C723   C     0.35594   0.98617   0.74783   0.00000  Uiso   1.00
C724   C     0.36864   0.83467   0.85527   0.00000  Uiso   1.00
C725   C     0.64406   0.68050   0.75215   0.00000  Uiso   1.00
C726   C     0.65179   0.73509   0.75139   0.00000  Uiso   1.00
C727   C     0.63094   0.82965   0.64481   0.00000  Uiso   1.00
C728   C     0.59980   0.75753   0.50468   0.00000  Uiso   1.00
C729   C     0.61065   0.81935   0.58466   0.00000  Uiso   1.00
C730   C     0.35716   0.86380   0.95090   0.00000  Uiso   1.00
C731   C     0.38033   0.87223   0.50830   0.00000  Uiso   1.00
C732   C     0.46546   0.82796   0.99515   0.00000  Uiso   1.00
C733   C     0.43447   0.85504   0.53040   0.00000  Uiso   1.00
C734   C     0.55379   0.89560   0.57765   0.00000  Uiso   1.00
C735   C     0.43656   0.81088   0.94028   0.00000  Uiso   1.00
C736   C     0.52345   0.81553   0.51317   0.00000  Uiso   1.00
C737   C     0.54523   0.77508   0.98327   0.00000  Uiso   1.00
C738   C     0.51197   0.75246   0.93281   0.00000  Uiso   1.00
C739   C     0.45880   0.77105   0.91071   0.00000  Uiso   1.00
C740   C     0.56115   0.84239   0.55924   0.00000  Uiso   1.00
C741   C     0.63118   0.77795   0.55679   0.00000  Uiso   1.00
H742   H     0.33671   0.76025   0.57624   0.00000  Uiso   1.00
H743   H     0.43442   0.75284   0.87117   0.00000  Uiso   1.00
H744   H     0.39853   0.67005   0.74376   0.00000  Uiso   1.00
H745   H     0.60147   0.99662   0.75623   0.00000  Uiso   1.00
H746   H     0.48986   0.79167   0.70810   0.00000  Uiso   1.00
H747   H     0.51014   0.87500   0.79190   0.00000  Uiso   1.00
H748   H     0.52768   0.72131   0.90972   0.00000  Uiso   1.00
H749   H     0.61640   0.72606   0.98290   0.00000  Uiso   1.00
H750   H     0.65073   0.88111   0.93331   0.00000  Uiso   1.00
H751   H     0.45079   0.86182   0.57534   0.00000  Uiso   1.00
H752   H     0.35738   0.89374   0.53530   0.00000  Uiso   1.00
N753   N     0.47827   0.81890   0.73542   0.00000  Uiso   1.00
N754   N     0.52173   0.84777   0.76457   0.00000  Uiso   1.00
N755   N     0.54825   0.93803   0.59234   0.00000  Uiso   1.00
O756   O     0.63102   0.91296   0.75357   0.00000  Uiso   1.00
O757   O     0.39075   0.90371   0.74423   0.00000  Uiso   1.00
O758   O     0.64823   0.84024   0.83380   0.00000  Uiso   1.00
O759   O     0.40796   0.83099   0.82446   0.00000  Uiso   1.00
O760   O     0.60925   0.76296   0.75576   0.00000  Uiso   1.00
O761   O     0.36898   0.75371   0.74642   0.00000  Uiso   1.00
O762   O     0.59204   0.83567   0.67554   0.00000  Uiso   1.00
O763   O     0.35177   0.82642   0.66620   0.00000  Uiso   1.00
Zn764  Zn    0.60453   0.83951   0.75623   0.00000  Uiso   1.00
Zn765  Zn    0.39547   0.82716   0.74376   0.00000  Uiso   1.00
C766   C     0.68154   0.93158   0.74860   0.00000  Uiso   1.00
C767   C     0.71950   0.83446   0.91640   0.00000  Uiso   1.00
C768   C     0.68927   0.98617   0.74783   0.00000  Uiso   1.00
C769   C     0.70197   0.83467   0.85527   0.00000  Uiso   1.00
C770   C     0.97739   0.68050   0.75215   0.00000  Uiso   1.00
C771   C     0.98512   0.73509   0.75139   0.00000  Uiso   1.00
C772   C     0.96427   0.82965   0.64481   0.00000  Uiso   1.00
C773   C     0.93313   0.75753   0.50468   0.00000  Uiso   1.00
C774   C     0.94399   0.81935   0.58466   0.00000  Uiso   1.00
C775   C     0.69049   0.86380   0.95090   0.00000  Uiso   1.00
C776   C     0.71367   0.87223   0.50830   0.00000  Uiso   1.00
C777   C     0.79879   0.82796   0.99515   0.00000  Uiso   1.00
C778   C     0.76780   0.85504   0.53040   0.00000  Uiso   1.00
C779   C     0.88713   0.89560   0.57765   0.00000  Uiso   1.00
C780   C     0.76990   0.81088   0.94028   0.00000  Uiso   1.00
C781   C     0.85679   0.81553   0.51317   0.00000  Uiso   1.00
C782   C     0.87857   0.77508   0.98327   0.00000  Uiso   1.00
C783   C     0.84530   0.75246   0.93281   0.00000  Uiso   1.00
C784   C     0.79214   0.77105   0.91071   0.00000  Uiso   1.00
C785   C     0.89449   0.84239   0.55924   0.00000  Uiso   1.00
C786   C     0.96451   0.77795   0.55679   0.00000  Uiso   1.00
H787   H     0.67004   0.76025   0.57624   0.00000  Uiso   1.00
H788   H     0.76775   0.75284   0.87117   0.00000  Uiso   1.00
H789   H     0.73186   0.67005   0.74376   0.00000  Uiso   1.00
H790   H     0.93481   0.99662   0.75623   0.00000  Uiso   1.00
H791   H     0.82319   0.79167   0.70810   0.00000  Uiso   1.00
H792   H     0.84348   0.87500   0.79190   0.00000  Uiso   1.00
H793   H     0.86101   0.72131   0.90972   0.00000  Uiso   1.00
H794   H     0.94973   0.72606   0.98290   0.00000  Uiso   1.00
H795   H     0.98407   0.88111   0.93331   0.00000  Uiso   1.00
H796   H     0.78412   0.86182   0.57534   0.00000  Uiso   1.00
H797   H     0.69071   0.89374   0.53530   0.00000  Uiso   1.00
N798   N     0.81160   0.81890   0.73542   0.00000  Uiso   1.00
N799   N     0.85507   0.84777   0.76457   0.00000  Uiso   1.00
N800   N     0.88158   0.93803   0.59234   0.00000  Uiso   1.00
O801   O     0.96435   0.91296   0.75357   0.00000  Uiso   1.00
O802   O     0.72408   0.90371   0.74423   0.00000  Uiso   1.00
O803   O     0.98157   0.84024   0.83380   0.00000  Uiso   1.00
O804   O     0.74130   0.83099   0.82446   0.00000  Uiso   1.00
O805   O     0.94258   0.76296   0.75576   0.00000  Uiso   1.00
O806   O     0.70231   0.75371   0.74642   0.00000  Uiso   1.00
O807   O     0.92537   0.83567   0.67554   0.00000  Uiso   1.00
O808   O     0.68510   0.82642   0.66620   0.00000  Uiso   1.00
Zn809  Zn    0.93786   0.83951   0.75623   0.00000  Uiso   1.00
Zn810  Zn    0.72881   0.82716   0.74376   0.00000  Uiso   1.00
loop_
_geom_bond_atom_site_label_1
_geom_bond_atom_site_label_2
_geom_bond_distance
_geom_bond_site_symmetry_2
_ccdc_geom_bond_type
C1     O37     1.290   .     A
C1     C3      1.403   .     S
C1     O126    1.276   1_455 S
C2     C4      1.453   .     S
C2     C15     1.404   .     A
C2     C10     1.404   .     A
C3     C230    1.339   1_455 S
C3     H159    1.088   .     S
C4     O39     1.299   .     A
C4     O128    1.289   1_455 S
C5     C6      1.403   .     S
C5     C318    1.339   1_545 S
C5     H295    1.088   1_545 S
C6     O40     1.290   .     A
C6     O86     1.276   .     S
C7     O42     1.297   .     A
C7     C9      1.445   .     S
C7     O88     1.287   .     S
C8     C21     1.390   .     A
C8     C422    1.401   1_554 S
C8     H434    1.084   1_554 S
C9     C21     1.400   .     A
C9     C20     1.391   .     A
C10    C416    1.389   .     S
C10    H120    1.083   1_455 S
C11    C13     1.392   .     A
C11    H32     1.083   .     S
C11    C415    1.389   1_554 S
C12    C15     1.403   .     A
C12    C418    1.416   .     S
C12    C421    1.412   .     S
C13    H31     1.081   .     S
C13    C417    1.416   1_554 S
C14    C20     1.454   .     S
C14    N35     1.158   .     T
C15    C19     1.412   .     A
C16    C20     1.402   .     A
C16    C417    1.412   1_554 S
C16    C422    1.423   1_554 S
C17    C18     1.393   .     A
C17    C413    1.401   .     S
C17    C421    1.423   .     S
C18    H28     1.084   .     S
C18    C19     1.387   .     A
C19    H23     1.082   .     S
C21    H67     1.083   .     S
H22    C111    1.083   1_455 S
H24    C273    1.088   1_545 S
H25    C140    1.088   .     S
H26    N33     1.029   .     S
H27    N34     1.029   .     S
H29    C413    1.084   .     S
H30    C55     1.083   .     S
N33    Zn45    2.019   .     S
N33    N34     1.287   .     D
N34    Zn44    2.019   .     S
O36    Zn44    1.952   .     S
O36    C46     1.276   .     S
O37    Zn45    1.979   .     S
O38    Zn44    1.952   .     S
O38    C49     1.289   .     S
O39    Zn45    1.910   .     S
O40    Zn44    1.979   .     S
O41    Zn45    1.952   .     S
O41    C96     1.276   1_455 S
O42    Zn44    1.910   .     S
O43    Zn45    1.952   .     S
O43    C97     1.287   1_455 S
C46    O82     1.290   .     A
C46    C48     1.403   .     S
C47    C49     1.453   .     S
C47    C60     1.404   .     A
C47    C55     1.404   .     A
C48    C140    1.339   .     S
C48    H204    1.088   .     S
C49    O84     1.299   .     A
C50    C51     1.403   .     S
C50    C363    1.339   1_545 S
C50    H340    1.088   1_545 S
C51    O85     1.290   .     A
C51    O131    1.276   .     S
C52    O87     1.297   .     A
C52    C54     1.445   .     S
C52    O133    1.287   .     S
C53    C66     1.390   .     A
C53    C467    1.401   1_554 S
C53    H479    1.084   1_554 S
C54    C66     1.400   .     A
C54    C65     1.391   .     A
C55    C461    1.389   .     S
C56    C58     1.392   .     A
C56    H77     1.083   .     S
C56    C460    1.389   1_554 S
C57    C60     1.403   .     A
C57    C463    1.416   .     S
C57    C466    1.412   .     S
C58    H76     1.081   .     S
C58    C462    1.416   1_554 S
C59    C65     1.454   .     S
C59    N80     1.158   .     T
C60    C64     1.412   .     A
C61    C65     1.402   .     A
C61    C462    1.412   1_554 S
C61    C467    1.423   1_554 S
C62    C63     1.393   .     A
C62    C458    1.401   .     S
C62    C466    1.423   .     S
C63    H73     1.084   .     S
C63    C64     1.387   .     A
C64    H68     1.082   .     S
C66    H112    1.083   .     S
H69    C318    1.088   1_545 S
H70    C185    1.088   .     S
H71    N78     1.029   .     S
H72    N79     1.029   .     S
H74    C458    1.084   .     S
H75    C100    1.083   .     S
N78    Zn90    2.019   .     S
N78    N79     1.287   .     D
N79    Zn89    2.019   .     S
O81    Zn89    1.952   .     S
O81    C91     1.276   .     S
O82    Zn90    1.979   .     S
O83    Zn89    1.952   .     S
O83    C94     1.289   .     S
O84    Zn90    1.910   .     S
O85    Zn89    1.979   .     S
O86    Zn90    1.952   .     S
O87    Zn89    1.910   .     S
O88    Zn90    1.952   .     S
C91    O127    1.290   .     A
C91    C93     1.403   .     S
C92    C94     1.453   .     S
C92    C105    1.404   .     A
C92    C100    1.404   .     A
C93    C185    1.339   .     S
C93    H249    1.088   .     S
C94    O129    1.299   .     A
C95    C96     1.403   .     S
C95    C273    1.339   1_645 S
C95    H385    1.088   1_545 S
C96    O130    1.290   .     A
C96    O41     1.276   1_655 S
C97    O132    1.297   .     A
C97    C99     1.445   .     S
C97    O43     1.287   1_655 S
C98    C111    1.390   .     A
C98    C512    1.401   1_554 S
C98    H524    1.084   1_554 S
C99    C111    1.400   .     A
C99    C110    1.391   .     A
C100   C506    1.389   .     S
C101   C103    1.392   .     A
C101   H122    1.083   .     S
C101   C505    1.389   1_554 S
C102   C105    1.403   .     A
C102   C508    1.416   .     S
C102   C511    1.412   .     S
C103   H121    1.081   .     S
C103   C507    1.416   1_554 S
C104   C110    1.454   .     S
C104   N125    1.158   .     T
C105   C109    1.412   .     A
C106   C110    1.402   .     A
C106   C507    1.412   1_554 S
C106   C512    1.423   1_554 S
C107   C108    1.393   .     A
C107   C503    1.401   .     S
C107   C511    1.423   .     S
C108   H118    1.084   .     S
C108   C109    1.387   .     A
C109   H113    1.082   .     S
C111   H22     1.083   1_655 S
H114   C363    1.088   1_545 S
H115   C230    1.088   .     S
H116   N123    1.029   .     S
H117   N124    1.029   .     S
H119   C503    1.084   .     S
H120   C10     1.083   1_655 S
N123   Zn135   2.019   .     S
N123   N124    1.287   .     D
N124   Zn134   2.019   .     S
O126   Zn134   1.952   .     S
O126   C1      1.276   1_655 S
O127   Zn135   1.979   .     S
O128   Zn134   1.952   .     S
O128   C4      1.289   1_655 S
O129   Zn135   1.910   .     S
O130   Zn134   1.979   .     S
O131   Zn135   1.952   .     S
O132   Zn134   1.910   .     S
O133   Zn135   1.952   .     S
C136   O172    1.290   .     A
C136   C138    1.403   .     S
C136   O261    1.276   1_455 S
C137   C139    1.453   .     S
C137   C150    1.404   .     A
C137   C145    1.404   .     A
C138   C365    1.339   1_455 S
C138   H294    1.088   .     S
C139   O174    1.299   .     A
C139   O263    1.289   1_455 S
C140   C141    1.403   .     S
C141   O175    1.290   .     A
C141   O221    1.276   .     S
C142   O177    1.297   .     A
C142   C144    1.445   .     S
C142   O223    1.287   .     S
C143   C156    1.390   .     A
C143   C557    1.401   1_554 S
C143   H569    1.084   1_554 S
C144   C156    1.400   .     A
C144   C155    1.391   .     A
C145   C551    1.389   .     S
C145   H255    1.083   1_455 S
C146   C148    1.392   .     A
C146   H167    1.083   .     S
C146   C550    1.389   1_554 S
C147   C150    1.403   .     A
C147   C553    1.416   .     S
C147   C556    1.412   .     S
C148   H166    1.081   .     S
C148   C552    1.416   1_554 S
C149   C155    1.454   .     S
C149   N170    1.158   .     T
C150   C154    1.412   .     A
C151   C155    1.402   .     A
C151   C552    1.412   1_554 S
C151   C557    1.423   1_554 S
C152   C153    1.393   .     A
C152   C548    1.401   .     S
C152   C556    1.423   .     S
C153   H163    1.084   .     S
C153   C154    1.387   .     A
C154   H158    1.082   .     S
C156   H202    1.083   .     S
H157   C246    1.083   1_455 S
H160   C275    1.088   .     S
H161   N168    1.029   .     S
H162   N169    1.029   .     S
H164   C548    1.084   .     S
H165   C190    1.083   .     S
N168   Zn180   2.019   .     S
N168   N169    1.287   .     D
N169   Zn179   2.019   .     S
O171   Zn179   1.952   .     S
O171   C181    1.276   .     S
O172   Zn180   1.979   .     S
O173   Zn179   1.952   .     S
O173   C184    1.289   .     S
O174   Zn180   1.910   .     S
O175   Zn179   1.979   .     S
O176   Zn180   1.952   .     S
O176   C231    1.276   1_455 S
O177   Zn179   1.910   .     S
O178   Zn180   1.952   .     S
O178   C232    1.287   1_455 S
C181   O217    1.290   .     A
C181   C183    1.403   .     S
C182   C184    1.453   .     S
C182   C195    1.404   .     A
C182   C190    1.404   .     A
C183   C275    1.339   .     S
C183   H339    1.088   .     S
C184   O219    1.299   .     A
C185   C186    1.403   .     S
C186   O220    1.290   .     A
C186   O266    1.276   .     S
C187   O222    1.297   .     A
C187   C189    1.445   .     S
C187   O268    1.287   .     S
C188   C201    1.390   .     A
C188   C602    1.401   1_554 S
C188   H614    1.084   1_554 S
C189   C201    1.400   .     A
C189   C200    1.391   .     A
C190   C596    1.389   .     S
C191   C193    1.392   .     A
C191   H212    1.083   .     S
C191   C595    1.389   1_554 S
C192   C195    1.403   .     A
C192   C598    1.416   .     S
C192   C601    1.412   .     S
C193   H211    1.081   .     S
C193   C597    1.416   1_554 S
C194   C200    1.454   .     S
C194   N215    1.158   .     T
C195   C199    1.412   .     A
C196   C200    1.402   .     A
C196   C597    1.412   1_554 S
C196   C602    1.423   1_554 S
C197   C198    1.393   .     A
C197   C593    1.401   .     S
C197   C601    1.423   .     S
C198   H208    1.084   .     S
C198   C199    1.387   .     A
C199   H203    1.082   .     S
C201   H247    1.083   .     S
H205   C320    1.088   .     S
H206   N213    1.029   .     S
H207   N214    1.029   .     S
H209   C593    1.084   .     S
H210   C235    1.083   .     S
N213   Zn225   2.019   .     S
N213   N214    1.287   .     D
N214   Zn224   2.019   .     S
O216   Zn224   1.952   .     S
O216   C226    1.276   .     S
O217   Zn225   1.979   .     S
O218   Zn224   1.952   .     S
O218   C229    1.289   .     S
O219   Zn225   1.910   .     S
O220   Zn224   1.979   .     S
O221   Zn225   1.952   .     S
O222   Zn224   1.910   .     S
O223   Zn225   1.952   .     S
C226   O262    1.290   .     A
C226   C228    1.403   .     S
C227   C229    1.453   .     S
C227   C240    1.404   .     A
C227   C235    1.404   .     A
C228   C320    1.339   .     S
C228   H384    1.088   .     S
C229   O264    1.299   .     A
C230   C231    1.403   .     S
C230   C3      1.339   1_655 S
C231   O265    1.290   .     A
C231   O176    1.276   1_655 S
C232   O267    1.297   .     A
C232   C234    1.445   .     S
C232   O178    1.287   1_655 S
C233   C246    1.390   .     A
C233   C647    1.401   1_554 S
C233   H659    1.084   1_554 S
C234   C246    1.400   .     A
C234   C245    1.391   .     A
C235   C641    1.389   .     S
C236   C238    1.392   .     A
C236   H257    1.083   .     S
C236   C640    1.389   1_554 S
C237   C240    1.403   .     A
C237   C643    1.416   .     S
C237   C646    1.412   .     S
C238   H256    1.081   .     S
C238   C642    1.416   1_554 S
C239   C245    1.454   .     S
C239   N260    1.158   .     T
C240   C244    1.412   .     A
C241   C245    1.402   .     A
C241   C642    1.412   1_554 S
C241   C647    1.423   1_554 S
C242   C243    1.393   .     A
C242   C638    1.401   .     S
C242   C646    1.423   .     S
C243   H253    1.084   .     S
C243   C244    1.387   .     A
C244   H248    1.082   .     S
C246   H157    1.083   1_655 S
H250   C365    1.088   .     S
H251   N258    1.029   .     S
H252   N259    1.029   .     S
H254   C638    1.084   .     S
H255   C145    1.083   1_655 S
N258   Zn270   2.019   .     S
N258   N259    1.287   .     D
N259   Zn269   2.019   .     S
O261   Zn269   1.952   .     S
O261   C136    1.276   1_655 S
O262   Zn270   1.979   .     S
O263   Zn269   1.952   .     S
O263   C139    1.289   1_655 S
O264   Zn270   1.910   .     S
O265   Zn269   1.979   .     S
O266   Zn270   1.952   .     S
O267   Zn269   1.910   .     S
O268   Zn270   1.952   .     S
C271   O307    1.290   .     A
C271   C273    1.403   .     S
C271   O396    1.276   1_455 S
C272   C274    1.453   .     S
C272   C285    1.404   .     A
C272   C280    1.404   .     A
C273   C95     1.339   1_465 S
C273   H24     1.088   1_565 S
C274   O309    1.299   .     A
C274   O398    1.289   1_455 S
C275   C276    1.403   .     S
C276   O310    1.290   .     A
C276   O356    1.276   .     S
C277   O312    1.297   .     A
C277   C279    1.445   .     S
C277   O358    1.287   .     S
C278   C291    1.390   .     A
C278   C692    1.401   1_554 S
C278   H704    1.084   1_554 S
C279   C291    1.400   .     A
C279   C290    1.391   .     A
C280   C686    1.389   .     S
C280   H390    1.083   1_455 S
C281   C283    1.392   .     A
C281   H302    1.083   .     S
C281   C685    1.389   1_554 S
C282   C285    1.403   .     A
C282   C688    1.416   .     S
C282   C691    1.412   .     S
C283   H301    1.081   .     S
C283   C687    1.416   1_554 S
C284   C290    1.454   .     S
C284   N305    1.158   .     T
C285   C289    1.412   .     A
C286   C290    1.402   .     A
C286   C687    1.412   1_554 S
C286   C692    1.423   1_554 S
C287   C288    1.393   .     A
C287   C683    1.401   .     S
C287   C691    1.423   .     S
C288   H298    1.084   .     S
C288   C289    1.387   .     A
C289   H293    1.082   .     S
C291   H337    1.083   .     S
H292   C381    1.083   1_455 S
H295   C5      1.088   1_565 S
H296   N303    1.029   .     S
H297   N304    1.029   .     S
H299   C683    1.084   .     S
H300   C325    1.083   .     S
N303   Zn315   2.019   .     S
N303   N304    1.287   .     D
N304   Zn314   2.019   .     S
O306   Zn314   1.952   .     S
O306   C316    1.276   .     S
O307   Zn315   1.979   .     S
O308   Zn314   1.952   .     S
O308   C319    1.289   .     S
O309   Zn315   1.910   .     S
O310   Zn314   1.979   .     S
O311   Zn315   1.952   .     S
O311   C366    1.276   1_455 S
O312   Zn314   1.910   .     S
O313   Zn315   1.952   .     S
O313   C367    1.287   1_455 S
C316   O352    1.290   .     A
C316   C318    1.403   .     S
C317   C319    1.453   .     S
C317   C330    1.404   .     A
C317   C325    1.404   .     A
C318   C5      1.339   1_565 S
C318   H69     1.088   1_565 S
C319   O354    1.299   .     A
C320   C321    1.403   .     S
C321   O355    1.290   .     A
C321   O401    1.276   .     S
C322   O357    1.297   .     A
C322   C324    1.445   .     S
C322   O403    1.287   .     S
C323   C336    1.390   .     A
C323   C737    1.401   1_554 S
C323   H749    1.084   1_554 S
C324   C336    1.400   .     A
C324   C335    1.391   .     A
C325   C731    1.389   .     S
C326   C328    1.392   .     A
C326   H347    1.083   .     S
C326   C730    1.389   1_554 S
C327   C330    1.403   .     A
C327   C733    1.416   .     S
C327   C736    1.412   .     S
C328   H346    1.081   .     S
C328   C732    1.416   1_554 S
C329   C335    1.454   .     S
C329   N350    1.158   .     T
C330   C334    1.412   .     A
C331   C335    1.402   .     A
C331   C732    1.412   1_554 S
C331   C737    1.423   1_554 S
C332   C333    1.393   .     A
C332   C728    1.401   .     S
C332   C736    1.423   .     S
C333   H343    1.084   .     S
C333   C334    1.387   .     A
C334   H338    1.082   .     S
C336   H382    1.083   .     S
H340   C50     1.088   1_565 S
H341   N348    1.029   .     S
H342   N349    1.029   .     S
H344   C728    1.084   .     S
H345   C370    1.083   .     S
N348   Zn360   2.019   .     S
N348   N349    1.287   .     D
N349   Zn359   2.019   .     S
O351   Zn359   1.952   .     S
O351   C361    1.276   .     S
O352   Zn360   1.979   .     S
O353   Zn359   1.952   .     S
O353   C364    1.289   .     S
O354   Zn360   1.910   .     S
O355   Zn359   1.979   .     S
O356   Zn360   1.952   .     S
O357   Zn359   1.910   .     S
O358   Zn360   1.952   .     S
C361   O397    1.290   .     A
C361   C363    1.403   .     S
C362   C364    1.453   .     S
C362   C375    1.404   .     A
C362   C370    1.404   .     A
C363   C50     1.339   1_565 S
C363   H114    1.088   1_565 S
C364   O399    1.299   .     A
C365   C366    1.403   .     S
C365   C138    1.339   1_655 S
C366   O400    1.290   .     A
C366   O311    1.276   1_655 S
C367   O402    1.297   .     A
C367   C369    1.445   .     S
C367   O313    1.287   1_655 S
C368   C381    1.390   .     A
C368   C782    1.401   1_554 S
C368   H794    1.084   1_554 S
C369   C381    1.400   .     A
C369   C380    1.391   .     A
C370   C776    1.389   .     S
C371   C373    1.392   .     A
C371   H392    1.083   .     S
C371   C775    1.389   1_554 S
C372   C375    1.403   .     A
C372   C778    1.416   .     S
C372   C781    1.412   .     S
C373   H391    1.081   .     S
C373   C777    1.416   1_554 S
C374   C380    1.454   .     S
C374   N395    1.158   .     T
C375   C379    1.412   .     A
C376   C380    1.402   .     A
C376   C777    1.412   1_554 S
C376   C782    1.423   1_554 S
C377   C378    1.393   .     A
C377   C773    1.401   .     S
C377   C781    1.423   .     S
C378   H388    1.084   .     S
C378   C379    1.387   .     A
C379   H383    1.082   .     S
C381   H292    1.083   1_655 S
H385   C95     1.088   1_565 S
H386   N393    1.029   .     S
H387   N394    1.029   .     S
H389   C773    1.084   .     S
H390   C280    1.083   1_655 S
N393   Zn405   2.019   .     S
N393   N394    1.287   .     D
N394   Zn404   2.019   .     S
O396   Zn404   1.952   .     S
O396   C271    1.276   1_655 S
O397   Zn405   1.979   .     S
O398   Zn404   1.952   .     S
O398   C274    1.289   1_655 S
O399   Zn405   1.910   .     S
O400   Zn404   1.979   .     S
O401   Zn405   1.952   .     S
O402   Zn404   1.910   .     S
O403   Zn405   1.952   .     S
C406   O442    1.290   .     A
C406   C408    1.403   .     S
C406   O531    1.276   1_455 S
C407   C409    1.453   .     S
C407   C420    1.404   .     A
C407   C415    1.404   .     A
C408   C635    1.339   1_455 S
C408   H564    1.088   .     S
C409   O444    1.299   .     A
C409   O533    1.289   1_455 S
C410   C411    1.403   .     S
C410   C723    1.339   1_545 S
C410   H700    1.088   1_545 S
C411   O445    1.290   .     A
C411   O491    1.276   .     S
C412   O447    1.297   .     A
C412   C414    1.445   .     S
C412   O493    1.287   .     S
C413   C426    1.390   .     A
C414   C426    1.400   .     A
C414   C425    1.391   .     A
C415   C11     1.389   1_556 S
C415   H525    1.083   1_455 S
C416   C418    1.392   .     A
C416   H437    1.083   .     S
C417   C420    1.403   .     A
C417   C13     1.416   1_556 S
C417   C16     1.412   1_556 S
C418   H436    1.081   .     S
C419   C425    1.454   .     S
C419   N440    1.158   .     T
C420   C424    1.412   .     A
C421   C425    1.402   .     A
C422   C423    1.393   .     A
C422   C8      1.401   1_556 S
C422   C16     1.423   1_556 S
C423   H433    1.084   .     S
C423   C424    1.387   .     A
C424   H428    1.082   .     S
C426   H472    1.083   .     S
H427   C516    1.083   1_455 S
H429   C678    1.088   1_545 S
H430   C545    1.088   .     S
H431   N438    1.029   .     S
H432   N439    1.029   .     S
H434   C8      1.084   1_556 S
H435   C460    1.083   .     S
N438   Zn450   2.019   .     S
N438   N439    1.287   .     D
N439   Zn449   2.019   .     S
O441   Zn449   1.952   .     S
O441   C451    1.276   .     S
O442   Zn450   1.979   .     S
O443   Zn449   1.952   .     S
O443   C454    1.289   .     S
O444   Zn450   1.910   .     S
O445   Zn449   1.979   .     S
O446   Zn450   1.952   .     S
O446   C501    1.276   1_455 S
O447   Zn449   1.910   .     S
O448   Zn450   1.952   .     S
O448   C502    1.287   1_455 S
C451   O487    1.290   .     A
C451   C453    1.403   .     S
C452   C454    1.453   .     S
C452   C465    1.404   .     A
C452   C460    1.404   .     A
C453   C545    1.339   .     S
C453   H609    1.088   .     S
C454   O489    1.299   .     A
C455   C456    1.403   .     S
C455   C768    1.339   1_545 S
C455   H745    1.088   1_545 S
C456   O490    1.290   .     A
C456   O536    1.276   .     S
C457   O492    1.297   .     A
C457   C459    1.445   .     S
C457   O538    1.287   .     S
C458   C471    1.390   .     A
C459   C471    1.400   .     A
C459   C470    1.391   .     A
C460   C56     1.389   1_556 S
C461   C463    1.392   .     A
C461   H482    1.083   .     S
C462   C465    1.403   .     A
C462   C58     1.416   1_556 S
C462   C61     1.412   1_556 S
C463   H481    1.081   .     S
C464   C470    1.454   .     S
C464   N485    1.158   .     T
C465   C469    1.412   .     A
C466   C470    1.402   .     A
C467   C468    1.393   .     A
C467   C53     1.401   1_556 S
C467   C61     1.423   1_556 S
C468   H478    1.084   .     S
C468   C469    1.387   .     A
C469   H473    1.082   .     S
C471   H517    1.083   .     S
H474   C723    1.088   1_545 S
H475   C590    1.088   .     S
H476   N483    1.029   .     S
H477   N484    1.029   .     S
H479   C53     1.084   1_556 S
H480   C505    1.083   .     S
N483   Zn495   2.019   .     S
N483   N484    1.287   .     D
N484   Zn494   2.019   .     S
O486   Zn494   1.952   .     S
O486   C496    1.276   .     S
O487   Zn495   1.979   .     S
O488   Zn494   1.952   .     S
O488   C499    1.289   .     S
O489   Zn495   1.910   .     S
O490   Zn494   1.979   .     S
O491   Zn495   1.952   .     S
O492   Zn494   1.910   .     S
O493   Zn495   1.952   .     S
C496   O532    1.290   .     A
C496   C498    1.403   .     S
C497   C499    1.453   .     S
C497   C510    1.404   .     A
C497   C505    1.404   .     A
C498   C590    1.339   .     S
C498   H654    1.088   .     S
C499   O534    1.299   .     A
C500   C501    1.403   .     S
C500   C678    1.339   1_645 S
C500   H790    1.088   1_545 S
C501   O535    1.290   .     A
C501   O446    1.276   1_655 S
C502   O537    1.297   .     A
C502   C504    1.445   .     S
C502   O448    1.287   1_655 S
C503   C516    1.390   .     A
C504   C516    1.400   .     A
C504   C515    1.391   .     A
C505   C101    1.389   1_556 S
C506   C508    1.392   .     A
C506   H527    1.083   .     S
C507   C510    1.403   .     A
C507   C103    1.416   1_556 S
C507   C106    1.412   1_556 S
C508   H526    1.081   .     S
C509   C515    1.454   .     S
C509   N530    1.158   .     T
C510   C514    1.412   .     A
C511   C515    1.402   .     A
C512   C513    1.393   .     A
C512   C98     1.401   1_556 S
C512   C106    1.423   1_556 S
C513   H523    1.084   .     S
C513   C514    1.387   .     A
C514   H518    1.082   .     S
C516   H427    1.083   1_655 S
H519   C768    1.088   1_545 S
H520   C635    1.088   .     S
H521   N528    1.029   .     S
H522   N529    1.029   .     S
H524   C98     1.084   1_556 S
H525   C415    1.083   1_655 S
N528   Zn540   2.019   .     S
N528   N529    1.287   .     D
N529   Zn539   2.019   .     S
O531   Zn539   1.952   .     S
O531   C406    1.276   1_655 S
O532   Zn540   1.979   .     S
O533   Zn539   1.952   .     S
O533   C409    1.289   1_655 S
O534   Zn540   1.910   .     S
O535   Zn539   1.979   .     S
O536   Zn540   1.952   .     S
O537   Zn539   1.910   .     S
O538   Zn540   1.952   .     S
C541   O577    1.290   .     A
C541   C543    1.403   .     S
C541   O666    1.276   1_455 S
C542   C544    1.453   .     S
C542   C555    1.404   .     A
C542   C550    1.404   .     A
C543   C770    1.339   1_455 S
C543   H699    1.088   .     S
C544   O579    1.299   .     A
C544   O668    1.289   1_455 S
C545   C546    1.403   .     S
C546   O580    1.290   .     A
C546   O626    1.276   .     S
C547   O582    1.297   .     A
C547   C549    1.445   .     S
C547   O628    1.287   .     S
C548   C561    1.390   .     A
C549   C561    1.400   .     A
C549   C560    1.391   .     A
C550   C146    1.389   1_556 S
C550   H660    1.083   1_455 S
C551   C553    1.392   .     A
C551   H572    1.083   .     S
C552   C555    1.403   .     A
C552   C148    1.416   1_556 S
C552   C151    1.412   1_556 S
C553   H571    1.081   .     S
C554   C560    1.454   .     S
C554   N575    1.158   .     T
C555   C559    1.412   .     A
C556   C560    1.402   .     A
C557   C558    1.393   .     A
C557   C143    1.401   1_556 S
C557   C151    1.423   1_556 S
C558   H568    1.084   .     S
C558   C559    1.387   .     A
C559   H563    1.082   .     S
C561   H607    1.083   .     S
H562   C651    1.083   1_455 S
H565   C680    1.088   .     S
H566   N573    1.029   .     S
H567   N574    1.029   .     S
H569   C143    1.084   1_556 S
H570   C595    1.083   .     S
N573   Zn585   2.019   .     S
N573   N574    1.287   .     D
N574   Zn584   2.019   .     S
O576   Zn584   1.952   .     S
O576   C586    1.276   .     S
O577   Zn585   1.979   .     S
O578   Zn584   1.952   .     S
O578   C589    1.289   .     S
O579   Zn585   1.910   .     S
O580   Zn584   1.979   .     S
O581   Zn585   1.952   .     S
O581   C636    1.276   1_455 S
O582   Zn584   1.910   .     S
O583   Zn585   1.952   .     S
O583   C637    1.287   1_455 S
C586   O622    1.290   .     A
C586   C588    1.403   .     S
C587   C589    1.453   .     S
C587   C600    1.404   .     A
C587   C595    1.404   .     A
C588   C680    1.339   .     S
C588   H744    1.088   .     S
C589   O624    1.299   .     A
C590   C591    1.403   .     S
C591   O625    1.290   .     A
C591   O671    1.276   .     S
C592   O627    1.297   .     A
C592   C594    1.445   .     S
C592   O673    1.287   .     S
C593   C606    1.390   .     A
C594   C606    1.400   .     A
C594   C605    1.391   .     A
C595   C191    1.389   1_556 S
C596   C598    1.392   .     A
C596   H617    1.083   .     S
C597   C600    1.403   .     A
C597   C193    1.416   1_556 S
C597   C196    1.412   1_556 S
C598   H616    1.081   .     S
C599   C605    1.454   .     S
C599   N620    1.158   .     T
C600   C604    1.412   .     A
C601   C605    1.402   .     A
C602   C603    1.393   .     A
C602   C188    1.401   1_556 S
C602   C196    1.423   1_556 S
C603   H613    1.084   .     S
C603   C604    1.387   .     A
C604   H608    1.082   .     S
C606   H652    1.083   .     S
H610   C725    1.088   .     S
H611   N618    1.029   .     S
H612   N619    1.029   .     S
H614   C188    1.084   1_556 S
H615   C640    1.083   .     S
N618   Zn630   2.019   .     S
N618   N619    1.287   .     D
N619   Zn629   2.019   .     S
O621   Zn629   1.952   .     S
O621   C631    1.276   .     S
O622   Zn630   1.979   .     S
O623   Zn629   1.952   .     S
O623   C634    1.289   .     S
O624   Zn630   1.910   .     S
O625   Zn629   1.979   .     S
O626   Zn630   1.952   .     S
O627   Zn629   1.910   .     S
O628   Zn630   1.952   .     S
C631   O667    1.290   .     A
C631   C633    1.403   .     S
C632   C634    1.453   .     S
C632   C645    1.404   .     A
C632   C640    1.404   .     A
C633   C725    1.339   .     S
C633   H789    1.088   .     S
C634   O669    1.299   .     A
C635   C636    1.403   .     S
C635   C408    1.339   1_655 S
C636   O670    1.290   .     A
C636   O581    1.276   1_655 S
C637   O672    1.297   .     A
C637   C639    1.445   .     S
C637   O583    1.287   1_655 S
C638   C651    1.390   .     A
C639   C651    1.400   .     A
C639   C650    1.391   .     A
C640   C236    1.389   1_556 S
C641   C643    1.392   .     A
C641   H662    1.083   .     S
C642   C645    1.403   .     A
C642   C238    1.416   1_556 S
C642   C241    1.412   1_556 S
C643   H661    1.081   .     S
C644   C650    1.454   .     S
C644   N665    1.158   .     T
C645   C649    1.412   .     A
C646   C650    1.402   .     A
C647   C648    1.393   .     A
C647   C233    1.401   1_556 S
C647   C241    1.423   1_556 S
C648   H658    1.084   .     S
C648   C649    1.387   .     A
C649   H653    1.082   .     S
C651   H562    1.083   1_655 S
H655   C770    1.088   .     S
H656   N663    1.029   .     S
H657   N664    1.029   .     S
H659   C233    1.084   1_556 S
H660   C550    1.083   1_655 S
N663   Zn675   2.019   .     S
N663   N664    1.287   .     D
N664   Zn674   2.019   .     S
O666   Zn674   1.952   .     S
O666   C541    1.276   1_655 S
O667   Zn675   1.979   .     S
O668   Zn674   1.952   .     S
O668   C544    1.289   1_655 S
O669   Zn675   1.910   .     S
O670   Zn674   1.979   .     S
O671   Zn675   1.952   .     S
O672   Zn674   1.910   .     S
O673   Zn675   1.952   .     S
C676   O712    1.290   .     A
C676   C678    1.403   .     S
C676   O801    1.276   1_455 S
C677   C679    1.453   .     S
C677   C690    1.404   .     A
C677   C685    1.404   .     A
C678   C500    1.339   1_465 S
C678   H429    1.088   1_565 S
C679   O714    1.299   .     A
C679   O803    1.289   1_455 S
C680   C681    1.403   .     S
C681   O715    1.290   .     A
C681   O761    1.276   .     S
C682   O717    1.297   .     A
C682   C684    1.445   .     S
C682   O763    1.287   .     S
C683   C696    1.390   .     A
C684   C696    1.400   .     A
C684   C695    1.391   .     A
C685   C281    1.389   1_556 S
C685   H795    1.083   1_455 S
C686   C688    1.392   .     A
C686   H707    1.083   .     S
C687   C690    1.403   .     A
C687   C283    1.416   1_556 S
C687   C286    1.412   1_556 S
C688   H706    1.081   .     S
C689   C695    1.454   .     S
C689   N710    1.158   .     T
C690   C694    1.412   .     A
C691   C695    1.402   .     A
C692   C693    1.393   .     A
C692   C278    1.401   1_556 S
C692   C286    1.423   1_556 S
C693   H703    1.084   .     S
C693   C694    1.387   .     A
C694   H698    1.082   .     S
C696   H742    1.083   .     S
H697   C786    1.083   1_455 S
H700   C410    1.088   1_565 S
H701   N708    1.029   .     S
H702   N709    1.029   .     S
H704   C278    1.084   1_556 S
H705   C730    1.083   .     S
N708   Zn720   2.019   .     S
N708   N709    1.287   .     D
N709   Zn719   2.019   .     S
O711   Zn719   1.952   .     S
O711   C721    1.276   .     S
O712   Zn720   1.979   .     S
O713   Zn719   1.952   .     S
O713   C724    1.289   .     S
O714   Zn720   1.910   .     S
O715   Zn719   1.979   .     S
O716   Zn720   1.952   .     S
O716   C771    1.276   1_455 S
O717   Zn719   1.910   .     S
O718   Zn720   1.952   .     S
O718   C772    1.287   1_455 S
C721   O757    1.290   .     A
C721   C723    1.403   .     S
C722   C724    1.453   .     S
C722   C735    1.404   .     A
C722   C730    1.404   .     A
C723   C410    1.339   1_565 S
C723   H474    1.088   1_565 S
C724   O759    1.299   .     A
C725   C726    1.403   .     S
C726   O760    1.290   .     A
C726   O806    1.276   .     S
C727   O762    1.297   .     A
C727   C729    1.445   .     S
C727   O808    1.287   .     S
C728   C741    1.390   .     A
C729   C741    1.400   .     A
C729   C740    1.391   .     A
C730   C326    1.389   1_556 S
C731   C733    1.392   .     A
C731   H752    1.083   .     S
C732   C735    1.403   .     A
C732   C328    1.416   1_556 S
C732   C331    1.412   1_556 S
C733   H751    1.081   .     S
C734   C740    1.454   .     S
C734   N755    1.158   .     T
C735   C739    1.412   .     A
C736   C740    1.402   .     A
C737   C738    1.393   .     A
C737   C323    1.401   1_556 S
C737   C331    1.423   1_556 S
C738   H748    1.084   .     S
C738   C739    1.387   .     A
C739   H743    1.082   .     S
C741   H787    1.083   .     S
H745   C455    1.088   1_565 S
H746   N753    1.029   .     S
H747   N754    1.029   .     S
H749   C323    1.084   1_556 S
H750   C775    1.083   .     S
N753   Zn765   2.019   .     S
N753   N754    1.287   .     D
N754   Zn764   2.019   .     S
O756   Zn764   1.952   .     S
O756   C766    1.276   .     S
O757   Zn765   1.979   .     S
O758   Zn764   1.952   .     S
O758   C769    1.289   .     S
O759   Zn765   1.910   .     S
O760   Zn764   1.979   .     S
O761   Zn765   1.952   .     S
O762   Zn764   1.910   .     S
O763   Zn765   1.952   .     S
C766   O802    1.290   .     A
C766   C768    1.403   .     S
C767   C769    1.453   .     S
C767   C780    1.404   .     A
C767   C775    1.404   .     A
C768   C455    1.339   1_565 S
C768   H519    1.088   1_565 S
C769   O804    1.299   .     A
C770   C771    1.403   .     S
C770   C543    1.339   1_655 S
C771   O805    1.290   .     A
C771   O716    1.276   1_655 S
C772   O807    1.297   .     A
C772   C774    1.445   .     S
C772   O718    1.287   1_655 S
C773   C786    1.390   .     A
C774   C786    1.400   .     A
C774   C785    1.391   .     A
C775   C371    1.389   1_556 S
C776   C778    1.392   .     A
C776   H797    1.083   .     S
C777   C780    1.403   .     A
C777   C373    1.416   1_556 S
C777   C376    1.412   1_556 S
C778   H796    1.081   .     S
C779   C785    1.454   .     S
C779   N800    1.158   .     T
C780   C784    1.412   .     A
C781   C785    1.402   .     A
C782   C783    1.393   .     A
C782   C368    1.401   1_556 S
C782   C376    1.423   1_556 S
C783   H793    1.084   .     S
C783   C784    1.387   .     A
C784   H788    1.082   .     S
C786   H697    1.083   1_655 S
H790   C500    1.088   1_565 S
H791   N798    1.029   .     S
H792   N799    1.029   .     S
H794   C368    1.084   1_556 S
H795   C685    1.083   1_655 S
N798   Zn810   2.019   .     S
N798   N799    1.287   .     D
N799   Zn809   2.019   .     S
O801   Zn809   1.952   .     S
O801   C676    1.276   1_655 S
O802   Zn810   1.979   .     S
O803   Zn809   1.952   .     S
O803   C679    1.289   1_655 S
O804   Zn810   1.910   .     S
O805   Zn809   1.979   .     S
O806   Zn810   1.952   .     S
O807   Zn809   1.910   .     S
O808   Zn810   1.952   .     S
