data_str_m3_o2_o5_pcu_sym.79
_audit_creation_date              2020-01-03
_audit_creation_method            'Materials Studio'
_symmetry_space_group_name_H-M    'P1'
_symmetry_Int_Tables_number       1
_symmetry_cell_setting            triclinic
loop_
_symmetry_equiv_pos_as_xyz
  x,y,z
_cell_length_a                    29.9428
_cell_length_b                    28.3686
_cell_length_c                    26.7620
_cell_angle_alpha                 90.1319
_cell_angle_beta                  90.0870
_cell_angle_gamma                 90.0131
loop_
_atom_site_label
_atom_site_type_symbol
_atom_site_fract_x
_atom_site_fract_y
_atom_site_fract_z
_atom_site_U_iso_or_equiv
_atom_site_adp_type
_atom_site_occupancy
O1     O     0.18453   0.28974   0.16667   0.00000  Uiso   1.00
O2     O     0.31547   0.21026   0.16666   0.00000  Uiso   1.00
O3     O     0.31547   0.28974   0.16666   0.00000  Uiso   1.00
O4     O     0.18453   0.21026   0.16667   0.00000  Uiso   1.00
C5     C     0.16414   0.24998   0.16663   0.00000  Uiso   1.00
C6     C     0.33599   0.25000   0.16704   0.00000  Uiso   1.00
O7     O     0.25000   0.28973   0.09511   0.00000  Uiso   1.00
O8     O     0.25000   0.21027   0.23822   0.00000  Uiso   1.00
O9     O     0.25000   0.28973   0.23822   0.00000  Uiso   1.00
O10    O     0.25000   0.21027   0.09511   0.00000  Uiso   1.00
C11    C     0.21574   0.05257   0.14311   0.00000  Uiso   1.00
C12    C     0.26818   0.44748   0.20683   0.00000  Uiso   1.00
C13    C     0.28428   0.05271   0.19026   0.00000  Uiso   1.00
C14    C     0.23188   0.44731   0.12650   0.00000  Uiso   1.00
C15    C     0.25001   0.24997   0.07285   0.00000  Uiso   1.00
C16    C     0.24968   0.25004   0.26048   0.00000  Uiso   1.00
Zn17   Zn    0.25000   0.30307   0.16667   0.00000  Uiso   1.00
Zn18   Zn    0.25000   0.19693   0.16667   0.00000  Uiso   1.00
N19    N     0.25000   0.12623   0.16667   0.00000  Uiso   1.00
N20    N     0.25000   0.37376   0.16667   0.00000  Uiso   1.00
C21    C     0.25001   0.02670   0.16668   0.00000  Uiso   1.00
C22    C     0.25002   0.47333   0.16667   0.00000  Uiso   1.00
C23    C     0.24976   0.24995   0.02178   0.00000  Uiso   1.00
C24    C     0.24962   0.25006   0.31156   0.00000  Uiso   1.00
C25    C     0.04714   0.26462   0.12374   0.00000  Uiso   1.00
C26    C     0.45319   0.22751   0.12783   0.00000  Uiso   1.00
C27    C     0.45364   0.27234   0.20520   0.00000  Uiso   1.00
C28    C     0.04714   0.23479   0.20880   0.00000  Uiso   1.00
H29    H     0.02875   0.27630   0.09108   0.00000  Uiso   1.00
H30    H     0.47145   0.20994   0.09818   0.00000  Uiso   1.00
H31    H     0.47237   0.28927   0.23496   0.00000  Uiso   1.00
H32    H     0.02876   0.22305   0.24137   0.00000  Uiso   1.00
C33    C     0.09345   0.26461   0.12311   0.00000  Uiso   1.00
C34    C     0.40687   0.22727   0.12740   0.00000  Uiso   1.00
C35    C     0.40732   0.27222   0.20641   0.00000  Uiso   1.00
C36    C     0.09344   0.23497   0.20966   0.00000  Uiso   1.00
C37    C     0.11643   0.24989   0.16647   0.00000  Uiso   1.00
C38    C     0.38394   0.24994   0.16689   0.00000  Uiso   1.00
C39    C     0.02433   0.24977   0.16625   0.00000  Uiso   1.00
C40    C     0.47621   0.25004   0.16631   0.00000  Uiso   1.00
C41    C     0.21643   0.10218   0.14345   0.00000  Uiso   1.00
C42    C     0.26795   0.39787   0.20600   0.00000  Uiso   1.00
C43    C     0.28356   0.10231   0.18993   0.00000  Uiso   1.00
C44    C     0.23213   0.39771   0.12730   0.00000  Uiso   1.00
H45    H     0.18989   0.12148   0.12519   0.00000  Uiso   1.00
H46    H     0.28210   0.37863   0.23708   0.00000  Uiso   1.00
H47    H     0.31006   0.12171   0.20823   0.00000  Uiso   1.00
H48    H     0.21812   0.37835   0.09614   0.00000  Uiso   1.00
C49    C     0.11695   0.27954   0.07556   0.00000  Uiso   1.00
C50    C     0.11898   0.33312   0.07153   0.00000  Uiso   1.00
H51    H     0.13664   0.34833   0.10433   0.00000  Uiso   1.00
H52    H     0.13733   0.34312   0.03712   0.00000  Uiso   1.00
H53    H     0.08475   0.34809   0.06958   0.00000  Uiso   1.00
H54    H     0.15131   0.26506   0.07335   0.00000  Uiso   1.00
H55    H     0.09878   0.26516   0.04267   0.00000  Uiso   1.00
C56    C     0.38348   0.20349   0.08386   0.00000  Uiso   1.00
C57    C     0.38086   0.15025   0.09143   0.00000  Uiso   1.00
H58    H     0.36256   0.14179   0.12630   0.00000  Uiso   1.00
H59    H     0.36295   0.13390   0.05942   0.00000  Uiso   1.00
H60    H     0.41494   0.13493   0.09356   0.00000  Uiso   1.00
H61    H     0.34946   0.21784   0.07769   0.00000  Uiso   1.00
H62    H     0.40233   0.21060   0.04903   0.00000  Uiso   1.00
C63    C     0.38435   0.29318   0.25182   0.00000  Uiso   1.00
C64    C     0.36894   0.25438   0.28718   0.00000  Uiso   1.00
H65    H     0.35385   0.27033   0.32111   0.00000  Uiso   1.00
H66    H     0.34379   0.23138   0.26893   0.00000  Uiso   1.00
H67    H     0.39794   0.23244   0.29838   0.00000  Uiso   1.00
H68    H     0.40767   0.31652   0.27277   0.00000  Uiso   1.00
H69    H     0.35579   0.31581   0.24097   0.00000  Uiso   1.00
C70    C     0.11694   0.22023   0.25737   0.00000  Uiso   1.00
C71    C     0.12052   0.16670   0.26080   0.00000  Uiso   1.00
H72    H     0.13975   0.15247   0.22868   0.00000  Uiso   1.00
H73    H     0.13802   0.15695   0.29589   0.00000  Uiso   1.00
H74    H     0.08673   0.15052   0.26105   0.00000  Uiso   1.00
H75    H     0.15080   0.23590   0.26027   0.00000  Uiso   1.00
H76    H     0.09805   0.23359   0.29018   0.00000  Uiso   1.00
H77    H     0.18809   0.03477   0.12506   0.00000  Uiso   1.00
H78    H     0.28197   0.46529   0.23915   0.00000  Uiso   1.00
H79    H     0.31193   0.03501   0.20831   0.00000  Uiso   1.00
H80    H     0.21813   0.46498   0.09416   0.00000  Uiso   1.00
O81    O     0.68453   0.28974   0.16667   0.00000  Uiso   1.00
O82    O     0.81547   0.21026   0.16666   0.00000  Uiso   1.00
O83    O     0.81547   0.28974   0.16666   0.00000  Uiso   1.00
O84    O     0.68453   0.21026   0.16667   0.00000  Uiso   1.00
C85    C     0.66414   0.24998   0.16663   0.00000  Uiso   1.00
C86    C     0.83599   0.25000   0.16704   0.00000  Uiso   1.00
O87    O     0.75000   0.28973   0.09511   0.00000  Uiso   1.00
O88    O     0.75000   0.21027   0.23822   0.00000  Uiso   1.00
O89    O     0.75000   0.28973   0.23822   0.00000  Uiso   1.00
O90    O     0.75000   0.21027   0.09511   0.00000  Uiso   1.00
C91    C     0.71574   0.05257   0.14311   0.00000  Uiso   1.00
C92    C     0.76818   0.44748   0.20683   0.00000  Uiso   1.00
C93    C     0.78428   0.05271   0.19026   0.00000  Uiso   1.00
C94    C     0.73188   0.44731   0.12650   0.00000  Uiso   1.00
C95    C     0.75001   0.24997   0.07285   0.00000  Uiso   1.00
C96    C     0.74968   0.25004   0.26048   0.00000  Uiso   1.00
Zn97   Zn    0.75000   0.30307   0.16667   0.00000  Uiso   1.00
Zn98   Zn    0.75000   0.19693   0.16667   0.00000  Uiso   1.00
N99    N     0.75000   0.12623   0.16667   0.00000  Uiso   1.00
N100   N     0.75000   0.37376   0.16667   0.00000  Uiso   1.00
C101   C     0.75001   0.02670   0.16668   0.00000  Uiso   1.00
C102   C     0.75002   0.47333   0.16667   0.00000  Uiso   1.00
C103   C     0.74976   0.24995   0.02178   0.00000  Uiso   1.00
C104   C     0.74962   0.25006   0.31156   0.00000  Uiso   1.00
C105   C     0.54714   0.26462   0.12374   0.00000  Uiso   1.00
C106   C     0.95319   0.22751   0.12783   0.00000  Uiso   1.00
C107   C     0.95364   0.27234   0.20520   0.00000  Uiso   1.00
C108   C     0.54714   0.23479   0.20880   0.00000  Uiso   1.00
H109   H     0.52875   0.27630   0.09108   0.00000  Uiso   1.00
H110   H     0.97145   0.20994   0.09818   0.00000  Uiso   1.00
H111   H     0.97237   0.28927   0.23496   0.00000  Uiso   1.00
H112   H     0.52876   0.22305   0.24137   0.00000  Uiso   1.00
C113   C     0.59345   0.26461   0.12311   0.00000  Uiso   1.00
C114   C     0.90687   0.22727   0.12740   0.00000  Uiso   1.00
C115   C     0.90732   0.27222   0.20641   0.00000  Uiso   1.00
C116   C     0.59344   0.23497   0.20966   0.00000  Uiso   1.00
C117   C     0.61643   0.24989   0.16647   0.00000  Uiso   1.00
C118   C     0.88394   0.24994   0.16689   0.00000  Uiso   1.00
C119   C     0.52433   0.24977   0.16625   0.00000  Uiso   1.00
C120   C     0.97621   0.25004   0.16631   0.00000  Uiso   1.00
C121   C     0.71643   0.10218   0.14345   0.00000  Uiso   1.00
C122   C     0.76795   0.39787   0.20600   0.00000  Uiso   1.00
C123   C     0.78356   0.10231   0.18993   0.00000  Uiso   1.00
C124   C     0.73213   0.39771   0.12730   0.00000  Uiso   1.00
H125   H     0.68989   0.12148   0.12519   0.00000  Uiso   1.00
H126   H     0.78210   0.37863   0.23708   0.00000  Uiso   1.00
H127   H     0.81006   0.12171   0.20823   0.00000  Uiso   1.00
H128   H     0.71812   0.37835   0.09614   0.00000  Uiso   1.00
C129   C     0.61695   0.27954   0.07556   0.00000  Uiso   1.00
C130   C     0.61898   0.33312   0.07153   0.00000  Uiso   1.00
H131   H     0.63664   0.34833   0.10433   0.00000  Uiso   1.00
H132   H     0.63733   0.34312   0.03712   0.00000  Uiso   1.00
H133   H     0.58475   0.34809   0.06958   0.00000  Uiso   1.00
H134   H     0.65131   0.26506   0.07335   0.00000  Uiso   1.00
H135   H     0.59878   0.26516   0.04267   0.00000  Uiso   1.00
C136   C     0.88348   0.20349   0.08386   0.00000  Uiso   1.00
C137   C     0.88086   0.15025   0.09143   0.00000  Uiso   1.00
H138   H     0.86256   0.14179   0.12630   0.00000  Uiso   1.00
H139   H     0.86295   0.13390   0.05942   0.00000  Uiso   1.00
H140   H     0.91494   0.13493   0.09356   0.00000  Uiso   1.00
H141   H     0.84946   0.21784   0.07769   0.00000  Uiso   1.00
H142   H     0.90233   0.21060   0.04903   0.00000  Uiso   1.00
C143   C     0.88435   0.29318   0.25182   0.00000  Uiso   1.00
C144   C     0.86894   0.25438   0.28718   0.00000  Uiso   1.00
H145   H     0.85385   0.27033   0.32111   0.00000  Uiso   1.00
H146   H     0.84379   0.23138   0.26893   0.00000  Uiso   1.00
H147   H     0.89794   0.23244   0.29838   0.00000  Uiso   1.00
H148   H     0.90767   0.31652   0.27277   0.00000  Uiso   1.00
H149   H     0.85579   0.31581   0.24097   0.00000  Uiso   1.00
C150   C     0.61694   0.22023   0.25737   0.00000  Uiso   1.00
C151   C     0.62052   0.16670   0.26080   0.00000  Uiso   1.00
H152   H     0.63975   0.15247   0.22868   0.00000  Uiso   1.00
H153   H     0.63802   0.15695   0.29589   0.00000  Uiso   1.00
H154   H     0.58673   0.15052   0.26105   0.00000  Uiso   1.00
H155   H     0.65080   0.23590   0.26027   0.00000  Uiso   1.00
H156   H     0.59805   0.23359   0.29018   0.00000  Uiso   1.00
H157   H     0.68809   0.03477   0.12506   0.00000  Uiso   1.00
H158   H     0.78197   0.46529   0.23915   0.00000  Uiso   1.00
H159   H     0.81193   0.03501   0.20831   0.00000  Uiso   1.00
H160   H     0.71813   0.46498   0.09416   0.00000  Uiso   1.00
O161   O     0.18453   0.78974   0.16667   0.00000  Uiso   1.00
O162   O     0.31547   0.71026   0.16666   0.00000  Uiso   1.00
O163   O     0.31547   0.78974   0.16666   0.00000  Uiso   1.00
O164   O     0.18453   0.71026   0.16667   0.00000  Uiso   1.00
C165   C     0.16414   0.74998   0.16663   0.00000  Uiso   1.00
C166   C     0.33599   0.75000   0.16704   0.00000  Uiso   1.00
O167   O     0.25000   0.78973   0.09511   0.00000  Uiso   1.00
O168   O     0.25000   0.71027   0.23822   0.00000  Uiso   1.00
O169   O     0.25000   0.78973   0.23822   0.00000  Uiso   1.00
O170   O     0.25000   0.71027   0.09511   0.00000  Uiso   1.00
C171   C     0.21574   0.55257   0.14311   0.00000  Uiso   1.00
C172   C     0.26818   0.94748   0.20683   0.00000  Uiso   1.00
C173   C     0.28428   0.55271   0.19026   0.00000  Uiso   1.00
C174   C     0.23188   0.94731   0.12650   0.00000  Uiso   1.00
C175   C     0.25001   0.74997   0.07285   0.00000  Uiso   1.00
C176   C     0.24968   0.75004   0.26048   0.00000  Uiso   1.00
Zn177  Zn    0.25000   0.80307   0.16667   0.00000  Uiso   1.00
Zn178  Zn    0.25000   0.69693   0.16667   0.00000  Uiso   1.00
N179   N     0.25000   0.62623   0.16667   0.00000  Uiso   1.00
N180   N     0.25000   0.87376   0.16667   0.00000  Uiso   1.00
C181   C     0.25001   0.52670   0.16668   0.00000  Uiso   1.00
C182   C     0.25002   0.97333   0.16667   0.00000  Uiso   1.00
C183   C     0.24976   0.74995   0.02178   0.00000  Uiso   1.00
C184   C     0.24962   0.75006   0.31156   0.00000  Uiso   1.00
C185   C     0.04714   0.76462   0.12374   0.00000  Uiso   1.00
C186   C     0.45319   0.72751   0.12783   0.00000  Uiso   1.00
C187   C     0.45364   0.77234   0.20520   0.00000  Uiso   1.00
C188   C     0.04714   0.73479   0.20880   0.00000  Uiso   1.00
H189   H     0.02875   0.77630   0.09108   0.00000  Uiso   1.00
H190   H     0.47145   0.70994   0.09818   0.00000  Uiso   1.00
H191   H     0.47237   0.78927   0.23496   0.00000  Uiso   1.00
H192   H     0.02876   0.72305   0.24137   0.00000  Uiso   1.00
C193   C     0.09345   0.76461   0.12311   0.00000  Uiso   1.00
C194   C     0.40687   0.72727   0.12740   0.00000  Uiso   1.00
C195   C     0.40732   0.77222   0.20641   0.00000  Uiso   1.00
C196   C     0.09344   0.73497   0.20966   0.00000  Uiso   1.00
C197   C     0.11643   0.74989   0.16647   0.00000  Uiso   1.00
C198   C     0.38394   0.74994   0.16689   0.00000  Uiso   1.00
C199   C     0.02433   0.74977   0.16625   0.00000  Uiso   1.00
C200   C     0.47621   0.75004   0.16631   0.00000  Uiso   1.00
C201   C     0.21643   0.60218   0.14345   0.00000  Uiso   1.00
C202   C     0.26795   0.89787   0.20600   0.00000  Uiso   1.00
C203   C     0.28356   0.60231   0.18993   0.00000  Uiso   1.00
C204   C     0.23213   0.89771   0.12730   0.00000  Uiso   1.00
H205   H     0.18989   0.62148   0.12519   0.00000  Uiso   1.00
H206   H     0.28210   0.87863   0.23708   0.00000  Uiso   1.00
H207   H     0.31006   0.62171   0.20823   0.00000  Uiso   1.00
H208   H     0.21812   0.87835   0.09614   0.00000  Uiso   1.00
C209   C     0.11695   0.77954   0.07556   0.00000  Uiso   1.00
C210   C     0.11898   0.83312   0.07153   0.00000  Uiso   1.00
H211   H     0.13664   0.84833   0.10433   0.00000  Uiso   1.00
H212   H     0.13733   0.84312   0.03712   0.00000  Uiso   1.00
H213   H     0.08475   0.84809   0.06958   0.00000  Uiso   1.00
H214   H     0.15131   0.76506   0.07335   0.00000  Uiso   1.00
H215   H     0.09878   0.76516   0.04267   0.00000  Uiso   1.00
C216   C     0.38348   0.70349   0.08386   0.00000  Uiso   1.00
C217   C     0.38086   0.65025   0.09143   0.00000  Uiso   1.00
H218   H     0.36256   0.64179   0.12630   0.00000  Uiso   1.00
H219   H     0.36295   0.63390   0.05942   0.00000  Uiso   1.00
H220   H     0.41494   0.63493   0.09356   0.00000  Uiso   1.00
H221   H     0.34946   0.71784   0.07769   0.00000  Uiso   1.00
H222   H     0.40233   0.71060   0.04903   0.00000  Uiso   1.00
C223   C     0.38435   0.79318   0.25182   0.00000  Uiso   1.00
C224   C     0.36894   0.75438   0.28718   0.00000  Uiso   1.00
H225   H     0.35385   0.77033   0.32111   0.00000  Uiso   1.00
H226   H     0.34379   0.73138   0.26893   0.00000  Uiso   1.00
H227   H     0.39794   0.73244   0.29838   0.00000  Uiso   1.00
H228   H     0.40767   0.81652   0.27277   0.00000  Uiso   1.00
H229   H     0.35579   0.81581   0.24097   0.00000  Uiso   1.00
C230   C     0.11694   0.72023   0.25737   0.00000  Uiso   1.00
C231   C     0.12052   0.66670   0.26080   0.00000  Uiso   1.00
H232   H     0.13975   0.65247   0.22868   0.00000  Uiso   1.00
H233   H     0.13802   0.65695   0.29589   0.00000  Uiso   1.00
H234   H     0.08673   0.65052   0.26105   0.00000  Uiso   1.00
H235   H     0.15080   0.73590   0.26027   0.00000  Uiso   1.00
H236   H     0.09805   0.73359   0.29018   0.00000  Uiso   1.00
H237   H     0.18809   0.53477   0.12506   0.00000  Uiso   1.00
H238   H     0.28197   0.96529   0.23915   0.00000  Uiso   1.00
H239   H     0.31193   0.53501   0.20831   0.00000  Uiso   1.00
H240   H     0.21813   0.96498   0.09416   0.00000  Uiso   1.00
O241   O     0.68453   0.78974   0.16667   0.00000  Uiso   1.00
O242   O     0.81547   0.71026   0.16666   0.00000  Uiso   1.00
O243   O     0.81547   0.78974   0.16666   0.00000  Uiso   1.00
O244   O     0.68453   0.71026   0.16667   0.00000  Uiso   1.00
C245   C     0.66414   0.74998   0.16663   0.00000  Uiso   1.00
C246   C     0.83599   0.75000   0.16704   0.00000  Uiso   1.00
O247   O     0.75000   0.78973   0.09511   0.00000  Uiso   1.00
O248   O     0.75000   0.71027   0.23822   0.00000  Uiso   1.00
O249   O     0.75000   0.78973   0.23822   0.00000  Uiso   1.00
O250   O     0.75000   0.71027   0.09511   0.00000  Uiso   1.00
C251   C     0.71574   0.55257   0.14311   0.00000  Uiso   1.00
C252   C     0.76818   0.94748   0.20683   0.00000  Uiso   1.00
C253   C     0.78428   0.55271   0.19026   0.00000  Uiso   1.00
C254   C     0.73188   0.94731   0.12650   0.00000  Uiso   1.00
C255   C     0.75001   0.74997   0.07285   0.00000  Uiso   1.00
C256   C     0.74968   0.75004   0.26048   0.00000  Uiso   1.00
Zn257  Zn    0.75000   0.80307   0.16667   0.00000  Uiso   1.00
Zn258  Zn    0.75000   0.69693   0.16667   0.00000  Uiso   1.00
N259   N     0.75000   0.62623   0.16667   0.00000  Uiso   1.00
N260   N     0.75000   0.87376   0.16667   0.00000  Uiso   1.00
C261   C     0.75001   0.52670   0.16668   0.00000  Uiso   1.00
C262   C     0.75002   0.97333   0.16667   0.00000  Uiso   1.00
C263   C     0.74976   0.74995   0.02178   0.00000  Uiso   1.00
C264   C     0.74962   0.75006   0.31156   0.00000  Uiso   1.00
C265   C     0.54714   0.76462   0.12374   0.00000  Uiso   1.00
C266   C     0.95319   0.72751   0.12783   0.00000  Uiso   1.00
C267   C     0.95364   0.77234   0.20520   0.00000  Uiso   1.00
C268   C     0.54714   0.73479   0.20880   0.00000  Uiso   1.00
H269   H     0.52875   0.77630   0.09108   0.00000  Uiso   1.00
H270   H     0.97145   0.70994   0.09818   0.00000  Uiso   1.00
H271   H     0.97237   0.78927   0.23496   0.00000  Uiso   1.00
H272   H     0.52876   0.72305   0.24137   0.00000  Uiso   1.00
C273   C     0.59345   0.76461   0.12311   0.00000  Uiso   1.00
C274   C     0.90687   0.72727   0.12740   0.00000  Uiso   1.00
C275   C     0.90732   0.77222   0.20641   0.00000  Uiso   1.00
C276   C     0.59344   0.73497   0.20966   0.00000  Uiso   1.00
C277   C     0.61643   0.74989   0.16647   0.00000  Uiso   1.00
C278   C     0.88394   0.74994   0.16689   0.00000  Uiso   1.00
C279   C     0.52433   0.74977   0.16625   0.00000  Uiso   1.00
C280   C     0.97621   0.75004   0.16631   0.00000  Uiso   1.00
C281   C     0.71643   0.60218   0.14345   0.00000  Uiso   1.00
C282   C     0.76795   0.89787   0.20600   0.00000  Uiso   1.00
C283   C     0.78356   0.60231   0.18993   0.00000  Uiso   1.00
C284   C     0.73213   0.89771   0.12730   0.00000  Uiso   1.00
H285   H     0.68989   0.62148   0.12519   0.00000  Uiso   1.00
H286   H     0.78210   0.87863   0.23708   0.00000  Uiso   1.00
H287   H     0.81006   0.62171   0.20823   0.00000  Uiso   1.00
H288   H     0.71812   0.87835   0.09614   0.00000  Uiso   1.00
C289   C     0.61695   0.77954   0.07556   0.00000  Uiso   1.00
C290   C     0.61898   0.83312   0.07153   0.00000  Uiso   1.00
H291   H     0.63664   0.84833   0.10433   0.00000  Uiso   1.00
H292   H     0.63733   0.84312   0.03712   0.00000  Uiso   1.00
H293   H     0.58475   0.84809   0.06958   0.00000  Uiso   1.00
H294   H     0.65131   0.76506   0.07335   0.00000  Uiso   1.00
H295   H     0.59878   0.76516   0.04267   0.00000  Uiso   1.00
C296   C     0.88348   0.70349   0.08386   0.00000  Uiso   1.00
C297   C     0.88086   0.65025   0.09143   0.00000  Uiso   1.00
H298   H     0.86256   0.64179   0.12630   0.00000  Uiso   1.00
H299   H     0.86295   0.63390   0.05942   0.00000  Uiso   1.00
H300   H     0.91494   0.63493   0.09356   0.00000  Uiso   1.00
H301   H     0.84946   0.71784   0.07769   0.00000  Uiso   1.00
H302   H     0.90233   0.71060   0.04903   0.00000  Uiso   1.00
C303   C     0.88435   0.79318   0.25182   0.00000  Uiso   1.00
C304   C     0.86894   0.75438   0.28718   0.00000  Uiso   1.00
H305   H     0.85385   0.77033   0.32111   0.00000  Uiso   1.00
H306   H     0.84379   0.73138   0.26893   0.00000  Uiso   1.00
H307   H     0.89794   0.73244   0.29838   0.00000  Uiso   1.00
H308   H     0.90767   0.81652   0.27277   0.00000  Uiso   1.00
H309   H     0.85579   0.81581   0.24097   0.00000  Uiso   1.00
C310   C     0.61694   0.72023   0.25737   0.00000  Uiso   1.00
C311   C     0.62052   0.66670   0.26080   0.00000  Uiso   1.00
H312   H     0.63975   0.65247   0.22868   0.00000  Uiso   1.00
H313   H     0.63802   0.65695   0.29589   0.00000  Uiso   1.00
H314   H     0.58673   0.65052   0.26105   0.00000  Uiso   1.00
H315   H     0.65080   0.73590   0.26027   0.00000  Uiso   1.00
H316   H     0.59805   0.73359   0.29018   0.00000  Uiso   1.00
H317   H     0.68809   0.53477   0.12506   0.00000  Uiso   1.00
H318   H     0.78197   0.96529   0.23915   0.00000  Uiso   1.00
H319   H     0.81193   0.53501   0.20831   0.00000  Uiso   1.00
H320   H     0.71813   0.96498   0.09416   0.00000  Uiso   1.00
O321   O     0.18453   0.28974   0.50000   0.00000  Uiso   1.00
O322   O     0.31547   0.21026   0.50000   0.00000  Uiso   1.00
O323   O     0.31547   0.28974   0.50000   0.00000  Uiso   1.00
O324   O     0.18453   0.21026   0.50000   0.00000  Uiso   1.00
C325   C     0.16414   0.24998   0.49996   0.00000  Uiso   1.00
C326   C     0.33599   0.25000   0.50038   0.00000  Uiso   1.00
O327   O     0.25000   0.28973   0.42845   0.00000  Uiso   1.00
O328   O     0.25000   0.21027   0.57155   0.00000  Uiso   1.00
O329   O     0.25000   0.28973   0.57155   0.00000  Uiso   1.00
O330   O     0.25000   0.21027   0.42845   0.00000  Uiso   1.00
C331   C     0.21574   0.05257   0.47644   0.00000  Uiso   1.00
C332   C     0.26818   0.44748   0.54016   0.00000  Uiso   1.00
C333   C     0.28428   0.05271   0.52359   0.00000  Uiso   1.00
C334   C     0.23188   0.44731   0.45984   0.00000  Uiso   1.00
C335   C     0.25001   0.24997   0.40618   0.00000  Uiso   1.00
C336   C     0.24968   0.25004   0.59382   0.00000  Uiso   1.00
Zn337  Zn    0.25000   0.30307   0.50000   0.00000  Uiso   1.00
Zn338  Zn    0.25000   0.19693   0.50000   0.00000  Uiso   1.00
N339   N     0.25000   0.12623   0.50000   0.00000  Uiso   1.00
N340   N     0.25000   0.37376   0.50000   0.00000  Uiso   1.00
C341   C     0.25001   0.02670   0.50001   0.00000  Uiso   1.00
C342   C     0.25002   0.47333   0.50001   0.00000  Uiso   1.00
C343   C     0.24976   0.24995   0.35511   0.00000  Uiso   1.00
C344   C     0.24962   0.25006   0.64489   0.00000  Uiso   1.00
C345   C     0.04714   0.26462   0.45707   0.00000  Uiso   1.00
C346   C     0.45319   0.22751   0.46117   0.00000  Uiso   1.00
C347   C     0.45364   0.27234   0.53853   0.00000  Uiso   1.00
C348   C     0.04714   0.23479   0.54213   0.00000  Uiso   1.00
H349   H     0.02875   0.27630   0.42441   0.00000  Uiso   1.00
H350   H     0.47145   0.20994   0.43151   0.00000  Uiso   1.00
H351   H     0.47237   0.28927   0.56829   0.00000  Uiso   1.00
H352   H     0.02876   0.22305   0.57471   0.00000  Uiso   1.00
C353   C     0.09345   0.26461   0.45644   0.00000  Uiso   1.00
C354   C     0.40687   0.22727   0.46074   0.00000  Uiso   1.00
C355   C     0.40732   0.27222   0.53975   0.00000  Uiso   1.00
C356   C     0.09344   0.23497   0.54299   0.00000  Uiso   1.00
C357   C     0.11643   0.24989   0.49980   0.00000  Uiso   1.00
C358   C     0.38394   0.24994   0.50022   0.00000  Uiso   1.00
C359   C     0.02433   0.24977   0.49958   0.00000  Uiso   1.00
C360   C     0.47621   0.25004   0.49964   0.00000  Uiso   1.00
C361   C     0.21643   0.10218   0.47678   0.00000  Uiso   1.00
C362   C     0.26795   0.39787   0.53933   0.00000  Uiso   1.00
C363   C     0.28356   0.10231   0.52326   0.00000  Uiso   1.00
C364   C     0.23213   0.39771   0.46063   0.00000  Uiso   1.00
H365   H     0.18989   0.12148   0.45852   0.00000  Uiso   1.00
H366   H     0.28210   0.37863   0.57041   0.00000  Uiso   1.00
H367   H     0.31006   0.12171   0.54157   0.00000  Uiso   1.00
H368   H     0.21812   0.37835   0.42947   0.00000  Uiso   1.00
C369   C     0.11695   0.27954   0.40889   0.00000  Uiso   1.00
C370   C     0.11898   0.33312   0.40486   0.00000  Uiso   1.00
H371   H     0.13664   0.34833   0.43766   0.00000  Uiso   1.00
H372   H     0.13733   0.34312   0.37045   0.00000  Uiso   1.00
H373   H     0.08475   0.34809   0.40291   0.00000  Uiso   1.00
H374   H     0.15131   0.26506   0.40668   0.00000  Uiso   1.00
H375   H     0.09878   0.26516   0.37600   0.00000  Uiso   1.00
C376   C     0.38348   0.20349   0.41719   0.00000  Uiso   1.00
C377   C     0.38086   0.15025   0.42476   0.00000  Uiso   1.00
H378   H     0.36256   0.14179   0.45963   0.00000  Uiso   1.00
H379   H     0.36295   0.13390   0.39276   0.00000  Uiso   1.00
H380   H     0.41494   0.13493   0.42690   0.00000  Uiso   1.00
H381   H     0.34946   0.21784   0.41102   0.00000  Uiso   1.00
H382   H     0.40233   0.21060   0.38236   0.00000  Uiso   1.00
C383   C     0.38435   0.29318   0.58515   0.00000  Uiso   1.00
C384   C     0.36894   0.25438   0.62051   0.00000  Uiso   1.00
H385   H     0.35385   0.27033   0.65444   0.00000  Uiso   1.00
H386   H     0.34379   0.23138   0.60226   0.00000  Uiso   1.00
H387   H     0.39794   0.23244   0.63171   0.00000  Uiso   1.00
H388   H     0.40767   0.31652   0.60610   0.00000  Uiso   1.00
H389   H     0.35579   0.31581   0.57430   0.00000  Uiso   1.00
C390   C     0.11694   0.22023   0.59070   0.00000  Uiso   1.00
C391   C     0.12052   0.16670   0.59413   0.00000  Uiso   1.00
H392   H     0.13975   0.15247   0.56202   0.00000  Uiso   1.00
H393   H     0.13802   0.15695   0.62923   0.00000  Uiso   1.00
H394   H     0.08673   0.15052   0.59438   0.00000  Uiso   1.00
H395   H     0.15080   0.23590   0.59360   0.00000  Uiso   1.00
H396   H     0.09805   0.23359   0.62351   0.00000  Uiso   1.00
H397   H     0.18809   0.03477   0.45840   0.00000  Uiso   1.00
H398   H     0.28197   0.46529   0.57248   0.00000  Uiso   1.00
H399   H     0.31193   0.03501   0.54164   0.00000  Uiso   1.00
H400   H     0.21813   0.46498   0.42750   0.00000  Uiso   1.00
O401   O     0.68453   0.28974   0.50000   0.00000  Uiso   1.00
O402   O     0.81547   0.21026   0.50000   0.00000  Uiso   1.00
O403   O     0.81547   0.28974   0.50000   0.00000  Uiso   1.00
O404   O     0.68453   0.21026   0.50000   0.00000  Uiso   1.00
C405   C     0.66414   0.24998   0.49996   0.00000  Uiso   1.00
C406   C     0.83599   0.25000   0.50038   0.00000  Uiso   1.00
O407   O     0.75000   0.28973   0.42845   0.00000  Uiso   1.00
O408   O     0.75000   0.21027   0.57155   0.00000  Uiso   1.00
O409   O     0.75000   0.28973   0.57155   0.00000  Uiso   1.00
O410   O     0.75000   0.21027   0.42845   0.00000  Uiso   1.00
C411   C     0.71574   0.05257   0.47644   0.00000  Uiso   1.00
C412   C     0.76818   0.44748   0.54016   0.00000  Uiso   1.00
C413   C     0.78428   0.05271   0.52359   0.00000  Uiso   1.00
C414   C     0.73188   0.44731   0.45984   0.00000  Uiso   1.00
C415   C     0.75001   0.24997   0.40618   0.00000  Uiso   1.00
C416   C     0.74968   0.25004   0.59382   0.00000  Uiso   1.00
Zn417  Zn    0.75000   0.30307   0.50000   0.00000  Uiso   1.00
Zn418  Zn    0.75000   0.19693   0.50000   0.00000  Uiso   1.00
N419   N     0.75000   0.12623   0.50000   0.00000  Uiso   1.00
N420   N     0.75000   0.37376   0.50000   0.00000  Uiso   1.00
C421   C     0.75001   0.02670   0.50001   0.00000  Uiso   1.00
C422   C     0.75002   0.47333   0.50001   0.00000  Uiso   1.00
C423   C     0.74976   0.24995   0.35511   0.00000  Uiso   1.00
C424   C     0.74962   0.25006   0.64489   0.00000  Uiso   1.00
C425   C     0.54714   0.26462   0.45707   0.00000  Uiso   1.00
C426   C     0.95319   0.22751   0.46117   0.00000  Uiso   1.00
C427   C     0.95364   0.27234   0.53853   0.00000  Uiso   1.00
C428   C     0.54714   0.23479   0.54213   0.00000  Uiso   1.00
H429   H     0.52875   0.27630   0.42441   0.00000  Uiso   1.00
H430   H     0.97145   0.20994   0.43151   0.00000  Uiso   1.00
H431   H     0.97237   0.28927   0.56829   0.00000  Uiso   1.00
H432   H     0.52876   0.22305   0.57471   0.00000  Uiso   1.00
C433   C     0.59345   0.26461   0.45644   0.00000  Uiso   1.00
C434   C     0.90687   0.22727   0.46074   0.00000  Uiso   1.00
C435   C     0.90732   0.27222   0.53975   0.00000  Uiso   1.00
C436   C     0.59344   0.23497   0.54299   0.00000  Uiso   1.00
C437   C     0.61643   0.24989   0.49980   0.00000  Uiso   1.00
C438   C     0.88394   0.24994   0.50022   0.00000  Uiso   1.00
C439   C     0.52433   0.24977   0.49958   0.00000  Uiso   1.00
C440   C     0.97621   0.25004   0.49964   0.00000  Uiso   1.00
C441   C     0.71643   0.10218   0.47678   0.00000  Uiso   1.00
C442   C     0.76795   0.39787   0.53933   0.00000  Uiso   1.00
C443   C     0.78356   0.10231   0.52326   0.00000  Uiso   1.00
C444   C     0.73213   0.39771   0.46063   0.00000  Uiso   1.00
H445   H     0.68989   0.12148   0.45852   0.00000  Uiso   1.00
H446   H     0.78210   0.37863   0.57041   0.00000  Uiso   1.00
H447   H     0.81006   0.12171   0.54157   0.00000  Uiso   1.00
H448   H     0.71812   0.37835   0.42947   0.00000  Uiso   1.00
C449   C     0.61695   0.27954   0.40889   0.00000  Uiso   1.00
C450   C     0.61898   0.33312   0.40486   0.00000  Uiso   1.00
H451   H     0.63664   0.34833   0.43766   0.00000  Uiso   1.00
H452   H     0.63733   0.34312   0.37045   0.00000  Uiso   1.00
H453   H     0.58475   0.34809   0.40291   0.00000  Uiso   1.00
H454   H     0.65131   0.26506   0.40668   0.00000  Uiso   1.00
H455   H     0.59878   0.26516   0.37600   0.00000  Uiso   1.00
C456   C     0.88348   0.20349   0.41719   0.00000  Uiso   1.00
C457   C     0.88086   0.15025   0.42476   0.00000  Uiso   1.00
H458   H     0.86256   0.14179   0.45963   0.00000  Uiso   1.00
H459   H     0.86295   0.13390   0.39276   0.00000  Uiso   1.00
H460   H     0.91494   0.13493   0.42690   0.00000  Uiso   1.00
H461   H     0.84946   0.21784   0.41102   0.00000  Uiso   1.00
H462   H     0.90233   0.21060   0.38236   0.00000  Uiso   1.00
C463   C     0.88435   0.29318   0.58515   0.00000  Uiso   1.00
C464   C     0.86894   0.25438   0.62051   0.00000  Uiso   1.00
H465   H     0.85385   0.27033   0.65444   0.00000  Uiso   1.00
H466   H     0.84379   0.23138   0.60226   0.00000  Uiso   1.00
H467   H     0.89794   0.23244   0.63171   0.00000  Uiso   1.00
H468   H     0.90767   0.31652   0.60610   0.00000  Uiso   1.00
H469   H     0.85579   0.31581   0.57430   0.00000  Uiso   1.00
C470   C     0.61694   0.22023   0.59070   0.00000  Uiso   1.00
C471   C     0.62052   0.16670   0.59413   0.00000  Uiso   1.00
H472   H     0.63975   0.15247   0.56202   0.00000  Uiso   1.00
H473   H     0.63802   0.15695   0.62923   0.00000  Uiso   1.00
H474   H     0.58673   0.15052   0.59438   0.00000  Uiso   1.00
H475   H     0.65080   0.23590   0.59360   0.00000  Uiso   1.00
H476   H     0.59805   0.23359   0.62351   0.00000  Uiso   1.00
H477   H     0.68809   0.03477   0.45840   0.00000  Uiso   1.00
H478   H     0.78197   0.46529   0.57248   0.00000  Uiso   1.00
H479   H     0.81193   0.03501   0.54164   0.00000  Uiso   1.00
H480   H     0.71813   0.46498   0.42750   0.00000  Uiso   1.00
O481   O     0.18453   0.78974   0.50000   0.00000  Uiso   1.00
O482   O     0.31547   0.71026   0.50000   0.00000  Uiso   1.00
O483   O     0.31547   0.78974   0.50000   0.00000  Uiso   1.00
O484   O     0.18453   0.71026   0.50000   0.00000  Uiso   1.00
C485   C     0.16414   0.74998   0.49996   0.00000  Uiso   1.00
C486   C     0.33599   0.75000   0.50038   0.00000  Uiso   1.00
O487   O     0.25000   0.78973   0.42845   0.00000  Uiso   1.00
O488   O     0.25000   0.71027   0.57155   0.00000  Uiso   1.00
O489   O     0.25000   0.78973   0.57155   0.00000  Uiso   1.00
O490   O     0.25000   0.71027   0.42845   0.00000  Uiso   1.00
C491   C     0.21574   0.55257   0.47644   0.00000  Uiso   1.00
C492   C     0.26818   0.94748   0.54016   0.00000  Uiso   1.00
C493   C     0.28428   0.55271   0.52359   0.00000  Uiso   1.00
C494   C     0.23188   0.94731   0.45984   0.00000  Uiso   1.00
C495   C     0.25001   0.74997   0.40618   0.00000  Uiso   1.00
C496   C     0.24968   0.75004   0.59382   0.00000  Uiso   1.00
Zn497  Zn    0.25000   0.80307   0.50000   0.00000  Uiso   1.00
Zn498  Zn    0.25000   0.69693   0.50000   0.00000  Uiso   1.00
N499   N     0.25000   0.62623   0.50000   0.00000  Uiso   1.00
N500   N     0.25000   0.87376   0.50000   0.00000  Uiso   1.00
C501   C     0.25001   0.52670   0.50001   0.00000  Uiso   1.00
C502   C     0.25002   0.97333   0.50001   0.00000  Uiso   1.00
C503   C     0.24976   0.74995   0.35511   0.00000  Uiso   1.00
C504   C     0.24962   0.75006   0.64489   0.00000  Uiso   1.00
C505   C     0.04714   0.76462   0.45707   0.00000  Uiso   1.00
C506   C     0.45319   0.72751   0.46117   0.00000  Uiso   1.00
C507   C     0.45364   0.77234   0.53853   0.00000  Uiso   1.00
C508   C     0.04714   0.73479   0.54213   0.00000  Uiso   1.00
H509   H     0.02875   0.77630   0.42441   0.00000  Uiso   1.00
H510   H     0.47145   0.70994   0.43151   0.00000  Uiso   1.00
H511   H     0.47237   0.78927   0.56829   0.00000  Uiso   1.00
H512   H     0.02876   0.72305   0.57471   0.00000  Uiso   1.00
C513   C     0.09345   0.76461   0.45644   0.00000  Uiso   1.00
C514   C     0.40687   0.72727   0.46074   0.00000  Uiso   1.00
C515   C     0.40732   0.77222   0.53975   0.00000  Uiso   1.00
C516   C     0.09344   0.73497   0.54299   0.00000  Uiso   1.00
C517   C     0.11643   0.74989   0.49980   0.00000  Uiso   1.00
C518   C     0.38394   0.74994   0.50022   0.00000  Uiso   1.00
C519   C     0.02433   0.74977   0.49958   0.00000  Uiso   1.00
C520   C     0.47621   0.75004   0.49964   0.00000  Uiso   1.00
C521   C     0.21643   0.60218   0.47678   0.00000  Uiso   1.00
C522   C     0.26795   0.89787   0.53933   0.00000  Uiso   1.00
C523   C     0.28356   0.60231   0.52326   0.00000  Uiso   1.00
C524   C     0.23213   0.89771   0.46063   0.00000  Uiso   1.00
H525   H     0.18989   0.62148   0.45852   0.00000  Uiso   1.00
H526   H     0.28210   0.87863   0.57041   0.00000  Uiso   1.00
H527   H     0.31006   0.62171   0.54157   0.00000  Uiso   1.00
H528   H     0.21812   0.87835   0.42947   0.00000  Uiso   1.00
C529   C     0.11695   0.77954   0.40889   0.00000  Uiso   1.00
C530   C     0.11898   0.83312   0.40486   0.00000  Uiso   1.00
H531   H     0.13664   0.84833   0.43766   0.00000  Uiso   1.00
H532   H     0.13733   0.84312   0.37045   0.00000  Uiso   1.00
H533   H     0.08475   0.84809   0.40291   0.00000  Uiso   1.00
H534   H     0.15131   0.76506   0.40668   0.00000  Uiso   1.00
H535   H     0.09878   0.76516   0.37600   0.00000  Uiso   1.00
C536   C     0.38348   0.70349   0.41719   0.00000  Uiso   1.00
C537   C     0.38086   0.65025   0.42476   0.00000  Uiso   1.00
H538   H     0.36256   0.64179   0.45963   0.00000  Uiso   1.00
H539   H     0.36295   0.63390   0.39276   0.00000  Uiso   1.00
H540   H     0.41494   0.63493   0.42690   0.00000  Uiso   1.00
H541   H     0.34946   0.71784   0.41102   0.00000  Uiso   1.00
H542   H     0.40233   0.71060   0.38236   0.00000  Uiso   1.00
C543   C     0.38435   0.79318   0.58515   0.00000  Uiso   1.00
C544   C     0.36894   0.75438   0.62051   0.00000  Uiso   1.00
H545   H     0.35385   0.77033   0.65444   0.00000  Uiso   1.00
H546   H     0.34379   0.73138   0.60226   0.00000  Uiso   1.00
H547   H     0.39794   0.73244   0.63171   0.00000  Uiso   1.00
H548   H     0.40767   0.81652   0.60610   0.00000  Uiso   1.00
H549   H     0.35579   0.81581   0.57430   0.00000  Uiso   1.00
C550   C     0.11694   0.72023   0.59070   0.00000  Uiso   1.00
C551   C     0.12052   0.66670   0.59413   0.00000  Uiso   1.00
H552   H     0.13975   0.65247   0.56202   0.00000  Uiso   1.00
H553   H     0.13802   0.65695   0.62923   0.00000  Uiso   1.00
H554   H     0.08673   0.65052   0.59438   0.00000  Uiso   1.00
H555   H     0.15080   0.73590   0.59360   0.00000  Uiso   1.00
H556   H     0.09805   0.73359   0.62351   0.00000  Uiso   1.00
H557   H     0.18809   0.53477   0.45840   0.00000  Uiso   1.00
H558   H     0.28197   0.96529   0.57248   0.00000  Uiso   1.00
H559   H     0.31193   0.53501   0.54164   0.00000  Uiso   1.00
H560   H     0.21813   0.96498   0.42750   0.00000  Uiso   1.00
O561   O     0.68453   0.78974   0.50000   0.00000  Uiso   1.00
O562   O     0.81547   0.71026   0.50000   0.00000  Uiso   1.00
O563   O     0.81547   0.78974   0.50000   0.00000  Uiso   1.00
O564   O     0.68453   0.71026   0.50000   0.00000  Uiso   1.00
C565   C     0.66414   0.74998   0.49996   0.00000  Uiso   1.00
C566   C     0.83599   0.75000   0.50038   0.00000  Uiso   1.00
O567   O     0.75000   0.78973   0.42845   0.00000  Uiso   1.00
O568   O     0.75000   0.71027   0.57155   0.00000  Uiso   1.00
O569   O     0.75000   0.78973   0.57155   0.00000  Uiso   1.00
O570   O     0.75000   0.71027   0.42845   0.00000  Uiso   1.00
C571   C     0.71574   0.55257   0.47644   0.00000  Uiso   1.00
C572   C     0.76818   0.94748   0.54016   0.00000  Uiso   1.00
C573   C     0.78428   0.55271   0.52359   0.00000  Uiso   1.00
C574   C     0.73188   0.94731   0.45984   0.00000  Uiso   1.00
C575   C     0.75001   0.74997   0.40618   0.00000  Uiso   1.00
C576   C     0.74968   0.75004   0.59382   0.00000  Uiso   1.00
Zn577  Zn    0.75000   0.80307   0.50000   0.00000  Uiso   1.00
Zn578  Zn    0.75000   0.69693   0.50000   0.00000  Uiso   1.00
N579   N     0.75000   0.62623   0.50000   0.00000  Uiso   1.00
N580   N     0.75000   0.87376   0.50000   0.00000  Uiso   1.00
C581   C     0.75001   0.52670   0.50001   0.00000  Uiso   1.00
C582   C     0.75002   0.97333   0.50001   0.00000  Uiso   1.00
C583   C     0.74976   0.74995   0.35511   0.00000  Uiso   1.00
C584   C     0.74962   0.75006   0.64489   0.00000  Uiso   1.00
C585   C     0.54714   0.76462   0.45707   0.00000  Uiso   1.00
C586   C     0.95319   0.72751   0.46117   0.00000  Uiso   1.00
C587   C     0.95364   0.77234   0.53853   0.00000  Uiso   1.00
C588   C     0.54714   0.73479   0.54213   0.00000  Uiso   1.00
H589   H     0.52875   0.77630   0.42441   0.00000  Uiso   1.00
H590   H     0.97145   0.70994   0.43151   0.00000  Uiso   1.00
H591   H     0.97237   0.78927   0.56829   0.00000  Uiso   1.00
H592   H     0.52876   0.72305   0.57471   0.00000  Uiso   1.00
C593   C     0.59345   0.76461   0.45644   0.00000  Uiso   1.00
C594   C     0.90687   0.72727   0.46074   0.00000  Uiso   1.00
C595   C     0.90732   0.77222   0.53975   0.00000  Uiso   1.00
C596   C     0.59344   0.73497   0.54299   0.00000  Uiso   1.00
C597   C     0.61643   0.74989   0.49980   0.00000  Uiso   1.00
C598   C     0.88394   0.74994   0.50022   0.00000  Uiso   1.00
C599   C     0.52433   0.74977   0.49958   0.00000  Uiso   1.00
C600   C     0.97621   0.75004   0.49964   0.00000  Uiso   1.00
C601   C     0.71643   0.60218   0.47678   0.00000  Uiso   1.00
C602   C     0.76795   0.89787   0.53933   0.00000  Uiso   1.00
C603   C     0.78356   0.60231   0.52326   0.00000  Uiso   1.00
C604   C     0.73213   0.89771   0.46063   0.00000  Uiso   1.00
H605   H     0.68989   0.62148   0.45852   0.00000  Uiso   1.00
H606   H     0.78210   0.87863   0.57041   0.00000  Uiso   1.00
H607   H     0.81006   0.62171   0.54157   0.00000  Uiso   1.00
H608   H     0.71812   0.87835   0.42947   0.00000  Uiso   1.00
C609   C     0.61695   0.77954   0.40889   0.00000  Uiso   1.00
C610   C     0.61898   0.83312   0.40486   0.00000  Uiso   1.00
H611   H     0.63664   0.84833   0.43766   0.00000  Uiso   1.00
H612   H     0.63733   0.84312   0.37045   0.00000  Uiso   1.00
H613   H     0.58475   0.84809   0.40291   0.00000  Uiso   1.00
H614   H     0.65131   0.76506   0.40668   0.00000  Uiso   1.00
H615   H     0.59878   0.76516   0.37600   0.00000  Uiso   1.00
C616   C     0.88348   0.70349   0.41719   0.00000  Uiso   1.00
C617   C     0.88086   0.65025   0.42476   0.00000  Uiso   1.00
H618   H     0.86256   0.64179   0.45963   0.00000  Uiso   1.00
H619   H     0.86295   0.63390   0.39276   0.00000  Uiso   1.00
H620   H     0.91494   0.63493   0.42690   0.00000  Uiso   1.00
H621   H     0.84946   0.71784   0.41102   0.00000  Uiso   1.00
H622   H     0.90233   0.71060   0.38236   0.00000  Uiso   1.00
C623   C     0.88435   0.79318   0.58515   0.00000  Uiso   1.00
C624   C     0.86894   0.75438   0.62051   0.00000  Uiso   1.00
H625   H     0.85385   0.77033   0.65444   0.00000  Uiso   1.00
H626   H     0.84379   0.73138   0.60226   0.00000  Uiso   1.00
H627   H     0.89794   0.73244   0.63171   0.00000  Uiso   1.00
H628   H     0.90767   0.81652   0.60610   0.00000  Uiso   1.00
H629   H     0.85579   0.81581   0.57430   0.00000  Uiso   1.00
C630   C     0.61694   0.72023   0.59070   0.00000  Uiso   1.00
C631   C     0.62052   0.66670   0.59413   0.00000  Uiso   1.00
H632   H     0.63975   0.65247   0.56202   0.00000  Uiso   1.00
H633   H     0.63802   0.65695   0.62923   0.00000  Uiso   1.00
H634   H     0.58673   0.65052   0.59438   0.00000  Uiso   1.00
H635   H     0.65080   0.73590   0.59360   0.00000  Uiso   1.00
H636   H     0.59805   0.73359   0.62351   0.00000  Uiso   1.00
H637   H     0.68809   0.53477   0.45840   0.00000  Uiso   1.00
H638   H     0.78197   0.96529   0.57248   0.00000  Uiso   1.00
H639   H     0.81193   0.53501   0.54164   0.00000  Uiso   1.00
H640   H     0.71813   0.96498   0.42750   0.00000  Uiso   1.00
O641   O     0.18453   0.28974   0.83334   0.00000  Uiso   1.00
O642   O     0.31547   0.21026   0.83333   0.00000  Uiso   1.00
O643   O     0.31547   0.28974   0.83333   0.00000  Uiso   1.00
O644   O     0.18453   0.21026   0.83334   0.00000  Uiso   1.00
C645   C     0.16414   0.24998   0.83329   0.00000  Uiso   1.00
C646   C     0.33599   0.25000   0.83371   0.00000  Uiso   1.00
O647   O     0.25000   0.28973   0.76178   0.00000  Uiso   1.00
O648   O     0.25000   0.21027   0.90489   0.00000  Uiso   1.00
O649   O     0.25000   0.28973   0.90489   0.00000  Uiso   1.00
O650   O     0.25000   0.21027   0.76178   0.00000  Uiso   1.00
C651   C     0.21574   0.05257   0.80977   0.00000  Uiso   1.00
C652   C     0.26818   0.44748   0.87349   0.00000  Uiso   1.00
C653   C     0.28428   0.05271   0.85692   0.00000  Uiso   1.00
C654   C     0.23188   0.44731   0.79317   0.00000  Uiso   1.00
C655   C     0.25001   0.24997   0.73951   0.00000  Uiso   1.00
C656   C     0.24968   0.25004   0.92715   0.00000  Uiso   1.00
Zn657  Zn    0.25000   0.30307   0.83333   0.00000  Uiso   1.00
Zn658  Zn    0.25000   0.19693   0.83333   0.00000  Uiso   1.00
N659   N     0.25000   0.12623   0.83333   0.00000  Uiso   1.00
N660   N     0.25000   0.37376   0.83333   0.00000  Uiso   1.00
C661   C     0.25001   0.02670   0.83334   0.00000  Uiso   1.00
C662   C     0.25002   0.47333   0.83334   0.00000  Uiso   1.00
C663   C     0.24976   0.24995   0.68845   0.00000  Uiso   1.00
C664   C     0.24962   0.25006   0.97822   0.00000  Uiso   1.00
C665   C     0.04714   0.26462   0.79040   0.00000  Uiso   1.00
C666   C     0.45319   0.22751   0.79450   0.00000  Uiso   1.00
C667   C     0.45364   0.27234   0.87186   0.00000  Uiso   1.00
C668   C     0.04714   0.23479   0.87546   0.00000  Uiso   1.00
H669   H     0.02875   0.27630   0.75775   0.00000  Uiso   1.00
H670   H     0.47145   0.20994   0.76484   0.00000  Uiso   1.00
H671   H     0.47237   0.28927   0.90162   0.00000  Uiso   1.00
H672   H     0.02876   0.22305   0.90804   0.00000  Uiso   1.00
C673   C     0.09345   0.26461   0.78978   0.00000  Uiso   1.00
C674   C     0.40687   0.22727   0.79407   0.00000  Uiso   1.00
C675   C     0.40732   0.27222   0.87308   0.00000  Uiso   1.00
C676   C     0.09344   0.23497   0.87632   0.00000  Uiso   1.00
C677   C     0.11643   0.24989   0.83314   0.00000  Uiso   1.00
C678   C     0.38394   0.24994   0.83356   0.00000  Uiso   1.00
C679   C     0.02433   0.24977   0.83291   0.00000  Uiso   1.00
C680   C     0.47621   0.25004   0.83297   0.00000  Uiso   1.00
C681   C     0.21643   0.10218   0.81012   0.00000  Uiso   1.00
C682   C     0.26795   0.39787   0.87267   0.00000  Uiso   1.00
C683   C     0.28356   0.10231   0.85660   0.00000  Uiso   1.00
C684   C     0.23213   0.39771   0.79397   0.00000  Uiso   1.00
H685   H     0.18989   0.12148   0.79185   0.00000  Uiso   1.00
H686   H     0.28210   0.37863   0.90374   0.00000  Uiso   1.00
H687   H     0.31006   0.12171   0.87490   0.00000  Uiso   1.00
H688   H     0.21812   0.37835   0.76281   0.00000  Uiso   1.00
C689   C     0.11695   0.27954   0.74223   0.00000  Uiso   1.00
C690   C     0.11898   0.33312   0.73820   0.00000  Uiso   1.00
H691   H     0.13664   0.34833   0.77100   0.00000  Uiso   1.00
H692   H     0.13733   0.34312   0.70378   0.00000  Uiso   1.00
H693   H     0.08475   0.34809   0.73625   0.00000  Uiso   1.00
H694   H     0.15131   0.26506   0.74001   0.00000  Uiso   1.00
H695   H     0.09878   0.26516   0.70933   0.00000  Uiso   1.00
C696   C     0.38348   0.20349   0.75053   0.00000  Uiso   1.00
C697   C     0.38086   0.15025   0.75809   0.00000  Uiso   1.00
H698   H     0.36256   0.14179   0.79297   0.00000  Uiso   1.00
H699   H     0.36295   0.13390   0.72609   0.00000  Uiso   1.00
H700   H     0.41494   0.13493   0.76023   0.00000  Uiso   1.00
H701   H     0.34946   0.21784   0.74436   0.00000  Uiso   1.00
H702   H     0.40233   0.21060   0.71569   0.00000  Uiso   1.00
C703   C     0.38435   0.29318   0.91849   0.00000  Uiso   1.00
C704   C     0.36894   0.25438   0.95384   0.00000  Uiso   1.00
H705   H     0.35385   0.27033   0.98778   0.00000  Uiso   1.00
H706   H     0.34379   0.23138   0.93560   0.00000  Uiso   1.00
H707   H     0.39794   0.23244   0.96504   0.00000  Uiso   1.00
H708   H     0.40767   0.31652   0.93943   0.00000  Uiso   1.00
H709   H     0.35579   0.31581   0.90764   0.00000  Uiso   1.00
C710   C     0.11694   0.22023   0.92403   0.00000  Uiso   1.00
C711   C     0.12052   0.16670   0.92746   0.00000  Uiso   1.00
H712   H     0.13975   0.15247   0.89535   0.00000  Uiso   1.00
H713   H     0.13802   0.15695   0.96256   0.00000  Uiso   1.00
H714   H     0.08673   0.15052   0.92771   0.00000  Uiso   1.00
H715   H     0.15080   0.23590   0.92694   0.00000  Uiso   1.00
H716   H     0.09805   0.23359   0.95684   0.00000  Uiso   1.00
H717   H     0.18809   0.03477   0.79173   0.00000  Uiso   1.00
H718   H     0.28197   0.46529   0.90582   0.00000  Uiso   1.00
H719   H     0.31193   0.03501   0.87498   0.00000  Uiso   1.00
H720   H     0.21813   0.46498   0.76083   0.00000  Uiso   1.00
O721   O     0.68453   0.28974   0.83334   0.00000  Uiso   1.00
O722   O     0.81547   0.21026   0.83333   0.00000  Uiso   1.00
O723   O     0.81547   0.28974   0.83333   0.00000  Uiso   1.00
O724   O     0.68453   0.21026   0.83334   0.00000  Uiso   1.00
C725   C     0.66414   0.24998   0.83329   0.00000  Uiso   1.00
C726   C     0.83599   0.25000   0.83371   0.00000  Uiso   1.00
O727   O     0.75000   0.28973   0.76178   0.00000  Uiso   1.00
O728   O     0.75000   0.21027   0.90489   0.00000  Uiso   1.00
O729   O     0.75000   0.28973   0.90489   0.00000  Uiso   1.00
O730   O     0.75000   0.21027   0.76178   0.00000  Uiso   1.00
C731   C     0.71574   0.05257   0.80977   0.00000  Uiso   1.00
C732   C     0.76818   0.44748   0.87349   0.00000  Uiso   1.00
C733   C     0.78428   0.05271   0.85692   0.00000  Uiso   1.00
C734   C     0.73188   0.44731   0.79317   0.00000  Uiso   1.00
C735   C     0.75001   0.24997   0.73951   0.00000  Uiso   1.00
C736   C     0.74968   0.25004   0.92715   0.00000  Uiso   1.00
Zn737  Zn    0.75000   0.30307   0.83333   0.00000  Uiso   1.00
Zn738  Zn    0.75000   0.19693   0.83333   0.00000  Uiso   1.00
N739   N     0.75000   0.12623   0.83333   0.00000  Uiso   1.00
N740   N     0.75000   0.37376   0.83333   0.00000  Uiso   1.00
C741   C     0.75001   0.02670   0.83334   0.00000  Uiso   1.00
C742   C     0.75002   0.47333   0.83334   0.00000  Uiso   1.00
C743   C     0.74976   0.24995   0.68845   0.00000  Uiso   1.00
C744   C     0.74962   0.25006   0.97822   0.00000  Uiso   1.00
C745   C     0.54714   0.26462   0.79040   0.00000  Uiso   1.00
C746   C     0.95319   0.22751   0.79450   0.00000  Uiso   1.00
C747   C     0.95364   0.27234   0.87186   0.00000  Uiso   1.00
C748   C     0.54714   0.23479   0.87546   0.00000  Uiso   1.00
H749   H     0.52875   0.27630   0.75775   0.00000  Uiso   1.00
H750   H     0.97145   0.20994   0.76484   0.00000  Uiso   1.00
H751   H     0.97237   0.28927   0.90162   0.00000  Uiso   1.00
H752   H     0.52876   0.22305   0.90804   0.00000  Uiso   1.00
C753   C     0.59345   0.26461   0.78978   0.00000  Uiso   1.00
C754   C     0.90687   0.22727   0.79407   0.00000  Uiso   1.00
C755   C     0.90732   0.27222   0.87308   0.00000  Uiso   1.00
C756   C     0.59344   0.23497   0.87632   0.00000  Uiso   1.00
C757   C     0.61643   0.24989   0.83314   0.00000  Uiso   1.00
C758   C     0.88394   0.24994   0.83356   0.00000  Uiso   1.00
C759   C     0.52433   0.24977   0.83291   0.00000  Uiso   1.00
C760   C     0.97621   0.25004   0.83297   0.00000  Uiso   1.00
C761   C     0.71643   0.10218   0.81012   0.00000  Uiso   1.00
C762   C     0.76795   0.39787   0.87267   0.00000  Uiso   1.00
C763   C     0.78356   0.10231   0.85660   0.00000  Uiso   1.00
C764   C     0.73213   0.39771   0.79397   0.00000  Uiso   1.00
H765   H     0.68989   0.12148   0.79185   0.00000  Uiso   1.00
H766   H     0.78210   0.37863   0.90374   0.00000  Uiso   1.00
H767   H     0.81006   0.12171   0.87490   0.00000  Uiso   1.00
H768   H     0.71812   0.37835   0.76281   0.00000  Uiso   1.00
C769   C     0.61695   0.27954   0.74223   0.00000  Uiso   1.00
C770   C     0.61898   0.33312   0.73820   0.00000  Uiso   1.00
H771   H     0.63664   0.34833   0.77100   0.00000  Uiso   1.00
H772   H     0.63733   0.34312   0.70378   0.00000  Uiso   1.00
H773   H     0.58475   0.34809   0.73625   0.00000  Uiso   1.00
H774   H     0.65131   0.26506   0.74001   0.00000  Uiso   1.00
H775   H     0.59878   0.26516   0.70933   0.00000  Uiso   1.00
C776   C     0.88348   0.20349   0.75053   0.00000  Uiso   1.00
C777   C     0.88086   0.15025   0.75809   0.00000  Uiso   1.00
H778   H     0.86256   0.14179   0.79297   0.00000  Uiso   1.00
H779   H     0.86295   0.13390   0.72609   0.00000  Uiso   1.00
H780   H     0.91494   0.13493   0.76023   0.00000  Uiso   1.00
H781   H     0.84946   0.21784   0.74436   0.00000  Uiso   1.00
H782   H     0.90233   0.21060   0.71569   0.00000  Uiso   1.00
C783   C     0.88435   0.29318   0.91849   0.00000  Uiso   1.00
C784   C     0.86894   0.25438   0.95384   0.00000  Uiso   1.00
H785   H     0.85385   0.27033   0.98778   0.00000  Uiso   1.00
H786   H     0.84379   0.23138   0.93560   0.00000  Uiso   1.00
H787   H     0.89794   0.23244   0.96504   0.00000  Uiso   1.00
H788   H     0.90767   0.31652   0.93943   0.00000  Uiso   1.00
H789   H     0.85579   0.31581   0.90764   0.00000  Uiso   1.00
C790   C     0.61694   0.22023   0.92403   0.00000  Uiso   1.00
C791   C     0.62052   0.16670   0.92746   0.00000  Uiso   1.00
H792   H     0.63975   0.15247   0.89535   0.00000  Uiso   1.00
H793   H     0.63802   0.15695   0.96256   0.00000  Uiso   1.00
H794   H     0.58673   0.15052   0.92771   0.00000  Uiso   1.00
H795   H     0.65080   0.23590   0.92694   0.00000  Uiso   1.00
H796   H     0.59805   0.23359   0.95684   0.00000  Uiso   1.00
H797   H     0.68809   0.03477   0.79173   0.00000  Uiso   1.00
H798   H     0.78197   0.46529   0.90582   0.00000  Uiso   1.00
H799   H     0.81193   0.03501   0.87498   0.00000  Uiso   1.00
H800   H     0.71813   0.46498   0.76083   0.00000  Uiso   1.00
O801   O     0.18453   0.78974   0.83334   0.00000  Uiso   1.00
O802   O     0.31547   0.71026   0.83333   0.00000  Uiso   1.00
O803   O     0.31547   0.78974   0.83333   0.00000  Uiso   1.00
O804   O     0.18453   0.71026   0.83334   0.00000  Uiso   1.00
C805   C     0.16414   0.74998   0.83329   0.00000  Uiso   1.00
C806   C     0.33599   0.75000   0.83371   0.00000  Uiso   1.00
O807   O     0.25000   0.78973   0.76178   0.00000  Uiso   1.00
O808   O     0.25000   0.71027   0.90489   0.00000  Uiso   1.00
O809   O     0.25000   0.78973   0.90489   0.00000  Uiso   1.00
O810   O     0.25000   0.71027   0.76178   0.00000  Uiso   1.00
C811   C     0.21574   0.55257   0.80977   0.00000  Uiso   1.00
C812   C     0.26818   0.94748   0.87349   0.00000  Uiso   1.00
C813   C     0.28428   0.55271   0.85692   0.00000  Uiso   1.00
C814   C     0.23188   0.94731   0.79317   0.00000  Uiso   1.00
C815   C     0.25001   0.74997   0.73951   0.00000  Uiso   1.00
C816   C     0.24968   0.75004   0.92715   0.00000  Uiso   1.00
Zn817  Zn    0.25000   0.80307   0.83333   0.00000  Uiso   1.00
Zn818  Zn    0.25000   0.69693   0.83333   0.00000  Uiso   1.00
N819   N     0.25000   0.62623   0.83333   0.00000  Uiso   1.00
N820   N     0.25000   0.87376   0.83333   0.00000  Uiso   1.00
C821   C     0.25001   0.52670   0.83334   0.00000  Uiso   1.00
C822   C     0.25002   0.97333   0.83334   0.00000  Uiso   1.00
C823   C     0.24976   0.74995   0.68845   0.00000  Uiso   1.00
C824   C     0.24962   0.75006   0.97822   0.00000  Uiso   1.00
C825   C     0.04714   0.76462   0.79040   0.00000  Uiso   1.00
C826   C     0.45319   0.72751   0.79450   0.00000  Uiso   1.00
C827   C     0.45364   0.77234   0.87186   0.00000  Uiso   1.00
C828   C     0.04714   0.73479   0.87546   0.00000  Uiso   1.00
H829   H     0.02875   0.77630   0.75775   0.00000  Uiso   1.00
H830   H     0.47145   0.70994   0.76484   0.00000  Uiso   1.00
H831   H     0.47237   0.78927   0.90162   0.00000  Uiso   1.00
H832   H     0.02876   0.72305   0.90804   0.00000  Uiso   1.00
C833   C     0.09345   0.76461   0.78978   0.00000  Uiso   1.00
C834   C     0.40687   0.72727   0.79407   0.00000  Uiso   1.00
C835   C     0.40732   0.77222   0.87308   0.00000  Uiso   1.00
C836   C     0.09344   0.73497   0.87632   0.00000  Uiso   1.00
C837   C     0.11643   0.74989   0.83314   0.00000  Uiso   1.00
C838   C     0.38394   0.74994   0.83356   0.00000  Uiso   1.00
C839   C     0.02433   0.74977   0.83291   0.00000  Uiso   1.00
C840   C     0.47621   0.75004   0.83297   0.00000  Uiso   1.00
C841   C     0.21643   0.60218   0.81012   0.00000  Uiso   1.00
C842   C     0.26795   0.89787   0.87267   0.00000  Uiso   1.00
C843   C     0.28356   0.60231   0.85660   0.00000  Uiso   1.00
C844   C     0.23213   0.89771   0.79397   0.00000  Uiso   1.00
H845   H     0.18989   0.62148   0.79185   0.00000  Uiso   1.00
H846   H     0.28210   0.87863   0.90374   0.00000  Uiso   1.00
H847   H     0.31006   0.62171   0.87490   0.00000  Uiso   1.00
H848   H     0.21812   0.87835   0.76281   0.00000  Uiso   1.00
C849   C     0.11695   0.77954   0.74223   0.00000  Uiso   1.00
C850   C     0.11898   0.83312   0.73820   0.00000  Uiso   1.00
H851   H     0.13664   0.84833   0.77100   0.00000  Uiso   1.00
H852   H     0.13733   0.84312   0.70378   0.00000  Uiso   1.00
H853   H     0.08475   0.84809   0.73625   0.00000  Uiso   1.00
H854   H     0.15131   0.76506   0.74001   0.00000  Uiso   1.00
H855   H     0.09878   0.76516   0.70933   0.00000  Uiso   1.00
C856   C     0.38348   0.70349   0.75053   0.00000  Uiso   1.00
C857   C     0.38086   0.65025   0.75809   0.00000  Uiso   1.00
H858   H     0.36256   0.64179   0.79297   0.00000  Uiso   1.00
H859   H     0.36295   0.63390   0.72609   0.00000  Uiso   1.00
H860   H     0.41494   0.63493   0.76023   0.00000  Uiso   1.00
H861   H     0.34946   0.71784   0.74436   0.00000  Uiso   1.00
H862   H     0.40233   0.71060   0.71569   0.00000  Uiso   1.00
C863   C     0.38435   0.79318   0.91849   0.00000  Uiso   1.00
C864   C     0.36894   0.75438   0.95384   0.00000  Uiso   1.00
H865   H     0.35385   0.77033   0.98778   0.00000  Uiso   1.00
H866   H     0.34379   0.73138   0.93560   0.00000  Uiso   1.00
H867   H     0.39794   0.73244   0.96504   0.00000  Uiso   1.00
H868   H     0.40767   0.81652   0.93943   0.00000  Uiso   1.00
H869   H     0.35579   0.81581   0.90764   0.00000  Uiso   1.00
C870   C     0.11694   0.72023   0.92403   0.00000  Uiso   1.00
C871   C     0.12052   0.66670   0.92746   0.00000  Uiso   1.00
H872   H     0.13975   0.65247   0.89535   0.00000  Uiso   1.00
H873   H     0.13802   0.65695   0.96256   0.00000  Uiso   1.00
H874   H     0.08673   0.65052   0.92771   0.00000  Uiso   1.00
H875   H     0.15080   0.73590   0.92694   0.00000  Uiso   1.00
H876   H     0.09805   0.73359   0.95684   0.00000  Uiso   1.00
H877   H     0.18809   0.53477   0.79173   0.00000  Uiso   1.00
H878   H     0.28197   0.96529   0.90582   0.00000  Uiso   1.00
H879   H     0.31193   0.53501   0.87498   0.00000  Uiso   1.00
H880   H     0.21813   0.96498   0.76083   0.00000  Uiso   1.00
O881   O     0.68453   0.78974   0.83334   0.00000  Uiso   1.00
O882   O     0.81547   0.71026   0.83333   0.00000  Uiso   1.00
O883   O     0.81547   0.78974   0.83333   0.00000  Uiso   1.00
O884   O     0.68453   0.71026   0.83334   0.00000  Uiso   1.00
C885   C     0.66414   0.74998   0.83329   0.00000  Uiso   1.00
C886   C     0.83599   0.75000   0.83371   0.00000  Uiso   1.00
O887   O     0.75000   0.78973   0.76178   0.00000  Uiso   1.00
O888   O     0.75000   0.71027   0.90489   0.00000  Uiso   1.00
O889   O     0.75000   0.78973   0.90489   0.00000  Uiso   1.00
O890   O     0.75000   0.71027   0.76178   0.00000  Uiso   1.00
C891   C     0.71574   0.55257   0.80977   0.00000  Uiso   1.00
C892   C     0.76818   0.94748   0.87349   0.00000  Uiso   1.00
C893   C     0.78428   0.55271   0.85692   0.00000  Uiso   1.00
C894   C     0.73188   0.94731   0.79317   0.00000  Uiso   1.00
C895   C     0.75001   0.74997   0.73951   0.00000  Uiso   1.00
C896   C     0.74968   0.75004   0.92715   0.00000  Uiso   1.00
Zn897  Zn    0.75000   0.80307   0.83333   0.00000  Uiso   1.00
Zn898  Zn    0.75000   0.69693   0.83333   0.00000  Uiso   1.00
N899   N     0.75000   0.62623   0.83333   0.00000  Uiso   1.00
N900   N     0.75000   0.87376   0.83333   0.00000  Uiso   1.00
C901   C     0.75001   0.52670   0.83334   0.00000  Uiso   1.00
C902   C     0.75002   0.97333   0.83334   0.00000  Uiso   1.00
C903   C     0.74976   0.74995   0.68845   0.00000  Uiso   1.00
C904   C     0.74962   0.75006   0.97822   0.00000  Uiso   1.00
C905   C     0.54714   0.76462   0.79040   0.00000  Uiso   1.00
C906   C     0.95319   0.72751   0.79450   0.00000  Uiso   1.00
C907   C     0.95364   0.77234   0.87186   0.00000  Uiso   1.00
C908   C     0.54714   0.73479   0.87546   0.00000  Uiso   1.00
H909   H     0.52875   0.77630   0.75775   0.00000  Uiso   1.00
H910   H     0.97145   0.70994   0.76484   0.00000  Uiso   1.00
H911   H     0.97237   0.78927   0.90162   0.00000  Uiso   1.00
H912   H     0.52876   0.72305   0.90804   0.00000  Uiso   1.00
C913   C     0.59345   0.76461   0.78978   0.00000  Uiso   1.00
C914   C     0.90687   0.72727   0.79407   0.00000  Uiso   1.00
C915   C     0.90732   0.77222   0.87308   0.00000  Uiso   1.00
C916   C     0.59344   0.73497   0.87632   0.00000  Uiso   1.00
C917   C     0.61643   0.74989   0.83314   0.00000  Uiso   1.00
C918   C     0.88394   0.74994   0.83356   0.00000  Uiso   1.00
C919   C     0.52433   0.74977   0.83291   0.00000  Uiso   1.00
C920   C     0.97621   0.75004   0.83297   0.00000  Uiso   1.00
C921   C     0.71643   0.60218   0.81012   0.00000  Uiso   1.00
C922   C     0.76795   0.89787   0.87267   0.00000  Uiso   1.00
C923   C     0.78356   0.60231   0.85660   0.00000  Uiso   1.00
C924   C     0.73213   0.89771   0.79397   0.00000  Uiso   1.00
H925   H     0.68989   0.62148   0.79185   0.00000  Uiso   1.00
H926   H     0.78210   0.87863   0.90374   0.00000  Uiso   1.00
H927   H     0.81006   0.62171   0.87490   0.00000  Uiso   1.00
H928   H     0.71812   0.87835   0.76281   0.00000  Uiso   1.00
C929   C     0.61695   0.77954   0.74223   0.00000  Uiso   1.00
C930   C     0.61898   0.83312   0.73820   0.00000  Uiso   1.00
H931   H     0.63664   0.84833   0.77100   0.00000  Uiso   1.00
H932   H     0.63733   0.84312   0.70378   0.00000  Uiso   1.00
H933   H     0.58475   0.84809   0.73625   0.00000  Uiso   1.00
H934   H     0.65131   0.76506   0.74001   0.00000  Uiso   1.00
H935   H     0.59878   0.76516   0.70933   0.00000  Uiso   1.00
C936   C     0.88348   0.70349   0.75053   0.00000  Uiso   1.00
C937   C     0.88086   0.65025   0.75809   0.00000  Uiso   1.00
H938   H     0.86256   0.64179   0.79297   0.00000  Uiso   1.00
H939   H     0.86295   0.63390   0.72609   0.00000  Uiso   1.00
H940   H     0.91494   0.63493   0.76023   0.00000  Uiso   1.00
H941   H     0.84946   0.71784   0.74436   0.00000  Uiso   1.00
H942   H     0.90233   0.71060   0.71569   0.00000  Uiso   1.00
C943   C     0.88435   0.79318   0.91849   0.00000  Uiso   1.00
C944   C     0.86894   0.75438   0.95384   0.00000  Uiso   1.00
H945   H     0.85385   0.77033   0.98778   0.00000  Uiso   1.00
H946   H     0.84379   0.73138   0.93560   0.00000  Uiso   1.00
H947   H     0.89794   0.73244   0.96504   0.00000  Uiso   1.00
H948   H     0.90767   0.81652   0.93943   0.00000  Uiso   1.00
H949   H     0.85579   0.81581   0.90764   0.00000  Uiso   1.00
C950   C     0.61694   0.72023   0.92403   0.00000  Uiso   1.00
C951   C     0.62052   0.66670   0.92746   0.00000  Uiso   1.00
H952   H     0.63975   0.65247   0.89535   0.00000  Uiso   1.00
H953   H     0.63802   0.65695   0.96256   0.00000  Uiso   1.00
H954   H     0.58673   0.65052   0.92771   0.00000  Uiso   1.00
H955   H     0.65080   0.73590   0.92694   0.00000  Uiso   1.00
H956   H     0.59805   0.73359   0.95684   0.00000  Uiso   1.00
H957   H     0.68809   0.53477   0.79173   0.00000  Uiso   1.00
H958   H     0.78197   0.96529   0.90582   0.00000  Uiso   1.00
H959   H     0.81193   0.53501   0.87498   0.00000  Uiso   1.00
H960   H     0.71813   0.96498   0.76083   0.00000  Uiso   1.00
loop_
_geom_bond_atom_site_label_1
_geom_bond_atom_site_label_2
_geom_bond_distance
_geom_bond_site_symmetry_2
_ccdc_geom_bond_type
O1     C5      1.282   .     A
O1     Zn17    1.996   .     S
O2     Zn18    1.996   .     S
O2     C6      1.284   .     A
O3     C6      1.284   .     A
O3     Zn17    1.997   .     S
O4     Zn18    1.997   .     S
O4     C5      1.282   .     A
C5     C37     1.429   .     S
C6     C38     1.436   .     S
O7     Zn17    1.951   .     S
O7     C15     1.275   .     A
O8     C16     1.275   .     A
O8     Zn18    1.951   .     S
O9     C16     1.275   .     A
O9     Zn17    1.953   .     S
O10    C15     1.275   .     A
O10    Zn18    1.953   .     S
C11    H77     1.082   .     S
C11    C41     1.407   .     A
C11    C21     1.411   .     A
C12    C22     1.411   .     A
C12    C42     1.407   .     A
C12    H78     1.082   .     S
C13    H79     1.082   .     S
C13    C21     1.411   .     A
C13    C43     1.407   .     A
C14    H80     1.082   .     S
C14    C44     1.407   .     A
C14    C22     1.411   .     A
C15    C23     1.367   .     S
C16    C24     1.367   .     S
Zn17   N20     2.006   .     S
Zn18   N19     2.006   .     S
N19    C43     1.363   .     A
N19    C41     1.363   .     A
N20    C44     1.364   .     A
N20    C42     1.364   .     A
C21    C182    1.514   1_545 S
C22    C181    1.514   .     S
C23    C664    1.166   1_554 S
C24    C343    1.166   .     S
C25    H29     1.085   .     S
C25    C39     1.394   .     A
C25    C33     1.387   .     A
C26    C34     1.387   .     A
C26    H30     1.085   .     S
C26    C40     1.392   .     A
C27    H31     1.085   .     S
C27    C35     1.387   .     A
C27    C40     1.393   .     A
C28    H32     1.085   .     S
C28    C39     1.394   .     A
C28    C36     1.386   .     A
C33    C49     1.516   .     S
C33    C37     1.412   .     A
C34    C56     1.516   .     S
C34    C38     1.415   .     A
C35    C38     1.415   .     A
C35    C63     1.517   .     S
C36    C37     1.412   .     A
C36    C70     1.516   .     S
C39    C120    1.441   1_455 S
C40    C119    1.441   .     S
C41    H45     1.082   .     S
C42    H46     1.082   .     S
C43    H47     1.082   .     S
C44    H48     1.081   .     S
C49    H54     1.109   .     S
C49    H55     1.111   .     S
C49    C50     1.525   .     S
C50    H52     1.110   .     S
C50    H53     1.111   .     S
C50    H51     1.110   .     S
C56    C57     1.526   .     S
C56    H62     1.109   .     S
C56    H61     1.110   .     S
C57    H59     1.110   .     S
C57    H60     1.111   .     S
C57    H58     1.110   .     S
C63    H69     1.108   .     S
C63    H68     1.112   .     S
C63    C64     1.525   .     S
C64    H67     1.110   .     S
C64    H66     1.109   .     S
C64    H65     1.110   .     S
C70    C71     1.525   .     S
C70    H76     1.111   .     S
C70    H75     1.109   .     S
C71    H73     1.110   .     S
C71    H74     1.111   .     S
C71    H72     1.110   .     S
O81    C85     1.282   .     A
O81    Zn97    1.996   .     S
O82    Zn98    1.996   .     S
O82    C86     1.284   .     A
O83    C86     1.284   .     A
O83    Zn97    1.997   .     S
O84    Zn98    1.997   .     S
O84    C85     1.282   .     A
C85    C117    1.429   .     S
C86    C118    1.436   .     S
O87    Zn97    1.951   .     S
O87    C95     1.275   .     A
O88    C96     1.275   .     A
O88    Zn98    1.951   .     S
O89    C96     1.275   .     A
O89    Zn97    1.953   .     S
O90    C95     1.275   .     A
O90    Zn98    1.953   .     S
C91    H157    1.082   .     S
C91    C121    1.407   .     A
C91    C101    1.411   .     A
C92    C102    1.411   .     A
C92    C122    1.407   .     A
C92    H158    1.082   .     S
C93    H159    1.082   .     S
C93    C101    1.411   .     A
C93    C123    1.407   .     A
C94    H160    1.082   .     S
C94    C124    1.407   .     A
C94    C102    1.411   .     A
C95    C103    1.367   .     S
C96    C104    1.367   .     S
Zn97   N100    2.006   .     S
Zn98   N99     2.006   .     S
N99    C123    1.363   .     A
N99    C121    1.363   .     A
N100   C124    1.364   .     A
N100   C122    1.364   .     A
C101   C262    1.514   1_545 S
C102   C261    1.514   .     S
C103   C744    1.166   1_554 S
C104   C423    1.166   .     S
C105   H109    1.085   .     S
C105   C119    1.394   .     A
C105   C113    1.387   .     A
C106   C114    1.387   .     A
C106   H110    1.085   .     S
C106   C120    1.392   .     A
C107   H111    1.085   .     S
C107   C115    1.387   .     A
C107   C120    1.393   .     A
C108   H112    1.085   .     S
C108   C119    1.394   .     A
C108   C116    1.386   .     A
C113   C129    1.516   .     S
C113   C117    1.412   .     A
C114   C136    1.516   .     S
C114   C118    1.415   .     A
C115   C118    1.415   .     A
C115   C143    1.517   .     S
C116   C117    1.412   .     A
C116   C150    1.516   .     S
C120   C39     1.441   1_655 S
C121   H125    1.082   .     S
C122   H126    1.082   .     S
C123   H127    1.082   .     S
C124   H128    1.081   .     S
C129   H134    1.109   .     S
C129   H135    1.111   .     S
C129   C130    1.525   .     S
C130   H132    1.110   .     S
C130   H133    1.111   .     S
C130   H131    1.110   .     S
C136   C137    1.526   .     S
C136   H142    1.109   .     S
C136   H141    1.110   .     S
C137   H139    1.110   .     S
C137   H140    1.111   .     S
C137   H138    1.110   .     S
C143   H149    1.108   .     S
C143   H148    1.112   .     S
C143   C144    1.525   .     S
C144   H147    1.110   .     S
C144   H146    1.109   .     S
C144   H145    1.110   .     S
C150   C151    1.525   .     S
C150   H156    1.111   .     S
C150   H155    1.109   .     S
C151   H153    1.110   .     S
C151   H154    1.111   .     S
C151   H152    1.110   .     S
O161   C165    1.282   .     A
O161   Zn177   1.996   .     S
O162   Zn178   1.996   .     S
O162   C166    1.284   .     A
O163   C166    1.284   .     A
O163   Zn177   1.997   .     S
O164   Zn178   1.997   .     S
O164   C165    1.282   .     A
C165   C197    1.429   .     S
C166   C198    1.436   .     S
O167   Zn177   1.951   .     S
O167   C175    1.275   .     A
O168   C176    1.275   .     A
O168   Zn178   1.951   .     S
O169   C176    1.275   .     A
O169   Zn177   1.953   .     S
O170   C175    1.275   .     A
O170   Zn178   1.953   .     S
C171   H237    1.082   .     S
C171   C201    1.407   .     A
C171   C181    1.411   .     A
C172   C182    1.411   .     A
C172   C202    1.407   .     A
C172   H238    1.082   .     S
C173   H239    1.082   .     S
C173   C181    1.411   .     A
C173   C203    1.407   .     A
C174   H240    1.082   .     S
C174   C204    1.407   .     A
C174   C182    1.411   .     A
C175   C183    1.367   .     S
C176   C184    1.367   .     S
Zn177  N180    2.006   .     S
Zn178  N179    2.006   .     S
N179   C203    1.363   .     A
N179   C201    1.363   .     A
N180   C204    1.364   .     A
N180   C202    1.364   .     A
C182   C21     1.514   1_565 S
C183   C824    1.166   1_554 S
C184   C503    1.166   .     S
C185   H189    1.085   .     S
C185   C199    1.394   .     A
C185   C193    1.387   .     A
C186   C194    1.387   .     A
C186   H190    1.085   .     S
C186   C200    1.392   .     A
C187   H191    1.085   .     S
C187   C195    1.387   .     A
C187   C200    1.393   .     A
C188   H192    1.085   .     S
C188   C199    1.394   .     A
C188   C196    1.386   .     A
C193   C209    1.516   .     S
C193   C197    1.412   .     A
C194   C216    1.516   .     S
C194   C198    1.415   .     A
C195   C198    1.415   .     A
C195   C223    1.517   .     S
C196   C197    1.412   .     A
C196   C230    1.516   .     S
C199   C280    1.441   1_455 S
C200   C279    1.441   .     S
C201   H205    1.082   .     S
C202   H206    1.082   .     S
C203   H207    1.082   .     S
C204   H208    1.081   .     S
C209   H214    1.109   .     S
C209   H215    1.111   .     S
C209   C210    1.525   .     S
C210   H212    1.110   .     S
C210   H213    1.111   .     S
C210   H211    1.110   .     S
C216   C217    1.526   .     S
C216   H222    1.109   .     S
C216   H221    1.110   .     S
C217   H219    1.110   .     S
C217   H220    1.111   .     S
C217   H218    1.110   .     S
C223   H229    1.108   .     S
C223   H228    1.112   .     S
C223   C224    1.525   .     S
C224   H227    1.110   .     S
C224   H226    1.109   .     S
C224   H225    1.110   .     S
C230   C231    1.525   .     S
C230   H236    1.111   .     S
C230   H235    1.109   .     S
C231   H233    1.110   .     S
C231   H234    1.111   .     S
C231   H232    1.110   .     S
O241   C245    1.282   .     A
O241   Zn257   1.996   .     S
O242   Zn258   1.996   .     S
O242   C246    1.284   .     A
O243   C246    1.284   .     A
O243   Zn257   1.997   .     S
O244   Zn258   1.997   .     S
O244   C245    1.282   .     A
C245   C277    1.429   .     S
C246   C278    1.436   .     S
O247   Zn257   1.951   .     S
O247   C255    1.275   .     A
O248   C256    1.275   .     A
O248   Zn258   1.951   .     S
O249   C256    1.275   .     A
O249   Zn257   1.953   .     S
O250   C255    1.275   .     A
O250   Zn258   1.953   .     S
C251   H317    1.082   .     S
C251   C281    1.407   .     A
C251   C261    1.411   .     A
C252   C262    1.411   .     A
C252   C282    1.407   .     A
C252   H318    1.082   .     S
C253   H319    1.082   .     S
C253   C261    1.411   .     A
C253   C283    1.407   .     A
C254   H320    1.082   .     S
C254   C284    1.407   .     A
C254   C262    1.411   .     A
C255   C263    1.367   .     S
C256   C264    1.367   .     S
Zn257  N260    2.006   .     S
Zn258  N259    2.006   .     S
N259   C283    1.363   .     A
N259   C281    1.363   .     A
N260   C284    1.364   .     A
N260   C282    1.364   .     A
C262   C101    1.514   1_565 S
C263   C904    1.166   1_554 S
C264   C583    1.166   .     S
C265   H269    1.085   .     S
C265   C279    1.394   .     A
C265   C273    1.387   .     A
C266   C274    1.387   .     A
C266   H270    1.085   .     S
C266   C280    1.392   .     A
C267   H271    1.085   .     S
C267   C275    1.387   .     A
C267   C280    1.393   .     A
C268   H272    1.085   .     S
C268   C279    1.394   .     A
C268   C276    1.386   .     A
C273   C289    1.516   .     S
C273   C277    1.412   .     A
C274   C296    1.516   .     S
C274   C278    1.415   .     A
C275   C278    1.415   .     A
C275   C303    1.517   .     S
C276   C277    1.412   .     A
C276   C310    1.516   .     S
C280   C199    1.441   1_655 S
C281   H285    1.082   .     S
C282   H286    1.082   .     S
C283   H287    1.082   .     S
C284   H288    1.081   .     S
C289   H294    1.109   .     S
C289   H295    1.111   .     S
C289   C290    1.525   .     S
C290   H292    1.110   .     S
C290   H293    1.111   .     S
C290   H291    1.110   .     S
C296   C297    1.526   .     S
C296   H302    1.109   .     S
C296   H301    1.110   .     S
C297   H299    1.110   .     S
C297   H300    1.111   .     S
C297   H298    1.110   .     S
C303   H309    1.108   .     S
C303   H308    1.112   .     S
C303   C304    1.525   .     S
C304   H307    1.110   .     S
C304   H306    1.109   .     S
C304   H305    1.110   .     S
C310   C311    1.525   .     S
C310   H316    1.111   .     S
C310   H315    1.109   .     S
C311   H313    1.110   .     S
C311   H314    1.111   .     S
C311   H312    1.110   .     S
O321   C325    1.282   .     A
O321   Zn337   1.996   .     S
O322   Zn338   1.996   .     S
O322   C326    1.284   .     A
O323   C326    1.284   .     A
O323   Zn337   1.997   .     S
O324   Zn338   1.997   .     S
O324   C325    1.282   .     A
C325   C357    1.429   .     S
C326   C358    1.436   .     S
O327   Zn337   1.951   .     S
O327   C335    1.275   .     A
O328   C336    1.275   .     A
O328   Zn338   1.951   .     S
O329   C336    1.275   .     A
O329   Zn337   1.953   .     S
O330   C335    1.275   .     A
O330   Zn338   1.953   .     S
C331   H397    1.082   .     S
C331   C361    1.407   .     A
C331   C341    1.411   .     A
C332   C342    1.411   .     A
C332   C362    1.407   .     A
C332   H398    1.082   .     S
C333   H399    1.082   .     S
C333   C341    1.411   .     A
C333   C363    1.407   .     A
C334   H400    1.082   .     S
C334   C364    1.407   .     A
C334   C342    1.411   .     A
C335   C343    1.367   .     S
C336   C344    1.367   .     S
Zn337  N340    2.006   .     S
Zn338  N339    2.006   .     S
N339   C363    1.363   .     A
N339   C361    1.363   .     A
N340   C364    1.364   .     A
N340   C362    1.364   .     A
C341   C502    1.514   1_545 S
C342   C501    1.514   .     S
C344   C663    1.166   .     S
C345   H349    1.085   .     S
C345   C359    1.394   .     A
C345   C353    1.387   .     A
C346   C354    1.387   .     A
C346   H350    1.085   .     S
C346   C360    1.392   .     A
C347   H351    1.085   .     S
C347   C355    1.387   .     A
C347   C360    1.393   .     A
C348   H352    1.085   .     S
C348   C359    1.394   .     A
C348   C356    1.386   .     A
C353   C369    1.516   .     S
C353   C357    1.412   .     A
C354   C376    1.516   .     S
C354   C358    1.415   .     A
C355   C358    1.415   .     A
C355   C383    1.517   .     S
C356   C357    1.412   .     A
C356   C390    1.516   .     S
C359   C440    1.441   1_455 S
C360   C439    1.441   .     S
C361   H365    1.082   .     S
C362   H366    1.082   .     S
C363   H367    1.082   .     S
C364   H368    1.081   .     S
C369   H374    1.109   .     S
C369   H375    1.111   .     S
C369   C370    1.525   .     S
C370   H372    1.110   .     S
C370   H373    1.111   .     S
C370   H371    1.110   .     S
C376   C377    1.526   .     S
C376   H382    1.109   .     S
C376   H381    1.110   .     S
C377   H379    1.110   .     S
C377   H380    1.111   .     S
C377   H378    1.110   .     S
C383   H389    1.108   .     S
C383   H388    1.112   .     S
C383   C384    1.525   .     S
C384   H387    1.110   .     S
C384   H386    1.109   .     S
C384   H385    1.110   .     S
C390   C391    1.525   .     S
C390   H396    1.111   .     S
C390   H395    1.109   .     S
C391   H393    1.110   .     S
C391   H394    1.111   .     S
C391   H392    1.110   .     S
O401   C405    1.282   .     A
O401   Zn417   1.996   .     S
O402   Zn418   1.996   .     S
O402   C406    1.284   .     A
O403   C406    1.284   .     A
O403   Zn417   1.997   .     S
O404   Zn418   1.997   .     S
O404   C405    1.282   .     A
C405   C437    1.429   .     S
C406   C438    1.436   .     S
O407   Zn417   1.951   .     S
O407   C415    1.275   .     A
O408   C416    1.275   .     A
O408   Zn418   1.951   .     S
O409   C416    1.275   .     A
O409   Zn417   1.953   .     S
O410   C415    1.275   .     A
O410   Zn418   1.953   .     S
C411   H477    1.082   .     S
C411   C441    1.407   .     A
C411   C421    1.411   .     A
C412   C422    1.411   .     A
C412   C442    1.407   .     A
C412   H478    1.082   .     S
C413   H479    1.082   .     S
C413   C421    1.411   .     A
C413   C443    1.407   .     A
C414   H480    1.082   .     S
C414   C444    1.407   .     A
C414   C422    1.411   .     A
C415   C423    1.367   .     S
C416   C424    1.367   .     S
Zn417  N420    2.006   .     S
Zn418  N419    2.006   .     S
N419   C443    1.363   .     A
N419   C441    1.363   .     A
N420   C444    1.364   .     A
N420   C442    1.364   .     A
C421   C582    1.514   1_545 S
C422   C581    1.514   .     S
C424   C743    1.166   .     S
C425   H429    1.085   .     S
C425   C439    1.394   .     A
C425   C433    1.387   .     A
C426   C434    1.387   .     A
C426   H430    1.085   .     S
C426   C440    1.392   .     A
C427   H431    1.085   .     S
C427   C435    1.387   .     A
C427   C440    1.393   .     A
C428   H432    1.085   .     S
C428   C439    1.394   .     A
C428   C436    1.386   .     A
C433   C449    1.516   .     S
C433   C437    1.412   .     A
C434   C456    1.516   .     S
C434   C438    1.415   .     A
C435   C438    1.415   .     A
C435   C463    1.517   .     S
C436   C437    1.412   .     A
C436   C470    1.516   .     S
C440   C359    1.441   1_655 S
C441   H445    1.082   .     S
C442   H446    1.082   .     S
C443   H447    1.082   .     S
C444   H448    1.081   .     S
C449   H454    1.109   .     S
C449   H455    1.111   .     S
C449   C450    1.525   .     S
C450   H452    1.110   .     S
C450   H453    1.111   .     S
C450   H451    1.110   .     S
C456   C457    1.526   .     S
C456   H462    1.109   .     S
C456   H461    1.110   .     S
C457   H459    1.110   .     S
C457   H460    1.111   .     S
C457   H458    1.110   .     S
C463   H469    1.108   .     S
C463   H468    1.112   .     S
C463   C464    1.525   .     S
C464   H467    1.110   .     S
C464   H466    1.109   .     S
C464   H465    1.110   .     S
C470   C471    1.525   .     S
C470   H476    1.111   .     S
C470   H475    1.109   .     S
C471   H473    1.110   .     S
C471   H474    1.111   .     S
C471   H472    1.110   .     S
O481   C485    1.282   .     A
O481   Zn497   1.996   .     S
O482   Zn498   1.996   .     S
O482   C486    1.284   .     A
O483   C486    1.284   .     A
O483   Zn497   1.997   .     S
O484   Zn498   1.997   .     S
O484   C485    1.282   .     A
C485   C517    1.429   .     S
C486   C518    1.436   .     S
O487   Zn497   1.951   .     S
O487   C495    1.275   .     A
O488   C496    1.275   .     A
O488   Zn498   1.951   .     S
O489   C496    1.275   .     A
O489   Zn497   1.953   .     S
O490   C495    1.275   .     A
O490   Zn498   1.953   .     S
C491   H557    1.082   .     S
C491   C521    1.407   .     A
C491   C501    1.411   .     A
C492   C502    1.411   .     A
C492   C522    1.407   .     A
C492   H558    1.082   .     S
C493   H559    1.082   .     S
C493   C501    1.411   .     A
C493   C523    1.407   .     A
C494   H560    1.082   .     S
C494   C524    1.407   .     A
C494   C502    1.411   .     A
C495   C503    1.367   .     S
C496   C504    1.367   .     S
Zn497  N500    2.006   .     S
Zn498  N499    2.006   .     S
N499   C523    1.363   .     A
N499   C521    1.363   .     A
N500   C524    1.364   .     A
N500   C522    1.364   .     A
C502   C341    1.514   1_565 S
C504   C823    1.166   .     S
C505   H509    1.085   .     S
C505   C519    1.394   .     A
C505   C513    1.387   .     A
C506   C514    1.387   .     A
C506   H510    1.085   .     S
C506   C520    1.392   .     A
C507   H511    1.085   .     S
C507   C515    1.387   .     A
C507   C520    1.393   .     A
C508   H512    1.085   .     S
C508   C519    1.394   .     A
C508   C516    1.386   .     A
C513   C529    1.516   .     S
C513   C517    1.412   .     A
C514   C536    1.516   .     S
C514   C518    1.415   .     A
C515   C518    1.415   .     A
C515   C543    1.517   .     S
C516   C517    1.412   .     A
C516   C550    1.516   .     S
C519   C600    1.441   1_455 S
C520   C599    1.441   .     S
C521   H525    1.082   .     S
C522   H526    1.082   .     S
C523   H527    1.082   .     S
C524   H528    1.081   .     S
C529   H534    1.109   .     S
C529   H535    1.111   .     S
C529   C530    1.525   .     S
C530   H532    1.110   .     S
C530   H533    1.111   .     S
C530   H531    1.110   .     S
C536   C537    1.526   .     S
C536   H542    1.109   .     S
C536   H541    1.110   .     S
C537   H539    1.110   .     S
C537   H540    1.111   .     S
C537   H538    1.110   .     S
C543   H549    1.108   .     S
C543   H548    1.112   .     S
C543   C544    1.525   .     S
C544   H547    1.110   .     S
C544   H546    1.109   .     S
C544   H545    1.110   .     S
C550   C551    1.525   .     S
C550   H556    1.111   .     S
C550   H555    1.109   .     S
C551   H553    1.110   .     S
C551   H554    1.111   .     S
C551   H552    1.110   .     S
O561   C565    1.282   .     A
O561   Zn577   1.996   .     S
O562   Zn578   1.996   .     S
O562   C566    1.284   .     A
O563   C566    1.284   .     A
O563   Zn577   1.997   .     S
O564   Zn578   1.997   .     S
O564   C565    1.282   .     A
C565   C597    1.429   .     S
C566   C598    1.436   .     S
O567   Zn577   1.951   .     S
O567   C575    1.275   .     A
O568   C576    1.275   .     A
O568   Zn578   1.951   .     S
O569   C576    1.275   .     A
O569   Zn577   1.953   .     S
O570   C575    1.275   .     A
O570   Zn578   1.953   .     S
C571   H637    1.082   .     S
C571   C601    1.407   .     A
C571   C581    1.411   .     A
C572   C582    1.411   .     A
C572   C602    1.407   .     A
C572   H638    1.082   .     S
C573   H639    1.082   .     S
C573   C581    1.411   .     A
C573   C603    1.407   .     A
C574   H640    1.082   .     S
C574   C604    1.407   .     A
C574   C582    1.411   .     A
C575   C583    1.367   .     S
C576   C584    1.367   .     S
Zn577  N580    2.006   .     S
Zn578  N579    2.006   .     S
N579   C603    1.363   .     A
N579   C601    1.363   .     A
N580   C604    1.364   .     A
N580   C602    1.364   .     A
C582   C421    1.514   1_565 S
C584   C903    1.166   .     S
C585   H589    1.085   .     S
C585   C599    1.394   .     A
C585   C593    1.387   .     A
C586   C594    1.387   .     A
C586   H590    1.085   .     S
C586   C600    1.392   .     A
C587   H591    1.085   .     S
C587   C595    1.387   .     A
C587   C600    1.393   .     A
C588   H592    1.085   .     S
C588   C599    1.394   .     A
C588   C596    1.386   .     A
C593   C609    1.516   .     S
C593   C597    1.412   .     A
C594   C616    1.516   .     S
C594   C598    1.415   .     A
C595   C598    1.415   .     A
C595   C623    1.517   .     S
C596   C597    1.412   .     A
C596   C630    1.516   .     S
C600   C519    1.441   1_655 S
C601   H605    1.082   .     S
C602   H606    1.082   .     S
C603   H607    1.082   .     S
C604   H608    1.081   .     S
C609   H614    1.109   .     S
C609   H615    1.111   .     S
C609   C610    1.525   .     S
C610   H612    1.110   .     S
C610   H613    1.111   .     S
C610   H611    1.110   .     S
C616   C617    1.526   .     S
C616   H622    1.109   .     S
C616   H621    1.110   .     S
C617   H619    1.110   .     S
C617   H620    1.111   .     S
C617   H618    1.110   .     S
C623   H629    1.108   .     S
C623   H628    1.112   .     S
C623   C624    1.525   .     S
C624   H627    1.110   .     S
C624   H626    1.109   .     S
C624   H625    1.110   .     S
C630   C631    1.525   .     S
C630   H636    1.111   .     S
C630   H635    1.109   .     S
C631   H633    1.110   .     S
C631   H634    1.111   .     S
C631   H632    1.110   .     S
O641   C645    1.282   .     A
O641   Zn657   1.996   .     S
O642   Zn658   1.996   .     S
O642   C646    1.284   .     A
O643   C646    1.284   .     A
O643   Zn657   1.997   .     S
O644   Zn658   1.997   .     S
O644   C645    1.282   .     A
C645   C677    1.429   .     S
C646   C678    1.436   .     S
O647   Zn657   1.951   .     S
O647   C655    1.275   .     A
O648   C656    1.275   .     A
O648   Zn658   1.951   .     S
O649   C656    1.275   .     A
O649   Zn657   1.953   .     S
O650   C655    1.275   .     A
O650   Zn658   1.953   .     S
C651   H717    1.082   .     S
C651   C681    1.407   .     A
C651   C661    1.411   .     A
C652   C662    1.411   .     A
C652   C682    1.407   .     A
C652   H718    1.082   .     S
C653   H719    1.082   .     S
C653   C661    1.411   .     A
C653   C683    1.407   .     A
C654   H720    1.082   .     S
C654   C684    1.407   .     A
C654   C662    1.411   .     A
C655   C663    1.367   .     S
C656   C664    1.367   .     S
Zn657  N660    2.006   .     S
Zn658  N659    2.006   .     S
N659   C683    1.363   .     A
N659   C681    1.363   .     A
N660   C684    1.364   .     A
N660   C682    1.364   .     A
C661   C822    1.514   1_545 S
C662   C821    1.514   .     S
C664   C23     1.166   1_556 S
C665   H669    1.085   .     S
C665   C679    1.394   .     A
C665   C673    1.387   .     A
C666   C674    1.387   .     A
C666   H670    1.085   .     S
C666   C680    1.392   .     A
C667   H671    1.085   .     S
C667   C675    1.387   .     A
C667   C680    1.393   .     A
C668   H672    1.085   .     S
C668   C679    1.394   .     A
C668   C676    1.386   .     A
C673   C689    1.516   .     S
C673   C677    1.412   .     A
C674   C696    1.516   .     S
C674   C678    1.415   .     A
C675   C678    1.415   .     A
C675   C703    1.517   .     S
C676   C677    1.412   .     A
C676   C710    1.516   .     S
C679   C760    1.441   1_455 S
C680   C759    1.441   .     S
C681   H685    1.082   .     S
C682   H686    1.082   .     S
C683   H687    1.082   .     S
C684   H688    1.081   .     S
C689   H694    1.109   .     S
C689   H695    1.111   .     S
C689   C690    1.525   .     S
C690   H692    1.110   .     S
C690   H693    1.111   .     S
C690   H691    1.110   .     S
C696   C697    1.526   .     S
C696   H702    1.109   .     S
C696   H701    1.110   .     S
C697   H699    1.110   .     S
C697   H700    1.111   .     S
C697   H698    1.110   .     S
C703   H709    1.108   .     S
C703   H708    1.112   .     S
C703   C704    1.525   .     S
C704   H707    1.110   .     S
C704   H706    1.109   .     S
C704   H705    1.110   .     S
C710   C711    1.525   .     S
C710   H716    1.111   .     S
C710   H715    1.109   .     S
C711   H713    1.110   .     S
C711   H714    1.111   .     S
C711   H712    1.110   .     S
O721   C725    1.282   .     A
O721   Zn737   1.996   .     S
O722   Zn738   1.996   .     S
O722   C726    1.284   .     A
O723   C726    1.284   .     A
O723   Zn737   1.997   .     S
O724   Zn738   1.997   .     S
O724   C725    1.282   .     A
C725   C757    1.429   .     S
C726   C758    1.436   .     S
O727   Zn737   1.951   .     S
O727   C735    1.275   .     A
O728   C736    1.275   .     A
O728   Zn738   1.951   .     S
O729   C736    1.275   .     A
O729   Zn737   1.953   .     S
O730   C735    1.275   .     A
O730   Zn738   1.953   .     S
C731   H797    1.082   .     S
C731   C761    1.407   .     A
C731   C741    1.411   .     A
C732   C742    1.411   .     A
C732   C762    1.407   .     A
C732   H798    1.082   .     S
C733   H799    1.082   .     S
C733   C741    1.411   .     A
C733   C763    1.407   .     A
C734   H800    1.082   .     S
C734   C764    1.407   .     A
C734   C742    1.411   .     A
C735   C743    1.367   .     S
C736   C744    1.367   .     S
Zn737  N740    2.006   .     S
Zn738  N739    2.006   .     S
N739   C763    1.363   .     A
N739   C761    1.363   .     A
N740   C764    1.364   .     A
N740   C762    1.364   .     A
C741   C902    1.514   1_545 S
C742   C901    1.514   .     S
C744   C103    1.166   1_556 S
C745   H749    1.085   .     S
C745   C759    1.394   .     A
C745   C753    1.387   .     A
C746   C754    1.387   .     A
C746   H750    1.085   .     S
C746   C760    1.392   .     A
C747   H751    1.085   .     S
C747   C755    1.387   .     A
C747   C760    1.393   .     A
C748   H752    1.085   .     S
C748   C759    1.394   .     A
C748   C756    1.386   .     A
C753   C769    1.516   .     S
C753   C757    1.412   .     A
C754   C776    1.516   .     S
C754   C758    1.415   .     A
C755   C758    1.415   .     A
C755   C783    1.517   .     S
C756   C757    1.412   .     A
C756   C790    1.516   .     S
C760   C679    1.441   1_655 S
C761   H765    1.082   .     S
C762   H766    1.082   .     S
C763   H767    1.082   .     S
C764   H768    1.081   .     S
C769   H774    1.109   .     S
C769   H775    1.111   .     S
C769   C770    1.525   .     S
C770   H772    1.110   .     S
C770   H773    1.111   .     S
C770   H771    1.110   .     S
C776   C777    1.526   .     S
C776   H782    1.109   .     S
C776   H781    1.110   .     S
C777   H779    1.110   .     S
C777   H780    1.111   .     S
C777   H778    1.110   .     S
C783   H789    1.108   .     S
C783   H788    1.112   .     S
C783   C784    1.525   .     S
C784   H787    1.110   .     S
C784   H786    1.109   .     S
C784   H785    1.110   .     S
C790   C791    1.525   .     S
C790   H796    1.111   .     S
C790   H795    1.109   .     S
C791   H793    1.110   .     S
C791   H794    1.111   .     S
C791   H792    1.110   .     S
O801   C805    1.282   .     A
O801   Zn817   1.996   .     S
O802   Zn818   1.996   .     S
O802   C806    1.284   .     A
O803   C806    1.284   .     A
O803   Zn817   1.997   .     S
O804   Zn818   1.997   .     S
O804   C805    1.282   .     A
C805   C837    1.429   .     S
C806   C838    1.436   .     S
O807   Zn817   1.951   .     S
O807   C815    1.275   .     A
O808   C816    1.275   .     A
O808   Zn818   1.951   .     S
O809   C816    1.275   .     A
O809   Zn817   1.953   .     S
O810   C815    1.275   .     A
O810   Zn818   1.953   .     S
C811   H877    1.082   .     S
C811   C841    1.407   .     A
C811   C821    1.411   .     A
C812   C822    1.411   .     A
C812   C842    1.407   .     A
C812   H878    1.082   .     S
C813   H879    1.082   .     S
C813   C821    1.411   .     A
C813   C843    1.407   .     A
C814   H880    1.082   .     S
C814   C844    1.407   .     A
C814   C822    1.411   .     A
C815   C823    1.367   .     S
C816   C824    1.367   .     S
Zn817  N820    2.006   .     S
Zn818  N819    2.006   .     S
N819   C843    1.363   .     A
N819   C841    1.363   .     A
N820   C844    1.364   .     A
N820   C842    1.364   .     A
C822   C661    1.514   1_565 S
C824   C183    1.166   1_556 S
C825   H829    1.085   .     S
C825   C839    1.394   .     A
C825   C833    1.387   .     A
C826   C834    1.387   .     A
C826   H830    1.085   .     S
C826   C840    1.392   .     A
C827   H831    1.085   .     S
C827   C835    1.387   .     A
C827   C840    1.393   .     A
C828   H832    1.085   .     S
C828   C839    1.394   .     A
C828   C836    1.386   .     A
C833   C849    1.516   .     S
C833   C837    1.412   .     A
C834   C856    1.516   .     S
C834   C838    1.415   .     A
C835   C838    1.415   .     A
C835   C863    1.517   .     S
C836   C837    1.412   .     A
C836   C870    1.516   .     S
C839   C920    1.441   1_455 S
C840   C919    1.441   .     S
C841   H845    1.082   .     S
C842   H846    1.082   .     S
C843   H847    1.082   .     S
C844   H848    1.081   .     S
C849   H854    1.109   .     S
C849   H855    1.111   .     S
C849   C850    1.525   .     S
C850   H852    1.110   .     S
C850   H853    1.111   .     S
C850   H851    1.110   .     S
C856   C857    1.526   .     S
C856   H862    1.109   .     S
C856   H861    1.110   .     S
C857   H859    1.110   .     S
C857   H860    1.111   .     S
C857   H858    1.110   .     S
C863   H869    1.108   .     S
C863   H868    1.112   .     S
C863   C864    1.525   .     S
C864   H867    1.110   .     S
C864   H866    1.109   .     S
C864   H865    1.110   .     S
C870   C871    1.525   .     S
C870   H876    1.111   .     S
C870   H875    1.109   .     S
C871   H873    1.110   .     S
C871   H874    1.111   .     S
C871   H872    1.110   .     S
O881   C885    1.282   .     A
O881   Zn897   1.996   .     S
O882   Zn898   1.996   .     S
O882   C886    1.284   .     A
O883   C886    1.284   .     A
O883   Zn897   1.997   .     S
O884   Zn898   1.997   .     S
O884   C885    1.282   .     A
C885   C917    1.429   .     S
C886   C918    1.436   .     S
O887   Zn897   1.951   .     S
O887   C895    1.275   .     A
O888   C896    1.275   .     A
O888   Zn898   1.951   .     S
O889   C896    1.275   .     A
O889   Zn897   1.953   .     S
O890   C895    1.275   .     A
O890   Zn898   1.953   .     S
C891   H957    1.082   .     S
C891   C921    1.407   .     A
C891   C901    1.411   .     A
C892   C902    1.411   .     A
C892   C922    1.407   .     A
C892   H958    1.082   .     S
C893   H959    1.082   .     S
C893   C901    1.411   .     A
C893   C923    1.407   .     A
C894   H960    1.082   .     S
C894   C924    1.407   .     A
C894   C902    1.411   .     A
C895   C903    1.367   .     S
C896   C904    1.367   .     S
Zn897  N900    2.006   .     S
Zn898  N899    2.006   .     S
N899   C923    1.363   .     A
N899   C921    1.363   .     A
N900   C924    1.364   .     A
N900   C922    1.364   .     A
C902   C741    1.514   1_565 S
C904   C263    1.166   1_556 S
C905   H909    1.085   .     S
C905   C919    1.394   .     A
C905   C913    1.387   .     A
C906   C914    1.387   .     A
C906   H910    1.085   .     S
C906   C920    1.392   .     A
C907   H911    1.085   .     S
C907   C915    1.387   .     A
C907   C920    1.393   .     A
C908   H912    1.085   .     S
C908   C919    1.394   .     A
C908   C916    1.386   .     A
C913   C929    1.516   .     S
C913   C917    1.412   .     A
C914   C936    1.516   .     S
C914   C918    1.415   .     A
C915   C918    1.415   .     A
C915   C943    1.517   .     S
C916   C917    1.412   .     A
C916   C950    1.516   .     S
C920   C839    1.441   1_655 S
C921   H925    1.082   .     S
C922   H926    1.082   .     S
C923   H927    1.082   .     S
C924   H928    1.081   .     S
C929   H934    1.109   .     S
C929   H935    1.111   .     S
C929   C930    1.525   .     S
C930   H932    1.110   .     S
C930   H933    1.111   .     S
C930   H931    1.110   .     S
C936   C937    1.526   .     S
C936   H942    1.109   .     S
C936   H941    1.110   .     S
C937   H939    1.110   .     S
C937   H940    1.111   .     S
C937   H938    1.110   .     S
C943   H949    1.108   .     S
C943   H948    1.112   .     S
C943   C944    1.525   .     S
C944   H947    1.110   .     S
C944   H946    1.109   .     S
C944   H945    1.110   .     S
C950   C951    1.525   .     S
C950   H956    1.111   .     S
C950   H955    1.109   .     S
C951   H953    1.110   .     S
C951   H954    1.111   .     S
C951   H952    1.110   .     S
