data_str_m1_o1_o17_pcu_sym.28
_audit_creation_date              2020-01-03
_audit_creation_method            'Materials Studio'
_symmetry_space_group_name_H-M    'P1'
_symmetry_Int_Tables_number       1
_symmetry_cell_setting            triclinic
loop_
_symmetry_equiv_pos_as_xyz
  x,y,z
_cell_length_a                    36.6672
_cell_length_b                    36.6673
_cell_length_c                    34.4627
_cell_angle_alpha                 89.9886
_cell_angle_beta                  90.0253
_cell_angle_gamma                 89.9997
loop_
_atom_site_label
_atom_site_type_symbol
_atom_site_fract_x
_atom_site_fract_y
_atom_site_fract_z
_atom_site_U_iso_or_equiv
_atom_site_adp_type
_atom_site_occupancy
C1     C     0.02250   0.27521   0.41857   0.00000  Uiso   1.00
C2     C     0.22750   0.47479   0.08143   0.00000  Uiso   1.00
C3     C     0.22334   0.02063   0.54086   0.00000  Uiso   1.00
C4     C     0.02236   0.27511   0.45924   0.00000  Uiso   1.00
C5     C     0.47682   0.22589   0.54096   0.00000  Uiso   1.00
C6     C     0.22334   0.02062   0.45910   0.00000  Uiso   1.00
C7     C     0.27508   0.47814   0.54101   0.00000  Uiso   1.00
C8     C     0.22740   0.47516   0.95894   0.00000  Uiso   1.00
C9     C     0.27306   0.02405   0.04097   0.00000  Uiso   1.00
C10    C     0.02770   0.23092   0.95912   0.00000  Uiso   1.00
C11    C     0.47288   0.26946   0.04080   0.00000  Uiso   1.00
C12    C     0.27319   0.02411   0.95904   0.00000  Uiso   1.00
C13    C     0.47334   0.26958   0.91801   0.00000  Uiso   1.00
C14    C     0.22764   0.47490   0.04076   0.00000  Uiso   1.00
C15    C     0.47311   0.26973   0.95889   0.00000  Uiso   1.00
C16    C     0.02763   0.23104   0.04092   0.00000  Uiso   1.00
C17    C     0.09813   0.34814   0.25001   0.00000  Uiso   1.00
C18    C     0.40187   0.15187   0.74999   0.00000  Uiso   1.00
C19    C     0.15186   0.09812   0.25001   0.00000  Uiso   1.00
C20    C     0.34814   0.40188   0.75000   0.00000  Uiso   1.00
C21    C     0.40187   0.15187   0.25000   0.00000  Uiso   1.00
C22    C     0.09813   0.34814   0.75000   0.00000  Uiso   1.00
C23    C     0.34813   0.40187   0.25001   0.00000  Uiso   1.00
C24    C     0.02756   0.23096   0.08163   0.00000  Uiso   1.00
C25    C     0.15186   0.09813   0.74999   0.00000  Uiso   1.00
C26    C     0.09813   0.15187   0.75001   0.00000  Uiso   1.00
C27    C     0.40186   0.34813   0.24999   0.00000  Uiso   1.00
C28    C     0.15187   0.40186   0.75001   0.00000  Uiso   1.00
C29    C     0.34812   0.09814   0.24999   0.00000  Uiso   1.00
C30    C     0.40186   0.34812   0.75000   0.00000  Uiso   1.00
C31    C     0.09814   0.15188   0.25000   0.00000  Uiso   1.00
C32    C     0.34813   0.09814   0.75001   0.00000  Uiso   1.00
C33    C     0.15187   0.40186   0.24999   0.00000  Uiso   1.00
C34    C     0.49964   0.25049   0.47957   0.00000  Uiso   1.00
C35    C     0.22734   0.47545   0.91810   0.00000  Uiso   1.00
C36    C     0.49967   0.25042   0.52059   0.00000  Uiso   1.00
C37    C     0.24920   0.49933   0.47949   0.00000  Uiso   1.00
C38    C     0.24920   0.49934   0.52051   0.00000  Uiso   1.00
C39    C     0.25033   0.49959   0.97942   0.00000  Uiso   1.00
C40    C     0.25036   0.49951   0.02043   0.00000  Uiso   1.00
C41    C     0.00036   0.25033   0.97943   0.00000  Uiso   1.00
C42    C     0.00030   0.25029   0.02044   0.00000  Uiso   1.00
C43    C     0.27266   0.02407   0.08184   0.00000  Uiso   1.00
C44    C     0.02767   0.23064   0.91843   0.00000  Uiso   1.00
C45    C     0.47270   0.26930   0.08152   0.00000  Uiso   1.00
C46    C     0.00010   0.25044   0.39820   0.00000  Uiso   1.00
C47    C     0.49992   0.25009   0.60187   0.00000  Uiso   1.00
C48    C     0.24948  -0.00000   0.39815   0.00000  Uiso   1.00
C49    C     0.47701   0.22584   0.58181   0.00000  Uiso   1.00
C50    C     0.24950   0.00001   0.60185   0.00000  Uiso   1.00
C51    C     0.25008   0.49991   0.89813   0.00000  Uiso   1.00
C52    C     0.24990   0.49956   0.10180   0.00000  Uiso   1.00
C53    C     0.00042   0.24995   0.89811   0.00000  Uiso   1.00
C54    C     0.00006   0.25006   0.10183   0.00000  Uiso   1.00
C55    C     0.45447   0.20186   0.47980   0.00000  Uiso   1.00
C56    C     0.04489   0.29908   0.52026   0.00000  Uiso   1.00
C57    C     0.30042   0.45714   0.47990   0.00000  Uiso   1.00
C58    C     0.19776   0.04137   0.52009   0.00000  Uiso   1.00
C59    C     0.04472   0.29924   0.48003   0.00000  Uiso   1.00
C60    C     0.22345   0.02095   0.41842   0.00000  Uiso   1.00
C61    C     0.45438   0.20186   0.52005   0.00000  Uiso   1.00
C62    C     0.19776   0.04136   0.47985   0.00000  Uiso   1.00
C63    C     0.30042   0.45714   0.52017   0.00000  Uiso   1.00
C64    C     0.20511   0.45092   0.97974   0.00000  Uiso   1.00
C65    C     0.29553   0.04814   0.02020   0.00000  Uiso   1.00
C66    C     0.05464   0.21203   0.97996   0.00000  Uiso   1.00
C67    C     0.44607   0.28853   0.01999   0.00000  Uiso   1.00
C68    C     0.29562   0.04814   0.97995   0.00000  Uiso   1.00
C69    C     0.20528   0.45076   0.01997   0.00000  Uiso   1.00
C70    C     0.44620   0.28873   0.97971   0.00000  Uiso   1.00
C71    C     0.27513   0.47855   0.58188   0.00000  Uiso   1.00
C72    C     0.05463   0.21212   0.02023   0.00000  Uiso   1.00
C73    C     0.24977   0.00002   0.35581   0.00000  Uiso   1.00
C74    C     0.24978   0.00002   0.64419   0.00000  Uiso   1.00
C75    C     0.00004   0.25024   0.35582   0.00000  Uiso   1.00
C76    C     0.49998   0.24999   0.64420   0.00000  Uiso   1.00
C77    C     0.00024   0.24997   0.85579   0.00000  Uiso   1.00
C78    C     0.49998   0.25001   0.14419   0.00000  Uiso   1.00
C79    C     0.25001   0.00001   0.85580   0.00000  Uiso   1.00
C80    C     0.24996   0.49976   0.14418   0.00000  Uiso   1.00
C81    C     0.17993   0.07005   0.25001   0.00000  Uiso   1.00
C82    C     0.47734   0.22592   0.41816   0.00000  Uiso   1.00
C83    C     0.32007   0.42994   0.75000   0.00000  Uiso   1.00
C84    C     0.42994   0.17994   0.25000   0.00000  Uiso   1.00
C85    C     0.07006   0.32006   0.75000   0.00000  Uiso   1.00
C86    C     0.32006   0.42994   0.25001   0.00000  Uiso   1.00
C87    C     0.17994   0.07006   0.74999   0.00000  Uiso   1.00
C88    C     0.07006   0.32007   0.25001   0.00000  Uiso   1.00
C89    C     0.42994   0.17994   0.74999   0.00000  Uiso   1.00
C90    C     0.17994   0.42994   0.75000   0.00000  Uiso   1.00
C91    C     0.32006   0.07006   0.25000   0.00000  Uiso   1.00
C92    C     0.42993   0.32006   0.75000   0.00000  Uiso   1.00
C93    C     0.02266   0.27455   0.58190   0.00000  Uiso   1.00
C94    C     0.07007   0.17995   0.25000   0.00000  Uiso   1.00
C95    C     0.32006   0.07006   0.75001   0.00000  Uiso   1.00
C96    C     0.17994   0.42993   0.24999   0.00000  Uiso   1.00
C97    C     0.07006   0.17994   0.75001   0.00000  Uiso   1.00
C98    C     0.42994   0.32006   0.24999   0.00000  Uiso   1.00
C99    C     0.12215   0.40458   0.22457   0.00000  Uiso   1.00
C100   C     0.37790   0.09538   0.77537   0.00000  Uiso   1.00
C101   C     0.09539   0.12214   0.22460   0.00000  Uiso   1.00
C102   C     0.40464   0.37790   0.77534   0.00000  Uiso   1.00
C103   C     0.37788   0.09538   0.22464   0.00000  Uiso   1.00
C104   C     0.27512   0.47853   0.41815   0.00000  Uiso   1.00
C105   C     0.12212   0.40461   0.77537   0.00000  Uiso   1.00
C106   C     0.40460   0.37789   0.22463   0.00000  Uiso   1.00
C107   C     0.09541   0.12213   0.77540   0.00000  Uiso   1.00
C108   C     0.12214   0.09539   0.77538   0.00000  Uiso   1.00
C109   C     0.37788   0.40462   0.22464   0.00000  Uiso   1.00
C110   C     0.09539   0.37789   0.77536   0.00000  Uiso   1.00
C111   C     0.40462   0.12211   0.22465   0.00000  Uiso   1.00
C112   C     0.37792   0.40464   0.77534   0.00000  Uiso   1.00
C113   C     0.12211   0.09540   0.22461   0.00000  Uiso   1.00
C114   C     0.40463   0.12210   0.77536   0.00000  Uiso   1.00
C115   C     0.22346   0.02097   0.58154   0.00000  Uiso   1.00
C116   C     0.09541   0.37786   0.22458   0.00000  Uiso   1.00
C117   C     0.37210   0.15462   0.72463   0.00000  Uiso   1.00
C118   C     0.12785   0.34542   0.27543   0.00000  Uiso   1.00
C119   C     0.34536   0.37211   0.72466   0.00000  Uiso   1.00
C120   C     0.15461   0.12786   0.27540   0.00000  Uiso   1.00
C121   C     0.12788   0.34538   0.72464   0.00000  Uiso   1.00
C122   C     0.37212   0.15462   0.27536   0.00000  Uiso   1.00
C123   C     0.15459   0.12787   0.72460   0.00000  Uiso   1.00
C124   C     0.34539   0.37210   0.27536   0.00000  Uiso   1.00
C125   C     0.37211   0.34537   0.27535   0.00000  Uiso   1.00
C126   C     0.27299   0.02416   0.91819   0.00000  Uiso   1.00
C127   C     0.12786   0.15461   0.72462   0.00000  Uiso   1.00
C128   C     0.34538   0.12790   0.27535   0.00000  Uiso   1.00
C129   C     0.15461   0.37211   0.72464   0.00000  Uiso   1.00
C130   C     0.12788   0.15460   0.27539   0.00000  Uiso   1.00
C131   C     0.37208   0.34537   0.72466   0.00000  Uiso   1.00
C132   C     0.15459   0.37214   0.27542   0.00000  Uiso   1.00
C133   C     0.34537   0.12790   0.72464   0.00000  Uiso   1.00
C134   C     0.47694   0.22595   0.45903   0.00000  Uiso   1.00
C135   C     0.02260   0.27484   0.54106   0.00000  Uiso   1.00
C136   C     0.27508   0.47813   0.45903   0.00000  Uiso   1.00
H137   H     0.43667   0.18270   0.46529   0.00000  Uiso   1.00
H138   H     0.31334   0.06729   0.03471   0.00000  Uiso   1.00
H139   H     0.07594   0.19693   0.96530   0.00000  Uiso   1.00
H140   H     0.42473   0.30356   0.03469   0.00000  Uiso   1.00
H141   H     0.31351   0.06728   0.96554   0.00000  Uiso   1.00
H142   H     0.18754   0.43160   0.03465   0.00000  Uiso   1.00
H143   H     0.42490   0.30392   0.96520   0.00000  Uiso   1.00
H144   H     0.07593   0.19710   0.03501   0.00000  Uiso   1.00
H145   H     0.11952   0.42729   0.20466   0.00000  Uiso   1.00
H146   H     0.38056   0.07263   0.79523   0.00000  Uiso   1.00
H147   H     0.07266   0.11951   0.20472   0.00000  Uiso   1.00
H148   H     0.06277   0.31820   0.53473   0.00000  Uiso   1.00
H149   H     0.42741   0.38056   0.79518   0.00000  Uiso   1.00
H150   H     0.38053   0.07264   0.20479   0.00000  Uiso   1.00
H151   H     0.11947   0.42736   0.79522   0.00000  Uiso   1.00
H152   H     0.42734   0.38055   0.20477   0.00000  Uiso   1.00
H153   H     0.07269   0.11948   0.79527   0.00000  Uiso   1.00
H154   H     0.11949   0.07265   0.79524   0.00000  Uiso   1.00
H155   H     0.38053   0.42738   0.20480   0.00000  Uiso   1.00
H156   H     0.07264   0.38055   0.79520   0.00000  Uiso   1.00
H157   H     0.42736   0.11944   0.20481   0.00000  Uiso   1.00
H158   H     0.38061   0.42739   0.79516   0.00000  Uiso   1.00
H159   H     0.32061   0.44048   0.46544   0.00000  Uiso   1.00
H160   H     0.11946   0.07267   0.20474   0.00000  Uiso   1.00
H161   H     0.42739   0.11944   0.79521   0.00000  Uiso   1.00
H162   H     0.07268   0.38049   0.20469   0.00000  Uiso   1.00
H163   H     0.36944   0.17737   0.70477   0.00000  Uiso   1.00
H164   H     0.13048   0.32271   0.29534   0.00000  Uiso   1.00
H165   H     0.32259   0.36944   0.70482   0.00000  Uiso   1.00
H166   H     0.17734   0.13049   0.29528   0.00000  Uiso   1.00
H167   H     0.13053   0.32264   0.70478   0.00000  Uiso   1.00
H168   H     0.36946   0.17737   0.29520   0.00000  Uiso   1.00
H169   H     0.17731   0.13052   0.70473   0.00000  Uiso   1.00
H170   H     0.17759   0.05793   0.53478   0.00000  Uiso   1.00
H171   H     0.32265   0.36944   0.29522   0.00000  Uiso   1.00
H172   H     0.36946   0.32261   0.29519   0.00000  Uiso   1.00
H173   H     0.13051   0.17735   0.70475   0.00000  Uiso   1.00
H174   H     0.32263   0.13056   0.29519   0.00000  Uiso   1.00
H175   H     0.17736   0.36945   0.70480   0.00000  Uiso   1.00
H176   H     0.13054   0.17733   0.29526   0.00000  Uiso   1.00
H177   H     0.36939   0.32261   0.70484   0.00000  Uiso   1.00
H178   H     0.17732   0.36951   0.29531   0.00000  Uiso   1.00
H179   H     0.32261   0.13056   0.70479   0.00000  Uiso   1.00
H180   H     0.02844   0.31586   0.37875   0.00000  Uiso   1.00
H181   H     0.06245   0.31841   0.46535   0.00000  Uiso   1.00
H182   H     0.06523   0.28762   0.38325   0.00000  Uiso   1.00
H183   H     0.42747   0.20529   0.59678   0.00000  Uiso   1.00
H184   H     0.46202   0.17409   0.59588   0.00000  Uiso   1.00
H185   H     0.20914   0.06285   0.38280   0.00000  Uiso   1.00
H186   H     0.18265   0.02481   0.37852   0.00000  Uiso   1.00
H187   H     0.32768   0.46677   0.59602   0.00000  Uiso   1.00
H188   H     0.29863   0.43041   0.59712   0.00000  Uiso   1.00
H189   H     0.42804   0.20497   0.40286   0.00000  Uiso   1.00
H190   H     0.46282   0.17404   0.40412   0.00000  Uiso   1.00
H191   H     0.07226   0.29506   0.59676   0.00000  Uiso   1.00
H192   H     0.43650   0.18271   0.53446   0.00000  Uiso   1.00
H193   H     0.03764   0.32620   0.59637   0.00000  Uiso   1.00
H194   H     0.32767   0.46675   0.40407   0.00000  Uiso   1.00
H195   H     0.29861   0.43039   0.40296   0.00000  Uiso   1.00
H196   H     0.20916   0.06286   0.61714   0.00000  Uiso   1.00
H197   H     0.18266   0.02483   0.62140   0.00000  Uiso   1.00
H198   H     0.32254   0.04471   0.90322   0.00000  Uiso   1.00
H199   H     0.28798   0.07591   0.90412   0.00000  Uiso   1.00
H200   H     0.22155   0.43414   0.12125   0.00000  Uiso   1.00
H201   H     0.18477   0.46238   0.11675   0.00000  Uiso   1.00
H202   H     0.42027   0.27803   0.90343   0.00000  Uiso   1.00
H203   H     0.17758   0.05792   0.46513   0.00000  Uiso   1.00
H204   H     0.44689   0.31621   0.90298   0.00000  Uiso   1.00
H205   H     0.04478   0.19066   0.11786   0.00000  Uiso   1.00
H206   H     0.06868   0.23040   0.12132   0.00000  Uiso   1.00
H207   H     0.17774   0.45494   0.90324   0.00000  Uiso   1.00
H208   H     0.21235   0.42380   0.90363   0.00000  Uiso   1.00
H209   H     0.32196   0.04503   0.09714   0.00000  Uiso   1.00
H210   H     0.28718   0.07596   0.09588   0.00000  Uiso   1.00
H211   H     0.04446   0.19010   0.88234   0.00000  Uiso   1.00
H212   H     0.06882   0.22954   0.87884   0.00000  Uiso   1.00
H213   H     0.45529   0.30943   0.11783   0.00000  Uiso   1.00
H214   H     0.32062   0.44049   0.53466   0.00000  Uiso   1.00
H215   H     0.43136   0.26969   0.12090   0.00000  Uiso   1.00
H216   H     0.18723   0.43180   0.96528   0.00000  Uiso   1.00
N217   N     0.04470   0.30136   0.39833   0.00000  Uiso   1.00
N218   N     0.20529   0.44864   0.10167   0.00000  Uiso   1.00
N219   N     0.44587   0.28848   0.89604   0.00000  Uiso   1.00
N220   N     0.05612   0.21222   0.10214   0.00000  Uiso   1.00
N221   N     0.20512   0.45050   0.89626   0.00000  Uiso   1.00
N222   N     0.29447   0.04939   0.10368   0.00000  Uiso   1.00
N223   N     0.05604   0.21153   0.89804   0.00000  Uiso   1.00
N224   N     0.44403   0.28796   0.10191   0.00000  Uiso   1.00
N225   N     0.45489   0.20073   0.60356   0.00000  Uiso   1.00
N226   N     0.19632   0.04183   0.39805   0.00000  Uiso   1.00
N227   N     0.30152   0.45808   0.60375   0.00000  Uiso   1.00
N228   N     0.45553   0.20061   0.39632   0.00000  Uiso   1.00
N229   N     0.04488   0.29951   0.60374   0.00000  Uiso   1.00
N230   N     0.30150   0.45806   0.39632   0.00000  Uiso   1.00
N231   N     0.19633   0.04185   0.60188   0.00000  Uiso   1.00
N232   N     0.29512   0.04926   0.89645   0.00000  Uiso   1.00
O233   O     0.25000  -0.00000   0.25000   0.00000  Uiso   1.00
O234   O     0.25000   0.46964   0.66245   0.00000  Uiso   1.00
O235   O     0.46963   0.25000   0.33755   0.00000  Uiso   1.00
O236   O     0.03036   0.25000   0.66245   0.00000  Uiso   1.00
O237   O     0.00000   0.21964   0.83755   0.00000  Uiso   1.00
O238   O     0.00000   0.28037   0.16245   0.00000  Uiso   1.00
O239   O     0.28036  -0.00000   0.83755   0.00000  Uiso   1.00
O240   O     0.21963   0.00000   0.16245   0.00000  Uiso   1.00
O241   O     0.00000   0.28037   0.83755   0.00000  Uiso   1.00
O242   O     0.00000   0.21964   0.16245   0.00000  Uiso   1.00
O243   O     0.21963  -0.00000   0.83755   0.00000  Uiso   1.00
O244   O     0.25000  -0.00000   0.75000   0.00000  Uiso   1.00
O245   O     0.28036   0.00000   0.16245   0.00000  Uiso   1.00
O246   O     0.20724   0.07308   0.27302   0.00000  Uiso   1.00
O247   O     0.29275   0.42693   0.72698   0.00000  Uiso   1.00
O248   O     0.42692   0.20725   0.27302   0.00000  Uiso   1.00
O249   O     0.07307   0.29276   0.72698   0.00000  Uiso   1.00
O250   O     0.29275   0.42693   0.27302   0.00000  Uiso   1.00
O251   O     0.20724   0.07308   0.72698   0.00000  Uiso   1.00
O252   O     0.07307   0.29276   0.27302   0.00000  Uiso   1.00
O253   O     0.42692   0.20725   0.72698   0.00000  Uiso   1.00
O254   O     0.20724   0.42693   0.72698   0.00000  Uiso   1.00
O255   O     0.00000   0.25000   0.25000   0.00000  Uiso   1.00
O256   O     0.29275   0.07308   0.27302   0.00000  Uiso   1.00
O257   O     0.42692   0.29276   0.72698   0.00000  Uiso   1.00
O258   O     0.07307   0.20725   0.27302   0.00000  Uiso   1.00
O259   O     0.29275   0.07308   0.72698   0.00000  Uiso   1.00
O260   O     0.20724   0.42693   0.27302   0.00000  Uiso   1.00
O261   O     0.07307   0.20725   0.72698   0.00000  Uiso   1.00
O262   O     0.42692   0.29276   0.27302   0.00000  Uiso   1.00
O263   O     0.45724   0.32308   0.77302   0.00000  Uiso   1.00
O264   O     0.04275   0.17693   0.22698   0.00000  Uiso   1.00
O265   O     0.17692   0.45725   0.77302   0.00000  Uiso   1.00
O266   O     0.00000   0.25000   0.75000   0.00000  Uiso   1.00
O267   O     0.32307   0.04276   0.22698   0.00000  Uiso   1.00
O268   O     0.04275   0.17693   0.77302   0.00000  Uiso   1.00
O269   O     0.45724   0.32308   0.22698   0.00000  Uiso   1.00
O270   O     0.32307   0.04276   0.77302   0.00000  Uiso   1.00
O271   O     0.17692   0.45725   0.22698   0.00000  Uiso   1.00
O272   O     0.45724   0.17693   0.22698   0.00000  Uiso   1.00
O273   O     0.04275   0.32308   0.77302   0.00000  Uiso   1.00
O274   O     0.17692   0.04276   0.22698   0.00000  Uiso   1.00
O275   O     0.32307   0.45725   0.77302   0.00000  Uiso   1.00
O276   O     0.04275   0.32308   0.22698   0.00000  Uiso   1.00
O277   O     0.25000   0.46964   0.33755   0.00000  Uiso   1.00
O278   O     0.45724   0.17693   0.77302   0.00000  Uiso   1.00
O279   O     0.32307   0.45725   0.22698   0.00000  Uiso   1.00
O280   O     0.17692   0.04276   0.77302   0.00000  Uiso   1.00
O281   O     0.25000   0.03037   0.66245   0.00000  Uiso   1.00
O282   O     0.03036   0.25000   0.33755   0.00000  Uiso   1.00
O283   O     0.46963   0.25000   0.66245   0.00000  Uiso   1.00
O284   O     0.25000   0.03037   0.33755   0.00000  Uiso   1.00
Zn285  Zn    0.20659  -0.00000   0.21735   0.00000  Uiso   1.00
Zn286  Zn    0.04340   0.25000   0.28265   0.00000  Uiso   1.00
Zn287  Zn    0.25000   0.45660   0.71735   0.00000  Uiso   1.00
Zn288  Zn    0.25000   0.04341   0.28265   0.00000  Uiso   1.00
Zn289  Zn    0.04340   0.25000   0.71735   0.00000  Uiso   1.00
Zn290  Zn    0.45659   0.25000   0.28265   0.00000  Uiso   1.00
Zn291  Zn    0.25000   0.04341   0.71735   0.00000  Uiso   1.00
Zn292  Zn    0.25000   0.45660   0.28265   0.00000  Uiso   1.00
Zn293  Zn    0.29340   0.00000   0.78265   0.00000  Uiso   1.00
Zn294  Zn    0.00000   0.20660   0.21735   0.00000  Uiso   1.00
Zn295  Zn    0.00000   0.29341   0.78265   0.00000  Uiso   1.00
Zn296  Zn    0.29340  -0.00000   0.21735   0.00000  Uiso   1.00
Zn297  Zn    0.20659   0.00000   0.78265   0.00000  Uiso   1.00
Zn298  Zn    0.00000   0.29341   0.21735   0.00000  Uiso   1.00
Zn299  Zn    0.00000   0.20660   0.78265   0.00000  Uiso   1.00
Zn300  Zn    0.45659   0.25000   0.71735   0.00000  Uiso   1.00
C301   C     0.52250   0.27521   0.41857   0.00000  Uiso   1.00
C302   C     0.72750   0.47479   0.08143   0.00000  Uiso   1.00
C303   C     0.72334   0.02063   0.54086   0.00000  Uiso   1.00
C304   C     0.52236   0.27511   0.45924   0.00000  Uiso   1.00
C305   C     0.97682   0.22589   0.54096   0.00000  Uiso   1.00
C306   C     0.72334   0.02062   0.45910   0.00000  Uiso   1.00
C307   C     0.77508   0.47814   0.54101   0.00000  Uiso   1.00
C308   C     0.72740   0.47516   0.95894   0.00000  Uiso   1.00
C309   C     0.77306   0.02405   0.04097   0.00000  Uiso   1.00
C310   C     0.52770   0.23092   0.95912   0.00000  Uiso   1.00
C311   C     0.97288   0.26946   0.04080   0.00000  Uiso   1.00
C312   C     0.77319   0.02411   0.95904   0.00000  Uiso   1.00
C313   C     0.97334   0.26958   0.91801   0.00000  Uiso   1.00
C314   C     0.72764   0.47490   0.04076   0.00000  Uiso   1.00
C315   C     0.97311   0.26973   0.95889   0.00000  Uiso   1.00
C316   C     0.52763   0.23104   0.04092   0.00000  Uiso   1.00
C317   C     0.59813   0.34814   0.25001   0.00000  Uiso   1.00
C318   C     0.90187   0.15187   0.74999   0.00000  Uiso   1.00
C319   C     0.65186   0.09812   0.25001   0.00000  Uiso   1.00
C320   C     0.84814   0.40188   0.75000   0.00000  Uiso   1.00
C321   C     0.90187   0.15187   0.25000   0.00000  Uiso   1.00
C322   C     0.59813   0.34814   0.75000   0.00000  Uiso   1.00
C323   C     0.84813   0.40187   0.25001   0.00000  Uiso   1.00
C324   C     0.52756   0.23096   0.08163   0.00000  Uiso   1.00
C325   C     0.65186   0.09813   0.74999   0.00000  Uiso   1.00
C326   C     0.59813   0.15187   0.75001   0.00000  Uiso   1.00
C327   C     0.90186   0.34813   0.24999   0.00000  Uiso   1.00
C328   C     0.65187   0.40186   0.75001   0.00000  Uiso   1.00
C329   C     0.84812   0.09814   0.24999   0.00000  Uiso   1.00
C330   C     0.90186   0.34812   0.75000   0.00000  Uiso   1.00
C331   C     0.59814   0.15188   0.25000   0.00000  Uiso   1.00
C332   C     0.84813   0.09814   0.75001   0.00000  Uiso   1.00
C333   C     0.65187   0.40186   0.24999   0.00000  Uiso   1.00
C334   C     0.99964   0.25049   0.47957   0.00000  Uiso   1.00
C335   C     0.72734   0.47545   0.91810   0.00000  Uiso   1.00
C336   C     0.99967   0.25042   0.52059   0.00000  Uiso   1.00
C337   C     0.74920   0.49933   0.47949   0.00000  Uiso   1.00
C338   C     0.74920   0.49934   0.52051   0.00000  Uiso   1.00
C339   C     0.75033   0.49959   0.97942   0.00000  Uiso   1.00
C340   C     0.75036   0.49951   0.02043   0.00000  Uiso   1.00
C341   C     0.50036   0.25033   0.97943   0.00000  Uiso   1.00
C342   C     0.50030   0.25029   0.02044   0.00000  Uiso   1.00
C343   C     0.77266   0.02407   0.08184   0.00000  Uiso   1.00
C344   C     0.52767   0.23064   0.91843   0.00000  Uiso   1.00
C345   C     0.97270   0.26930   0.08152   0.00000  Uiso   1.00
C346   C     0.50010   0.25044   0.39820   0.00000  Uiso   1.00
C347   C     0.99992   0.25009   0.60187   0.00000  Uiso   1.00
C348   C     0.74948  -0.00000   0.39815   0.00000  Uiso   1.00
C349   C     0.97701   0.22584   0.58181   0.00000  Uiso   1.00
C350   C     0.74950   0.00001   0.60185   0.00000  Uiso   1.00
C351   C     0.75008   0.49991   0.89813   0.00000  Uiso   1.00
C352   C     0.74990   0.49956   0.10180   0.00000  Uiso   1.00
C353   C     0.50042   0.24995   0.89811   0.00000  Uiso   1.00
C354   C     0.50006   0.25006   0.10183   0.00000  Uiso   1.00
C355   C     0.95447   0.20186   0.47980   0.00000  Uiso   1.00
C356   C     0.54489   0.29908   0.52026   0.00000  Uiso   1.00
C357   C     0.80042   0.45714   0.47990   0.00000  Uiso   1.00
C358   C     0.69776   0.04137   0.52009   0.00000  Uiso   1.00
C359   C     0.54472   0.29924   0.48003   0.00000  Uiso   1.00
C360   C     0.72345   0.02095   0.41842   0.00000  Uiso   1.00
C361   C     0.95438   0.20186   0.52005   0.00000  Uiso   1.00
C362   C     0.69776   0.04136   0.47985   0.00000  Uiso   1.00
C363   C     0.80042   0.45714   0.52017   0.00000  Uiso   1.00
C364   C     0.70511   0.45092   0.97974   0.00000  Uiso   1.00
C365   C     0.79553   0.04814   0.02020   0.00000  Uiso   1.00
C366   C     0.55464   0.21203   0.97996   0.00000  Uiso   1.00
C367   C     0.94607   0.28853   0.01999   0.00000  Uiso   1.00
C368   C     0.79562   0.04814   0.97995   0.00000  Uiso   1.00
C369   C     0.70528   0.45076   0.01997   0.00000  Uiso   1.00
C370   C     0.94620   0.28873   0.97971   0.00000  Uiso   1.00
C371   C     0.77513   0.47855   0.58188   0.00000  Uiso   1.00
C372   C     0.55463   0.21212   0.02023   0.00000  Uiso   1.00
C373   C     0.74977   0.00002   0.35581   0.00000  Uiso   1.00
C374   C     0.74978   0.00002   0.64419   0.00000  Uiso   1.00
C375   C     0.50004   0.25024   0.35582   0.00000  Uiso   1.00
C376   C     0.99998   0.24999   0.64420   0.00000  Uiso   1.00
C377   C     0.50024   0.24997   0.85579   0.00000  Uiso   1.00
C378   C     0.99998   0.25001   0.14419   0.00000  Uiso   1.00
C379   C     0.75001   0.00001   0.85580   0.00000  Uiso   1.00
C380   C     0.74996   0.49976   0.14418   0.00000  Uiso   1.00
C381   C     0.67993   0.07005   0.25001   0.00000  Uiso   1.00
C382   C     0.97734   0.22592   0.41816   0.00000  Uiso   1.00
C383   C     0.82007   0.42994   0.75000   0.00000  Uiso   1.00
C384   C     0.92994   0.17994   0.25000   0.00000  Uiso   1.00
C385   C     0.57006   0.32006   0.75000   0.00000  Uiso   1.00
C386   C     0.82006   0.42994   0.25001   0.00000  Uiso   1.00
C387   C     0.67994   0.07006   0.74999   0.00000  Uiso   1.00
C388   C     0.57006   0.32007   0.25001   0.00000  Uiso   1.00
C389   C     0.92994   0.17994   0.74999   0.00000  Uiso   1.00
C390   C     0.67994   0.42994   0.75000   0.00000  Uiso   1.00
C391   C     0.82006   0.07006   0.25000   0.00000  Uiso   1.00
C392   C     0.92993   0.32006   0.75000   0.00000  Uiso   1.00
C393   C     0.52266   0.27455   0.58190   0.00000  Uiso   1.00
C394   C     0.57007   0.17995   0.25000   0.00000  Uiso   1.00
C395   C     0.82006   0.07006   0.75001   0.00000  Uiso   1.00
C396   C     0.67994   0.42993   0.24999   0.00000  Uiso   1.00
C397   C     0.57006   0.17994   0.75001   0.00000  Uiso   1.00
C398   C     0.92994   0.32006   0.24999   0.00000  Uiso   1.00
C399   C     0.62215   0.40458   0.22457   0.00000  Uiso   1.00
C400   C     0.87790   0.09538   0.77537   0.00000  Uiso   1.00
C401   C     0.59539   0.12214   0.22460   0.00000  Uiso   1.00
C402   C     0.90464   0.37790   0.77534   0.00000  Uiso   1.00
C403   C     0.87788   0.09538   0.22464   0.00000  Uiso   1.00
C404   C     0.77512   0.47853   0.41815   0.00000  Uiso   1.00
C405   C     0.62212   0.40461   0.77537   0.00000  Uiso   1.00
C406   C     0.90460   0.37789   0.22463   0.00000  Uiso   1.00
C407   C     0.59541   0.12213   0.77540   0.00000  Uiso   1.00
C408   C     0.62214   0.09539   0.77538   0.00000  Uiso   1.00
C409   C     0.87788   0.40462   0.22464   0.00000  Uiso   1.00
C410   C     0.59539   0.37789   0.77536   0.00000  Uiso   1.00
C411   C     0.90462   0.12211   0.22465   0.00000  Uiso   1.00
C412   C     0.87792   0.40464   0.77534   0.00000  Uiso   1.00
C413   C     0.62211   0.09540   0.22461   0.00000  Uiso   1.00
C414   C     0.90463   0.12210   0.77536   0.00000  Uiso   1.00
C415   C     0.72346   0.02097   0.58154   0.00000  Uiso   1.00
C416   C     0.59541   0.37786   0.22458   0.00000  Uiso   1.00
C417   C     0.87210   0.15462   0.72463   0.00000  Uiso   1.00
C418   C     0.62785   0.34542   0.27543   0.00000  Uiso   1.00
C419   C     0.84536   0.37211   0.72466   0.00000  Uiso   1.00
C420   C     0.65461   0.12786   0.27540   0.00000  Uiso   1.00
C421   C     0.62788   0.34538   0.72464   0.00000  Uiso   1.00
C422   C     0.87212   0.15462   0.27536   0.00000  Uiso   1.00
C423   C     0.65459   0.12787   0.72460   0.00000  Uiso   1.00
C424   C     0.84539   0.37210   0.27536   0.00000  Uiso   1.00
C425   C     0.87211   0.34537   0.27535   0.00000  Uiso   1.00
C426   C     0.77299   0.02416   0.91819   0.00000  Uiso   1.00
C427   C     0.62786   0.15461   0.72462   0.00000  Uiso   1.00
C428   C     0.84538   0.12790   0.27535   0.00000  Uiso   1.00
C429   C     0.65461   0.37211   0.72464   0.00000  Uiso   1.00
C430   C     0.62788   0.15460   0.27539   0.00000  Uiso   1.00
C431   C     0.87208   0.34537   0.72466   0.00000  Uiso   1.00
C432   C     0.65459   0.37214   0.27542   0.00000  Uiso   1.00
C433   C     0.84537   0.12790   0.72464   0.00000  Uiso   1.00
C434   C     0.97694   0.22595   0.45903   0.00000  Uiso   1.00
C435   C     0.52260   0.27484   0.54106   0.00000  Uiso   1.00
C436   C     0.77508   0.47813   0.45903   0.00000  Uiso   1.00
H437   H     0.93667   0.18270   0.46529   0.00000  Uiso   1.00
H438   H     0.81334   0.06729   0.03471   0.00000  Uiso   1.00
H439   H     0.57594   0.19693   0.96530   0.00000  Uiso   1.00
H440   H     0.92473   0.30356   0.03469   0.00000  Uiso   1.00
H441   H     0.81351   0.06728   0.96554   0.00000  Uiso   1.00
H442   H     0.68754   0.43160   0.03465   0.00000  Uiso   1.00
H443   H     0.92490   0.30392   0.96520   0.00000  Uiso   1.00
H444   H     0.57593   0.19710   0.03501   0.00000  Uiso   1.00
H445   H     0.61952   0.42729   0.20466   0.00000  Uiso   1.00
H446   H     0.88056   0.07263   0.79523   0.00000  Uiso   1.00
H447   H     0.57266   0.11951   0.20472   0.00000  Uiso   1.00
H448   H     0.56277   0.31820   0.53473   0.00000  Uiso   1.00
H449   H     0.92741   0.38056   0.79518   0.00000  Uiso   1.00
H450   H     0.88053   0.07264   0.20479   0.00000  Uiso   1.00
H451   H     0.61947   0.42736   0.79522   0.00000  Uiso   1.00
H452   H     0.92734   0.38055   0.20477   0.00000  Uiso   1.00
H453   H     0.57269   0.11948   0.79527   0.00000  Uiso   1.00
H454   H     0.61949   0.07265   0.79524   0.00000  Uiso   1.00
H455   H     0.88053   0.42738   0.20480   0.00000  Uiso   1.00
H456   H     0.57264   0.38055   0.79520   0.00000  Uiso   1.00
H457   H     0.92736   0.11944   0.20481   0.00000  Uiso   1.00
H458   H     0.88061   0.42739   0.79516   0.00000  Uiso   1.00
H459   H     0.82061   0.44048   0.46544   0.00000  Uiso   1.00
H460   H     0.61946   0.07267   0.20474   0.00000  Uiso   1.00
H461   H     0.92739   0.11944   0.79521   0.00000  Uiso   1.00
H462   H     0.57268   0.38049   0.20469   0.00000  Uiso   1.00
H463   H     0.86944   0.17737   0.70477   0.00000  Uiso   1.00
H464   H     0.63048   0.32271   0.29534   0.00000  Uiso   1.00
H465   H     0.82259   0.36944   0.70482   0.00000  Uiso   1.00
H466   H     0.67734   0.13049   0.29528   0.00000  Uiso   1.00
H467   H     0.63053   0.32264   0.70478   0.00000  Uiso   1.00
H468   H     0.86946   0.17737   0.29520   0.00000  Uiso   1.00
H469   H     0.67731   0.13052   0.70473   0.00000  Uiso   1.00
H470   H     0.67759   0.05793   0.53478   0.00000  Uiso   1.00
H471   H     0.82265   0.36944   0.29522   0.00000  Uiso   1.00
H472   H     0.86946   0.32261   0.29519   0.00000  Uiso   1.00
H473   H     0.63051   0.17735   0.70475   0.00000  Uiso   1.00
H474   H     0.82263   0.13056   0.29519   0.00000  Uiso   1.00
H475   H     0.67736   0.36945   0.70480   0.00000  Uiso   1.00
H476   H     0.63054   0.17733   0.29526   0.00000  Uiso   1.00
H477   H     0.86939   0.32261   0.70484   0.00000  Uiso   1.00
H478   H     0.67732   0.36951   0.29531   0.00000  Uiso   1.00
H479   H     0.82261   0.13056   0.70479   0.00000  Uiso   1.00
H480   H     0.52844   0.31586   0.37875   0.00000  Uiso   1.00
H481   H     0.56245   0.31841   0.46535   0.00000  Uiso   1.00
H482   H     0.56523   0.28762   0.38325   0.00000  Uiso   1.00
H483   H     0.92747   0.20529   0.59678   0.00000  Uiso   1.00
H484   H     0.96202   0.17409   0.59588   0.00000  Uiso   1.00
H485   H     0.70914   0.06285   0.38280   0.00000  Uiso   1.00
H486   H     0.68265   0.02481   0.37852   0.00000  Uiso   1.00
H487   H     0.82768   0.46677   0.59602   0.00000  Uiso   1.00
H488   H     0.79863   0.43041   0.59712   0.00000  Uiso   1.00
H489   H     0.92804   0.20497   0.40286   0.00000  Uiso   1.00
H490   H     0.96282   0.17404   0.40412   0.00000  Uiso   1.00
H491   H     0.57226   0.29506   0.59676   0.00000  Uiso   1.00
H492   H     0.93650   0.18271   0.53446   0.00000  Uiso   1.00
H493   H     0.53764   0.32620   0.59637   0.00000  Uiso   1.00
H494   H     0.82767   0.46675   0.40407   0.00000  Uiso   1.00
H495   H     0.79861   0.43039   0.40296   0.00000  Uiso   1.00
H496   H     0.70916   0.06286   0.61714   0.00000  Uiso   1.00
H497   H     0.68266   0.02483   0.62140   0.00000  Uiso   1.00
H498   H     0.82254   0.04471   0.90322   0.00000  Uiso   1.00
H499   H     0.78798   0.07591   0.90412   0.00000  Uiso   1.00
H500   H     0.72155   0.43414   0.12125   0.00000  Uiso   1.00
H501   H     0.68477   0.46238   0.11675   0.00000  Uiso   1.00
H502   H     0.92027   0.27803   0.90343   0.00000  Uiso   1.00
H503   H     0.67758   0.05792   0.46513   0.00000  Uiso   1.00
H504   H     0.94689   0.31621   0.90298   0.00000  Uiso   1.00
H505   H     0.54478   0.19066   0.11786   0.00000  Uiso   1.00
H506   H     0.56868   0.23040   0.12132   0.00000  Uiso   1.00
H507   H     0.67774   0.45494   0.90324   0.00000  Uiso   1.00
H508   H     0.71235   0.42380   0.90363   0.00000  Uiso   1.00
H509   H     0.82196   0.04503   0.09714   0.00000  Uiso   1.00
H510   H     0.78718   0.07596   0.09588   0.00000  Uiso   1.00
H511   H     0.54446   0.19010   0.88234   0.00000  Uiso   1.00
H512   H     0.56882   0.22954   0.87884   0.00000  Uiso   1.00
H513   H     0.95529   0.30943   0.11783   0.00000  Uiso   1.00
H514   H     0.82062   0.44049   0.53466   0.00000  Uiso   1.00
H515   H     0.93136   0.26969   0.12090   0.00000  Uiso   1.00
H516   H     0.68723   0.43180   0.96528   0.00000  Uiso   1.00
N517   N     0.54470   0.30136   0.39833   0.00000  Uiso   1.00
N518   N     0.70529   0.44864   0.10167   0.00000  Uiso   1.00
N519   N     0.94587   0.28848   0.89604   0.00000  Uiso   1.00
N520   N     0.55612   0.21222   0.10214   0.00000  Uiso   1.00
N521   N     0.70512   0.45050   0.89626   0.00000  Uiso   1.00
N522   N     0.79447   0.04939   0.10368   0.00000  Uiso   1.00
N523   N     0.55604   0.21153   0.89804   0.00000  Uiso   1.00
N524   N     0.94403   0.28796   0.10191   0.00000  Uiso   1.00
N525   N     0.95489   0.20073   0.60356   0.00000  Uiso   1.00
N526   N     0.69632   0.04183   0.39805   0.00000  Uiso   1.00
N527   N     0.80152   0.45808   0.60375   0.00000  Uiso   1.00
N528   N     0.95553   0.20061   0.39632   0.00000  Uiso   1.00
N529   N     0.54488   0.29951   0.60374   0.00000  Uiso   1.00
N530   N     0.80150   0.45806   0.39632   0.00000  Uiso   1.00
N531   N     0.69633   0.04185   0.60188   0.00000  Uiso   1.00
N532   N     0.79512   0.04926   0.89645   0.00000  Uiso   1.00
O533   O     0.75000  -0.00000   0.25000   0.00000  Uiso   1.00
O534   O     0.75000   0.46964   0.66245   0.00000  Uiso   1.00
O535   O     0.96963   0.25000   0.33755   0.00000  Uiso   1.00
O536   O     0.53036   0.25000   0.66245   0.00000  Uiso   1.00
O537   O     0.50000   0.21964   0.83755   0.00000  Uiso   1.00
O538   O     0.50000   0.28037   0.16245   0.00000  Uiso   1.00
O539   O     0.78036  -0.00000   0.83755   0.00000  Uiso   1.00
O540   O     0.71963   0.00000   0.16245   0.00000  Uiso   1.00
O541   O     0.50000   0.28037   0.83755   0.00000  Uiso   1.00
O542   O     0.50000   0.21964   0.16245   0.00000  Uiso   1.00
O543   O     0.71963  -0.00000   0.83755   0.00000  Uiso   1.00
O544   O     0.75000  -0.00000   0.75000   0.00000  Uiso   1.00
O545   O     0.78036   0.00000   0.16245   0.00000  Uiso   1.00
O546   O     0.70724   0.07308   0.27302   0.00000  Uiso   1.00
O547   O     0.79275   0.42693   0.72698   0.00000  Uiso   1.00
O548   O     0.92692   0.20725   0.27302   0.00000  Uiso   1.00
O549   O     0.57307   0.29276   0.72698   0.00000  Uiso   1.00
O550   O     0.79275   0.42693   0.27302   0.00000  Uiso   1.00
O551   O     0.70724   0.07308   0.72698   0.00000  Uiso   1.00
O552   O     0.57307   0.29276   0.27302   0.00000  Uiso   1.00
O553   O     0.92692   0.20725   0.72698   0.00000  Uiso   1.00
O554   O     0.70724   0.42693   0.72698   0.00000  Uiso   1.00
O555   O     0.50000   0.25000   0.25000   0.00000  Uiso   1.00
O556   O     0.79275   0.07308   0.27302   0.00000  Uiso   1.00
O557   O     0.92692   0.29276   0.72698   0.00000  Uiso   1.00
O558   O     0.57307   0.20725   0.27302   0.00000  Uiso   1.00
O559   O     0.79275   0.07308   0.72698   0.00000  Uiso   1.00
O560   O     0.70724   0.42693   0.27302   0.00000  Uiso   1.00
O561   O     0.57307   0.20725   0.72698   0.00000  Uiso   1.00
O562   O     0.92692   0.29276   0.27302   0.00000  Uiso   1.00
O563   O     0.95724   0.32308   0.77302   0.00000  Uiso   1.00
O564   O     0.54275   0.17693   0.22698   0.00000  Uiso   1.00
O565   O     0.67692   0.45725   0.77302   0.00000  Uiso   1.00
O566   O     0.50000   0.25000   0.75000   0.00000  Uiso   1.00
O567   O     0.82307   0.04276   0.22698   0.00000  Uiso   1.00
O568   O     0.54275   0.17693   0.77302   0.00000  Uiso   1.00
O569   O     0.95724   0.32308   0.22698   0.00000  Uiso   1.00
O570   O     0.82307   0.04276   0.77302   0.00000  Uiso   1.00
O571   O     0.67692   0.45725   0.22698   0.00000  Uiso   1.00
O572   O     0.95724   0.17693   0.22698   0.00000  Uiso   1.00
O573   O     0.54275   0.32308   0.77302   0.00000  Uiso   1.00
O574   O     0.67692   0.04276   0.22698   0.00000  Uiso   1.00
O575   O     0.82307   0.45725   0.77302   0.00000  Uiso   1.00
O576   O     0.54275   0.32308   0.22698   0.00000  Uiso   1.00
O577   O     0.75000   0.46964   0.33755   0.00000  Uiso   1.00
O578   O     0.95724   0.17693   0.77302   0.00000  Uiso   1.00
O579   O     0.82307   0.45725   0.22698   0.00000  Uiso   1.00
O580   O     0.67692   0.04276   0.77302   0.00000  Uiso   1.00
O581   O     0.75000   0.03037   0.66245   0.00000  Uiso   1.00
O582   O     0.53036   0.25000   0.33755   0.00000  Uiso   1.00
O583   O     0.96963   0.25000   0.66245   0.00000  Uiso   1.00
O584   O     0.75000   0.03037   0.33755   0.00000  Uiso   1.00
Zn585  Zn    0.70659  -0.00000   0.21735   0.00000  Uiso   1.00
Zn586  Zn    0.54340   0.25000   0.28265   0.00000  Uiso   1.00
Zn587  Zn    0.75000   0.45660   0.71735   0.00000  Uiso   1.00
Zn588  Zn    0.75000   0.04341   0.28265   0.00000  Uiso   1.00
Zn589  Zn    0.54340   0.25000   0.71735   0.00000  Uiso   1.00
Zn590  Zn    0.95659   0.25000   0.28265   0.00000  Uiso   1.00
Zn591  Zn    0.75000   0.04341   0.71735   0.00000  Uiso   1.00
Zn592  Zn    0.75000   0.45660   0.28265   0.00000  Uiso   1.00
Zn593  Zn    0.79340   0.00000   0.78265   0.00000  Uiso   1.00
Zn594  Zn    0.50000   0.20660   0.21735   0.00000  Uiso   1.00
Zn595  Zn    0.50000   0.29341   0.78265   0.00000  Uiso   1.00
Zn596  Zn    0.79340  -0.00000   0.21735   0.00000  Uiso   1.00
Zn597  Zn    0.70659   0.00000   0.78265   0.00000  Uiso   1.00
Zn598  Zn    0.50000   0.29341   0.21735   0.00000  Uiso   1.00
Zn599  Zn    0.50000   0.20660   0.78265   0.00000  Uiso   1.00
Zn600  Zn    0.95659   0.25000   0.71735   0.00000  Uiso   1.00
C601   C     0.02250   0.77521   0.41857   0.00000  Uiso   1.00
C602   C     0.22750   0.97479   0.08143   0.00000  Uiso   1.00
C603   C     0.22334   0.52063   0.54086   0.00000  Uiso   1.00
C604   C     0.02236   0.77511   0.45924   0.00000  Uiso   1.00
C605   C     0.47682   0.72589   0.54096   0.00000  Uiso   1.00
C606   C     0.22334   0.52062   0.45910   0.00000  Uiso   1.00
C607   C     0.27508   0.97814   0.54101   0.00000  Uiso   1.00
C608   C     0.22740   0.97516   0.95894   0.00000  Uiso   1.00
C609   C     0.27306   0.52405   0.04097   0.00000  Uiso   1.00
C610   C     0.02770   0.73092   0.95912   0.00000  Uiso   1.00
C611   C     0.47288   0.76946   0.04080   0.00000  Uiso   1.00
C612   C     0.27319   0.52411   0.95904   0.00000  Uiso   1.00
C613   C     0.47334   0.76958   0.91801   0.00000  Uiso   1.00
C614   C     0.22764   0.97490   0.04076   0.00000  Uiso   1.00
C615   C     0.47311   0.76973   0.95889   0.00000  Uiso   1.00
C616   C     0.02763   0.73104   0.04092   0.00000  Uiso   1.00
C617   C     0.09813   0.84814   0.25001   0.00000  Uiso   1.00
C618   C     0.40187   0.65187   0.74999   0.00000  Uiso   1.00
C619   C     0.15186   0.59812   0.25001   0.00000  Uiso   1.00
C620   C     0.34814   0.90188   0.75000   0.00000  Uiso   1.00
C621   C     0.40187   0.65187   0.25000   0.00000  Uiso   1.00
C622   C     0.09813   0.84814   0.75000   0.00000  Uiso   1.00
C623   C     0.34813   0.90187   0.25001   0.00000  Uiso   1.00
C624   C     0.02756   0.73096   0.08163   0.00000  Uiso   1.00
C625   C     0.15186   0.59813   0.74999   0.00000  Uiso   1.00
C626   C     0.09813   0.65187   0.75001   0.00000  Uiso   1.00
C627   C     0.40186   0.84813   0.24999   0.00000  Uiso   1.00
C628   C     0.15187   0.90186   0.75001   0.00000  Uiso   1.00
C629   C     0.34812   0.59814   0.24999   0.00000  Uiso   1.00
C630   C     0.40186   0.84812   0.75000   0.00000  Uiso   1.00
C631   C     0.09814   0.65188   0.25000   0.00000  Uiso   1.00
C632   C     0.34813   0.59814   0.75001   0.00000  Uiso   1.00
C633   C     0.15187   0.90186   0.24999   0.00000  Uiso   1.00
C634   C     0.49964   0.75049   0.47957   0.00000  Uiso   1.00
C635   C     0.22734   0.97545   0.91810   0.00000  Uiso   1.00
C636   C     0.49967   0.75042   0.52059   0.00000  Uiso   1.00
C637   C     0.24920   0.99933   0.47949   0.00000  Uiso   1.00
C638   C     0.24920   0.99934   0.52051   0.00000  Uiso   1.00
C639   C     0.25033   0.99959   0.97942   0.00000  Uiso   1.00
C640   C     0.25036   0.99951   0.02043   0.00000  Uiso   1.00
C641   C     0.00036   0.75033   0.97943   0.00000  Uiso   1.00
C642   C     0.00030   0.75029   0.02044   0.00000  Uiso   1.00
C643   C     0.27266   0.52407   0.08184   0.00000  Uiso   1.00
C644   C     0.02767   0.73064   0.91843   0.00000  Uiso   1.00
C645   C     0.47270   0.76930   0.08152   0.00000  Uiso   1.00
C646   C     0.00010   0.75044   0.39820   0.00000  Uiso   1.00
C647   C     0.49992   0.75009   0.60187   0.00000  Uiso   1.00
C648   C     0.24948   0.50000   0.39815   0.00000  Uiso   1.00
C649   C     0.47701   0.72584   0.58181   0.00000  Uiso   1.00
C650   C     0.24950   0.50001   0.60185   0.00000  Uiso   1.00
C651   C     0.25008   0.99991   0.89813   0.00000  Uiso   1.00
C652   C     0.24990   0.99956   0.10180   0.00000  Uiso   1.00
C653   C     0.00042   0.74995   0.89811   0.00000  Uiso   1.00
C654   C     0.00006   0.75006   0.10183   0.00000  Uiso   1.00
C655   C     0.45447   0.70186   0.47980   0.00000  Uiso   1.00
C656   C     0.04489   0.79908   0.52026   0.00000  Uiso   1.00
C657   C     0.30042   0.95714   0.47990   0.00000  Uiso   1.00
C658   C     0.19776   0.54137   0.52009   0.00000  Uiso   1.00
C659   C     0.04472   0.79924   0.48003   0.00000  Uiso   1.00
C660   C     0.22345   0.52095   0.41842   0.00000  Uiso   1.00
C661   C     0.45438   0.70186   0.52005   0.00000  Uiso   1.00
C662   C     0.19776   0.54136   0.47985   0.00000  Uiso   1.00
C663   C     0.30042   0.95714   0.52017   0.00000  Uiso   1.00
C664   C     0.20511   0.95092   0.97974   0.00000  Uiso   1.00
C665   C     0.29553   0.54814   0.02020   0.00000  Uiso   1.00
C666   C     0.05464   0.71203   0.97996   0.00000  Uiso   1.00
C667   C     0.44607   0.78853   0.01999   0.00000  Uiso   1.00
C668   C     0.29562   0.54814   0.97995   0.00000  Uiso   1.00
C669   C     0.20528   0.95076   0.01997   0.00000  Uiso   1.00
C670   C     0.44620   0.78873   0.97971   0.00000  Uiso   1.00
C671   C     0.27513   0.97855   0.58188   0.00000  Uiso   1.00
C672   C     0.05463   0.71212   0.02023   0.00000  Uiso   1.00
C673   C     0.24977   0.50002   0.35581   0.00000  Uiso   1.00
C674   C     0.24978   0.50002   0.64419   0.00000  Uiso   1.00
C675   C     0.00004   0.75024   0.35582   0.00000  Uiso   1.00
C676   C     0.49998   0.74999   0.64420   0.00000  Uiso   1.00
C677   C     0.00024   0.74997   0.85579   0.00000  Uiso   1.00
C678   C     0.49998   0.75001   0.14419   0.00000  Uiso   1.00
C679   C     0.25001   0.50001   0.85580   0.00000  Uiso   1.00
C680   C     0.24996   0.99976   0.14418   0.00000  Uiso   1.00
C681   C     0.17993   0.57005   0.25001   0.00000  Uiso   1.00
C682   C     0.47734   0.72592   0.41816   0.00000  Uiso   1.00
C683   C     0.32007   0.92994   0.75000   0.00000  Uiso   1.00
C684   C     0.42994   0.67994   0.25000   0.00000  Uiso   1.00
C685   C     0.07006   0.82006   0.75000   0.00000  Uiso   1.00
C686   C     0.32006   0.92994   0.25001   0.00000  Uiso   1.00
C687   C     0.17994   0.57006   0.74999   0.00000  Uiso   1.00
C688   C     0.07006   0.82007   0.25001   0.00000  Uiso   1.00
C689   C     0.42994   0.67994   0.74999   0.00000  Uiso   1.00
C690   C     0.17994   0.92994   0.75000   0.00000  Uiso   1.00
C691   C     0.32006   0.57006   0.25000   0.00000  Uiso   1.00
C692   C     0.42993   0.82006   0.75000   0.00000  Uiso   1.00
C693   C     0.02266   0.77455   0.58190   0.00000  Uiso   1.00
C694   C     0.07007   0.67995   0.25000   0.00000  Uiso   1.00
C695   C     0.32006   0.57006   0.75001   0.00000  Uiso   1.00
C696   C     0.17994   0.92993   0.24999   0.00000  Uiso   1.00
C697   C     0.07006   0.67994   0.75001   0.00000  Uiso   1.00
C698   C     0.42994   0.82006   0.24999   0.00000  Uiso   1.00
C699   C     0.12215   0.90458   0.22457   0.00000  Uiso   1.00
C700   C     0.37790   0.59538   0.77537   0.00000  Uiso   1.00
C701   C     0.09539   0.62214   0.22460   0.00000  Uiso   1.00
C702   C     0.40464   0.87790   0.77534   0.00000  Uiso   1.00
C703   C     0.37788   0.59538   0.22464   0.00000  Uiso   1.00
C704   C     0.27512   0.97853   0.41815   0.00000  Uiso   1.00
C705   C     0.12212   0.90461   0.77537   0.00000  Uiso   1.00
C706   C     0.40460   0.87789   0.22463   0.00000  Uiso   1.00
C707   C     0.09541   0.62213   0.77540   0.00000  Uiso   1.00
C708   C     0.12214   0.59539   0.77538   0.00000  Uiso   1.00
C709   C     0.37788   0.90462   0.22464   0.00000  Uiso   1.00
C710   C     0.09539   0.87789   0.77536   0.00000  Uiso   1.00
C711   C     0.40462   0.62211   0.22465   0.00000  Uiso   1.00
C712   C     0.37792   0.90464   0.77534   0.00000  Uiso   1.00
C713   C     0.12211   0.59540   0.22461   0.00000  Uiso   1.00
C714   C     0.40463   0.62210   0.77536   0.00000  Uiso   1.00
C715   C     0.22346   0.52097   0.58154   0.00000  Uiso   1.00
C716   C     0.09541   0.87786   0.22458   0.00000  Uiso   1.00
C717   C     0.37210   0.65462   0.72463   0.00000  Uiso   1.00
C718   C     0.12785   0.84542   0.27543   0.00000  Uiso   1.00
C719   C     0.34536   0.87211   0.72466   0.00000  Uiso   1.00
C720   C     0.15461   0.62786   0.27540   0.00000  Uiso   1.00
C721   C     0.12788   0.84538   0.72464   0.00000  Uiso   1.00
C722   C     0.37212   0.65462   0.27536   0.00000  Uiso   1.00
C723   C     0.15459   0.62787   0.72460   0.00000  Uiso   1.00
C724   C     0.34539   0.87210   0.27536   0.00000  Uiso   1.00
C725   C     0.37211   0.84537   0.27535   0.00000  Uiso   1.00
C726   C     0.27299   0.52416   0.91819   0.00000  Uiso   1.00
C727   C     0.12786   0.65461   0.72462   0.00000  Uiso   1.00
C728   C     0.34538   0.62790   0.27535   0.00000  Uiso   1.00
C729   C     0.15461   0.87211   0.72464   0.00000  Uiso   1.00
C730   C     0.12788   0.65460   0.27539   0.00000  Uiso   1.00
C731   C     0.37208   0.84537   0.72466   0.00000  Uiso   1.00
C732   C     0.15459   0.87214   0.27542   0.00000  Uiso   1.00
C733   C     0.34537   0.62790   0.72464   0.00000  Uiso   1.00
C734   C     0.47694   0.72595   0.45903   0.00000  Uiso   1.00
C735   C     0.02260   0.77484   0.54106   0.00000  Uiso   1.00
C736   C     0.27508   0.97813   0.45903   0.00000  Uiso   1.00
H737   H     0.43667   0.68270   0.46529   0.00000  Uiso   1.00
H738   H     0.31334   0.56729   0.03471   0.00000  Uiso   1.00
H739   H     0.07594   0.69693   0.96530   0.00000  Uiso   1.00
H740   H     0.42473   0.80356   0.03469   0.00000  Uiso   1.00
H741   H     0.31351   0.56728   0.96554   0.00000  Uiso   1.00
H742   H     0.18754   0.93160   0.03465   0.00000  Uiso   1.00
H743   H     0.42490   0.80392   0.96520   0.00000  Uiso   1.00
H744   H     0.07593   0.69710   0.03501   0.00000  Uiso   1.00
H745   H     0.11952   0.92729   0.20466   0.00000  Uiso   1.00
H746   H     0.38056   0.57263   0.79523   0.00000  Uiso   1.00
H747   H     0.07266   0.61951   0.20472   0.00000  Uiso   1.00
H748   H     0.06277   0.81820   0.53473   0.00000  Uiso   1.00
H749   H     0.42741   0.88056   0.79518   0.00000  Uiso   1.00
H750   H     0.38053   0.57264   0.20479   0.00000  Uiso   1.00
H751   H     0.11947   0.92736   0.79522   0.00000  Uiso   1.00
H752   H     0.42734   0.88055   0.20477   0.00000  Uiso   1.00
H753   H     0.07269   0.61948   0.79527   0.00000  Uiso   1.00
H754   H     0.11949   0.57265   0.79524   0.00000  Uiso   1.00
H755   H     0.38053   0.92738   0.20480   0.00000  Uiso   1.00
H756   H     0.07264   0.88055   0.79520   0.00000  Uiso   1.00
H757   H     0.42736   0.61944   0.20481   0.00000  Uiso   1.00
H758   H     0.38061   0.92739   0.79516   0.00000  Uiso   1.00
H759   H     0.32061   0.94048   0.46544   0.00000  Uiso   1.00
H760   H     0.11946   0.57267   0.20474   0.00000  Uiso   1.00
H761   H     0.42739   0.61944   0.79521   0.00000  Uiso   1.00
H762   H     0.07268   0.88049   0.20469   0.00000  Uiso   1.00
H763   H     0.36944   0.67737   0.70477   0.00000  Uiso   1.00
H764   H     0.13048   0.82271   0.29534   0.00000  Uiso   1.00
H765   H     0.32259   0.86944   0.70482   0.00000  Uiso   1.00
H766   H     0.17734   0.63049   0.29528   0.00000  Uiso   1.00
H767   H     0.13053   0.82264   0.70478   0.00000  Uiso   1.00
H768   H     0.36946   0.67737   0.29520   0.00000  Uiso   1.00
H769   H     0.17731   0.63052   0.70473   0.00000  Uiso   1.00
H770   H     0.17759   0.55793   0.53478   0.00000  Uiso   1.00
H771   H     0.32265   0.86944   0.29522   0.00000  Uiso   1.00
H772   H     0.36946   0.82261   0.29519   0.00000  Uiso   1.00
H773   H     0.13051   0.67735   0.70475   0.00000  Uiso   1.00
H774   H     0.32263   0.63056   0.29519   0.00000  Uiso   1.00
H775   H     0.17736   0.86945   0.70480   0.00000  Uiso   1.00
H776   H     0.13054   0.67733   0.29526   0.00000  Uiso   1.00
H777   H     0.36939   0.82261   0.70484   0.00000  Uiso   1.00
H778   H     0.17732   0.86951   0.29531   0.00000  Uiso   1.00
H779   H     0.32261   0.63056   0.70479   0.00000  Uiso   1.00
H780   H     0.02844   0.81586   0.37875   0.00000  Uiso   1.00
H781   H     0.06245   0.81841   0.46535   0.00000  Uiso   1.00
H782   H     0.06523   0.78762   0.38325   0.00000  Uiso   1.00
H783   H     0.42747   0.70529   0.59678   0.00000  Uiso   1.00
H784   H     0.46202   0.67409   0.59588   0.00000  Uiso   1.00
H785   H     0.20914   0.56285   0.38280   0.00000  Uiso   1.00
H786   H     0.18265   0.52481   0.37852   0.00000  Uiso   1.00
H787   H     0.32768   0.96677   0.59602   0.00000  Uiso   1.00
H788   H     0.29863   0.93041   0.59712   0.00000  Uiso   1.00
H789   H     0.42804   0.70497   0.40286   0.00000  Uiso   1.00
H790   H     0.46282   0.67404   0.40412   0.00000  Uiso   1.00
H791   H     0.07226   0.79506   0.59676   0.00000  Uiso   1.00
H792   H     0.43650   0.68271   0.53446   0.00000  Uiso   1.00
H793   H     0.03764   0.82620   0.59637   0.00000  Uiso   1.00
H794   H     0.32767   0.96675   0.40407   0.00000  Uiso   1.00
H795   H     0.29861   0.93039   0.40296   0.00000  Uiso   1.00
H796   H     0.20916   0.56286   0.61714   0.00000  Uiso   1.00
H797   H     0.18266   0.52483   0.62140   0.00000  Uiso   1.00
H798   H     0.32254   0.54471   0.90322   0.00000  Uiso   1.00
H799   H     0.28798   0.57591   0.90412   0.00000  Uiso   1.00
H800   H     0.22155   0.93414   0.12125   0.00000  Uiso   1.00
H801   H     0.18477   0.96238   0.11675   0.00000  Uiso   1.00
H802   H     0.42027   0.77803   0.90343   0.00000  Uiso   1.00
H803   H     0.17758   0.55792   0.46513   0.00000  Uiso   1.00
H804   H     0.44689   0.81621   0.90298   0.00000  Uiso   1.00
H805   H     0.04478   0.69066   0.11786   0.00000  Uiso   1.00
H806   H     0.06868   0.73040   0.12132   0.00000  Uiso   1.00
H807   H     0.17774   0.95494   0.90324   0.00000  Uiso   1.00
H808   H     0.21235   0.92380   0.90363   0.00000  Uiso   1.00
H809   H     0.32196   0.54503   0.09714   0.00000  Uiso   1.00
H810   H     0.28718   0.57596   0.09588   0.00000  Uiso   1.00
H811   H     0.04446   0.69010   0.88234   0.00000  Uiso   1.00
H812   H     0.06882   0.72954   0.87884   0.00000  Uiso   1.00
H813   H     0.45529   0.80943   0.11783   0.00000  Uiso   1.00
H814   H     0.32062   0.94049   0.53466   0.00000  Uiso   1.00
H815   H     0.43136   0.76969   0.12090   0.00000  Uiso   1.00
H816   H     0.18723   0.93180   0.96528   0.00000  Uiso   1.00
N817   N     0.04470   0.80136   0.39833   0.00000  Uiso   1.00
N818   N     0.20529   0.94864   0.10167   0.00000  Uiso   1.00
N819   N     0.44587   0.78848   0.89604   0.00000  Uiso   1.00
N820   N     0.05612   0.71222   0.10214   0.00000  Uiso   1.00
N821   N     0.20512   0.95050   0.89626   0.00000  Uiso   1.00
N822   N     0.29447   0.54939   0.10368   0.00000  Uiso   1.00
N823   N     0.05604   0.71153   0.89804   0.00000  Uiso   1.00
N824   N     0.44403   0.78796   0.10191   0.00000  Uiso   1.00
N825   N     0.45489   0.70073   0.60356   0.00000  Uiso   1.00
N826   N     0.19632   0.54183   0.39805   0.00000  Uiso   1.00
N827   N     0.30152   0.95808   0.60375   0.00000  Uiso   1.00
N828   N     0.45553   0.70061   0.39632   0.00000  Uiso   1.00
N829   N     0.04488   0.79951   0.60374   0.00000  Uiso   1.00
N830   N     0.30150   0.95806   0.39632   0.00000  Uiso   1.00
N831   N     0.19633   0.54185   0.60188   0.00000  Uiso   1.00
N832   N     0.29512   0.54926   0.89645   0.00000  Uiso   1.00
O833   O     0.25000   0.50000   0.25000   0.00000  Uiso   1.00
O834   O     0.25000   0.96964   0.66245   0.00000  Uiso   1.00
O835   O     0.46963   0.75000   0.33755   0.00000  Uiso   1.00
O836   O     0.03036   0.75000   0.66245   0.00000  Uiso   1.00
O837   O     0.00000   0.71964   0.83755   0.00000  Uiso   1.00
O838   O     0.00000   0.78037   0.16245   0.00000  Uiso   1.00
O839   O     0.28036   0.50000   0.83755   0.00000  Uiso   1.00
O840   O     0.21963   0.50000   0.16245   0.00000  Uiso   1.00
O841   O     0.00000   0.78037   0.83755   0.00000  Uiso   1.00
O842   O     0.00000   0.71964   0.16245   0.00000  Uiso   1.00
O843   O     0.21963   0.50000   0.83755   0.00000  Uiso   1.00
O844   O     0.25000   0.50000   0.75000   0.00000  Uiso   1.00
O845   O     0.28036   0.50000   0.16245   0.00000  Uiso   1.00
O846   O     0.20724   0.57308   0.27302   0.00000  Uiso   1.00
O847   O     0.29275   0.92693   0.72698   0.00000  Uiso   1.00
O848   O     0.42692   0.70725   0.27302   0.00000  Uiso   1.00
O849   O     0.07307   0.79276   0.72698   0.00000  Uiso   1.00
O850   O     0.29275   0.92693   0.27302   0.00000  Uiso   1.00
O851   O     0.20724   0.57308   0.72698   0.00000  Uiso   1.00
O852   O     0.07307   0.79276   0.27302   0.00000  Uiso   1.00
O853   O     0.42692   0.70725   0.72698   0.00000  Uiso   1.00
O854   O     0.20724   0.92693   0.72698   0.00000  Uiso   1.00
O855   O     0.00000   0.75000   0.25000   0.00000  Uiso   1.00
O856   O     0.29275   0.57308   0.27302   0.00000  Uiso   1.00
O857   O     0.42692   0.79276   0.72698   0.00000  Uiso   1.00
O858   O     0.07307   0.70725   0.27302   0.00000  Uiso   1.00
O859   O     0.29275   0.57308   0.72698   0.00000  Uiso   1.00
O860   O     0.20724   0.92693   0.27302   0.00000  Uiso   1.00
O861   O     0.07307   0.70725   0.72698   0.00000  Uiso   1.00
O862   O     0.42692   0.79276   0.27302   0.00000  Uiso   1.00
O863   O     0.45724   0.82308   0.77302   0.00000  Uiso   1.00
O864   O     0.04275   0.67693   0.22698   0.00000  Uiso   1.00
O865   O     0.17692   0.95725   0.77302   0.00000  Uiso   1.00
O866   O     0.00000   0.75000   0.75000   0.00000  Uiso   1.00
O867   O     0.32307   0.54276   0.22698   0.00000  Uiso   1.00
O868   O     0.04275   0.67693   0.77302   0.00000  Uiso   1.00
O869   O     0.45724   0.82308   0.22698   0.00000  Uiso   1.00
O870   O     0.32307   0.54276   0.77302   0.00000  Uiso   1.00
O871   O     0.17692   0.95725   0.22698   0.00000  Uiso   1.00
O872   O     0.45724   0.67693   0.22698   0.00000  Uiso   1.00
O873   O     0.04275   0.82308   0.77302   0.00000  Uiso   1.00
O874   O     0.17692   0.54276   0.22698   0.00000  Uiso   1.00
O875   O     0.32307   0.95725   0.77302   0.00000  Uiso   1.00
O876   O     0.04275   0.82308   0.22698   0.00000  Uiso   1.00
O877   O     0.25000   0.96964   0.33755   0.00000  Uiso   1.00
O878   O     0.45724   0.67693   0.77302   0.00000  Uiso   1.00
O879   O     0.32307   0.95725   0.22698   0.00000  Uiso   1.00
O880   O     0.17692   0.54276   0.77302   0.00000  Uiso   1.00
O881   O     0.25000   0.53037   0.66245   0.00000  Uiso   1.00
O882   O     0.03036   0.75000   0.33755   0.00000  Uiso   1.00
O883   O     0.46963   0.75000   0.66245   0.00000  Uiso   1.00
O884   O     0.25000   0.53037   0.33755   0.00000  Uiso   1.00
Zn885  Zn    0.20659   0.50000   0.21735   0.00000  Uiso   1.00
Zn886  Zn    0.04340   0.75000   0.28265   0.00000  Uiso   1.00
Zn887  Zn    0.25000   0.95660   0.71735   0.00000  Uiso   1.00
Zn888  Zn    0.25000   0.54341   0.28265   0.00000  Uiso   1.00
Zn889  Zn    0.04340   0.75000   0.71735   0.00000  Uiso   1.00
Zn890  Zn    0.45659   0.75000   0.28265   0.00000  Uiso   1.00
Zn891  Zn    0.25000   0.54341   0.71735   0.00000  Uiso   1.00
Zn892  Zn    0.25000   0.95660   0.28265   0.00000  Uiso   1.00
Zn893  Zn    0.29340   0.50000   0.78265   0.00000  Uiso   1.00
Zn894  Zn    0.00000   0.70660   0.21735   0.00000  Uiso   1.00
Zn895  Zn    0.00000   0.79341   0.78265   0.00000  Uiso   1.00
Zn896  Zn    0.29340   0.50000   0.21735   0.00000  Uiso   1.00
Zn897  Zn    0.20659   0.50000   0.78265   0.00000  Uiso   1.00
Zn898  Zn    0.00000   0.79341   0.21735   0.00000  Uiso   1.00
Zn899  Zn    0.00000   0.70660   0.78265   0.00000  Uiso   1.00
Zn900  Zn    0.45659   0.75000   0.71735   0.00000  Uiso   1.00
C901   C     0.52250   0.77521   0.41857   0.00000  Uiso   1.00
C902   C     0.72750   0.97479   0.08143   0.00000  Uiso   1.00
C903   C     0.72334   0.52063   0.54086   0.00000  Uiso   1.00
C904   C     0.52236   0.77511   0.45924   0.00000  Uiso   1.00
C905   C     0.97682   0.72589   0.54096   0.00000  Uiso   1.00
C906   C     0.72334   0.52062   0.45910   0.00000  Uiso   1.00
C907   C     0.77508   0.97814   0.54101   0.00000  Uiso   1.00
C908   C     0.72740   0.97516   0.95894   0.00000  Uiso   1.00
C909   C     0.77306   0.52405   0.04097   0.00000  Uiso   1.00
C910   C     0.52770   0.73092   0.95912   0.00000  Uiso   1.00
C911   C     0.97288   0.76946   0.04080   0.00000  Uiso   1.00
C912   C     0.77319   0.52411   0.95904   0.00000  Uiso   1.00
C913   C     0.97334   0.76958   0.91801   0.00000  Uiso   1.00
C914   C     0.72764   0.97490   0.04076   0.00000  Uiso   1.00
C915   C     0.97311   0.76973   0.95889   0.00000  Uiso   1.00
C916   C     0.52763   0.73104   0.04092   0.00000  Uiso   1.00
C917   C     0.59813   0.84814   0.25001   0.00000  Uiso   1.00
C918   C     0.90187   0.65187   0.74999   0.00000  Uiso   1.00
C919   C     0.65186   0.59812   0.25001   0.00000  Uiso   1.00
C920   C     0.84814   0.90188   0.75000   0.00000  Uiso   1.00
C921   C     0.90187   0.65187   0.25000   0.00000  Uiso   1.00
C922   C     0.59813   0.84814   0.75000   0.00000  Uiso   1.00
C923   C     0.84813   0.90187   0.25001   0.00000  Uiso   1.00
C924   C     0.52756   0.73096   0.08163   0.00000  Uiso   1.00
C925   C     0.65186   0.59813   0.74999   0.00000  Uiso   1.00
C926   C     0.59813   0.65187   0.75001   0.00000  Uiso   1.00
C927   C     0.90186   0.84813   0.24999   0.00000  Uiso   1.00
C928   C     0.65187   0.90186   0.75001   0.00000  Uiso   1.00
C929   C     0.84812   0.59814   0.24999   0.00000  Uiso   1.00
C930   C     0.90186   0.84812   0.75000   0.00000  Uiso   1.00
C931   C     0.59814   0.65188   0.25000   0.00000  Uiso   1.00
C932   C     0.84813   0.59814   0.75001   0.00000  Uiso   1.00
C933   C     0.65187   0.90186   0.24999   0.00000  Uiso   1.00
C934   C     0.99964   0.75049   0.47957   0.00000  Uiso   1.00
C935   C     0.72734   0.97545   0.91810   0.00000  Uiso   1.00
C936   C     0.99967   0.75042   0.52059   0.00000  Uiso   1.00
C937   C     0.74920   0.99933   0.47949   0.00000  Uiso   1.00
C938   C     0.74920   0.99934   0.52051   0.00000  Uiso   1.00
C939   C     0.75033   0.99959   0.97942   0.00000  Uiso   1.00
C940   C     0.75036   0.99951   0.02043   0.00000  Uiso   1.00
C941   C     0.50036   0.75033   0.97943   0.00000  Uiso   1.00
C942   C     0.50030   0.75029   0.02044   0.00000  Uiso   1.00
C943   C     0.77266   0.52407   0.08184   0.00000  Uiso   1.00
C944   C     0.52767   0.73064   0.91843   0.00000  Uiso   1.00
C945   C     0.97270   0.76930   0.08152   0.00000  Uiso   1.00
C946   C     0.50010   0.75044   0.39820   0.00000  Uiso   1.00
C947   C     0.99992   0.75009   0.60187   0.00000  Uiso   1.00
C948   C     0.74948   0.50000   0.39815   0.00000  Uiso   1.00
C949   C     0.97701   0.72584   0.58181   0.00000  Uiso   1.00
C950   C     0.74950   0.50001   0.60185   0.00000  Uiso   1.00
C951   C     0.75008   0.99991   0.89813   0.00000  Uiso   1.00
C952   C     0.74990   0.99956   0.10180   0.00000  Uiso   1.00
C953   C     0.50042   0.74995   0.89811   0.00000  Uiso   1.00
C954   C     0.50006   0.75006   0.10183   0.00000  Uiso   1.00
C955   C     0.95447   0.70186   0.47980   0.00000  Uiso   1.00
C956   C     0.54489   0.79908   0.52026   0.00000  Uiso   1.00
C957   C     0.80042   0.95714   0.47990   0.00000  Uiso   1.00
C958   C     0.69776   0.54137   0.52009   0.00000  Uiso   1.00
C959   C     0.54472   0.79924   0.48003   0.00000  Uiso   1.00
C960   C     0.72345   0.52095   0.41842   0.00000  Uiso   1.00
C961   C     0.95438   0.70186   0.52005   0.00000  Uiso   1.00
C962   C     0.69776   0.54136   0.47985   0.00000  Uiso   1.00
C963   C     0.80042   0.95714   0.52017   0.00000  Uiso   1.00
C964   C     0.70511   0.95092   0.97974   0.00000  Uiso   1.00
C965   C     0.79553   0.54814   0.02020   0.00000  Uiso   1.00
C966   C     0.55464   0.71203   0.97996   0.00000  Uiso   1.00
C967   C     0.94607   0.78853   0.01999   0.00000  Uiso   1.00
C968   C     0.79562   0.54814   0.97995   0.00000  Uiso   1.00
C969   C     0.70528   0.95076   0.01997   0.00000  Uiso   1.00
C970   C     0.94620   0.78873   0.97971   0.00000  Uiso   1.00
C971   C     0.77513   0.97855   0.58188   0.00000  Uiso   1.00
C972   C     0.55463   0.71212   0.02023   0.00000  Uiso   1.00
C973   C     0.74977   0.50002   0.35581   0.00000  Uiso   1.00
C974   C     0.74978   0.50002   0.64419   0.00000  Uiso   1.00
C975   C     0.50004   0.75024   0.35582   0.00000  Uiso   1.00
C976   C     0.99998   0.74999   0.64420   0.00000  Uiso   1.00
C977   C     0.50024   0.74997   0.85579   0.00000  Uiso   1.00
C978   C     0.99998   0.75001   0.14419   0.00000  Uiso   1.00
C979   C     0.75001   0.50001   0.85580   0.00000  Uiso   1.00
C980   C     0.74996   0.99976   0.14418   0.00000  Uiso   1.00
C981   C     0.67993   0.57005   0.25001   0.00000  Uiso   1.00
C982   C     0.97734   0.72592   0.41816   0.00000  Uiso   1.00
C983   C     0.82007   0.92994   0.75000   0.00000  Uiso   1.00
C984   C     0.92994   0.67994   0.25000   0.00000  Uiso   1.00
C985   C     0.57006   0.82006   0.75000   0.00000  Uiso   1.00
C986   C     0.82006   0.92994   0.25001   0.00000  Uiso   1.00
C987   C     0.67994   0.57006   0.74999   0.00000  Uiso   1.00
C988   C     0.57006   0.82007   0.25001   0.00000  Uiso   1.00
C989   C     0.92994   0.67994   0.74999   0.00000  Uiso   1.00
C990   C     0.67994   0.92994   0.75000   0.00000  Uiso   1.00
C991   C     0.82006   0.57006   0.25000   0.00000  Uiso   1.00
C992   C     0.92993   0.82006   0.75000   0.00000  Uiso   1.00
C993   C     0.52266   0.77455   0.58190   0.00000  Uiso   1.00
C994   C     0.57007   0.67995   0.25000   0.00000  Uiso   1.00
C995   C     0.82006   0.57006   0.75001   0.00000  Uiso   1.00
C996   C     0.67994   0.92993   0.24999   0.00000  Uiso   1.00
C997   C     0.57006   0.67994   0.75001   0.00000  Uiso   1.00
C998   C     0.92994   0.82006   0.24999   0.00000  Uiso   1.00
C999   C     0.62215   0.90458   0.22457   0.00000  Uiso   1.00
C1000  C     0.87790   0.59538   0.77537   0.00000  Uiso   1.00
C1001  C     0.59539   0.62214   0.22460   0.00000  Uiso   1.00
C1002  C     0.90464   0.87790   0.77534   0.00000  Uiso   1.00
C1003  C     0.87788   0.59538   0.22464   0.00000  Uiso   1.00
C1004  C     0.77512   0.97853   0.41815   0.00000  Uiso   1.00
C1005  C     0.62212   0.90461   0.77537   0.00000  Uiso   1.00
C1006  C     0.90460   0.87789   0.22463   0.00000  Uiso   1.00
C1007  C     0.59541   0.62213   0.77540   0.00000  Uiso   1.00
C1008  C     0.62214   0.59539   0.77538   0.00000  Uiso   1.00
C1009  C     0.87788   0.90462   0.22464   0.00000  Uiso   1.00
C1010  C     0.59539   0.87789   0.77536   0.00000  Uiso   1.00
C1011  C     0.90462   0.62211   0.22465   0.00000  Uiso   1.00
C1012  C     0.87792   0.90464   0.77534   0.00000  Uiso   1.00
C1013  C     0.62211   0.59540   0.22461   0.00000  Uiso   1.00
C1014  C     0.90463   0.62210   0.77536   0.00000  Uiso   1.00
C1015  C     0.72346   0.52097   0.58154   0.00000  Uiso   1.00
C1016  C     0.59541   0.87786   0.22458   0.00000  Uiso   1.00
C1017  C     0.87210   0.65462   0.72463   0.00000  Uiso   1.00
C1018  C     0.62785   0.84542   0.27543   0.00000  Uiso   1.00
C1019  C     0.84536   0.87211   0.72466   0.00000  Uiso   1.00
C1020  C     0.65461   0.62786   0.27540   0.00000  Uiso   1.00
C1021  C     0.62788   0.84538   0.72464   0.00000  Uiso   1.00
C1022  C     0.87212   0.65462   0.27536   0.00000  Uiso   1.00
C1023  C     0.65459   0.62787   0.72460   0.00000  Uiso   1.00
C1024  C     0.84539   0.87210   0.27536   0.00000  Uiso   1.00
C1025  C     0.87211   0.84537   0.27535   0.00000  Uiso   1.00
C1026  C     0.77299   0.52416   0.91819   0.00000  Uiso   1.00
C1027  C     0.62786   0.65461   0.72462   0.00000  Uiso   1.00
C1028  C     0.84538   0.62790   0.27535   0.00000  Uiso   1.00
C1029  C     0.65461   0.87211   0.72464   0.00000  Uiso   1.00
C1030  C     0.62788   0.65460   0.27539   0.00000  Uiso   1.00
C1031  C     0.87208   0.84537   0.72466   0.00000  Uiso   1.00
C1032  C     0.65459   0.87214   0.27542   0.00000  Uiso   1.00
C1033  C     0.84537   0.62790   0.72464   0.00000  Uiso   1.00
C1034  C     0.97694   0.72595   0.45903   0.00000  Uiso   1.00
C1035  C     0.52260   0.77484   0.54106   0.00000  Uiso   1.00
C1036  C     0.77508   0.97813   0.45903   0.00000  Uiso   1.00
H1037  H     0.93667   0.68270   0.46529   0.00000  Uiso   1.00
H1038  H     0.81334   0.56729   0.03471   0.00000  Uiso   1.00
H1039  H     0.57594   0.69693   0.96530   0.00000  Uiso   1.00
H1040  H     0.92473   0.80356   0.03469   0.00000  Uiso   1.00
H1041  H     0.81351   0.56728   0.96554   0.00000  Uiso   1.00
H1042  H     0.68754   0.93160   0.03465   0.00000  Uiso   1.00
H1043  H     0.92490   0.80392   0.96520   0.00000  Uiso   1.00
H1044  H     0.57593   0.69710   0.03501   0.00000  Uiso   1.00
H1045  H     0.61952   0.92729   0.20466   0.00000  Uiso   1.00
H1046  H     0.88056   0.57263   0.79523   0.00000  Uiso   1.00
H1047  H     0.57266   0.61951   0.20472   0.00000  Uiso   1.00
H1048  H     0.56277   0.81820   0.53473   0.00000  Uiso   1.00
H1049  H     0.92741   0.88056   0.79518   0.00000  Uiso   1.00
H1050  H     0.88053   0.57264   0.20479   0.00000  Uiso   1.00
H1051  H     0.61947   0.92736   0.79522   0.00000  Uiso   1.00
H1052  H     0.92734   0.88055   0.20477   0.00000  Uiso   1.00
H1053  H     0.57269   0.61948   0.79527   0.00000  Uiso   1.00
H1054  H     0.61949   0.57265   0.79524   0.00000  Uiso   1.00
H1055  H     0.88053   0.92738   0.20480   0.00000  Uiso   1.00
H1056  H     0.57264   0.88055   0.79520   0.00000  Uiso   1.00
H1057  H     0.92736   0.61944   0.20481   0.00000  Uiso   1.00
H1058  H     0.88061   0.92739   0.79516   0.00000  Uiso   1.00
H1059  H     0.82061   0.94048   0.46544   0.00000  Uiso   1.00
H1060  H     0.61946   0.57267   0.20474   0.00000  Uiso   1.00
H1061  H     0.92739   0.61944   0.79521   0.00000  Uiso   1.00
H1062  H     0.57268   0.88049   0.20469   0.00000  Uiso   1.00
H1063  H     0.86944   0.67737   0.70477   0.00000  Uiso   1.00
H1064  H     0.63048   0.82271   0.29534   0.00000  Uiso   1.00
H1065  H     0.82259   0.86944   0.70482   0.00000  Uiso   1.00
H1066  H     0.67734   0.63049   0.29528   0.00000  Uiso   1.00
H1067  H     0.63053   0.82264   0.70478   0.00000  Uiso   1.00
H1068  H     0.86946   0.67737   0.29520   0.00000  Uiso   1.00
H1069  H     0.67731   0.63052   0.70473   0.00000  Uiso   1.00
H1070  H     0.67759   0.55793   0.53478   0.00000  Uiso   1.00
H1071  H     0.82265   0.86944   0.29522   0.00000  Uiso   1.00
H1072  H     0.86946   0.82261   0.29519   0.00000  Uiso   1.00
H1073  H     0.63051   0.67735   0.70475   0.00000  Uiso   1.00
H1074  H     0.82263   0.63056   0.29519   0.00000  Uiso   1.00
H1075  H     0.67736   0.86945   0.70480   0.00000  Uiso   1.00
H1076  H     0.63054   0.67733   0.29526   0.00000  Uiso   1.00
H1077  H     0.86939   0.82261   0.70484   0.00000  Uiso   1.00
H1078  H     0.67732   0.86951   0.29531   0.00000  Uiso   1.00
H1079  H     0.82261   0.63056   0.70479   0.00000  Uiso   1.00
H1080  H     0.52844   0.81586   0.37875   0.00000  Uiso   1.00
H1081  H     0.56245   0.81841   0.46535   0.00000  Uiso   1.00
H1082  H     0.56523   0.78762   0.38325   0.00000  Uiso   1.00
H1083  H     0.92747   0.70529   0.59678   0.00000  Uiso   1.00
H1084  H     0.96202   0.67409   0.59588   0.00000  Uiso   1.00
H1085  H     0.70914   0.56285   0.38280   0.00000  Uiso   1.00
H1086  H     0.68265   0.52481   0.37852   0.00000  Uiso   1.00
H1087  H     0.82768   0.96677   0.59602   0.00000  Uiso   1.00
H1088  H     0.79863   0.93041   0.59712   0.00000  Uiso   1.00
H1089  H     0.92804   0.70497   0.40286   0.00000  Uiso   1.00
H1090  H     0.96282   0.67404   0.40412   0.00000  Uiso   1.00
H1091  H     0.57226   0.79506   0.59676   0.00000  Uiso   1.00
H1092  H     0.93650   0.68271   0.53446   0.00000  Uiso   1.00
H1093  H     0.53764   0.82620   0.59637   0.00000  Uiso   1.00
H1094  H     0.82767   0.96675   0.40407   0.00000  Uiso   1.00
H1095  H     0.79861   0.93039   0.40296   0.00000  Uiso   1.00
H1096  H     0.70916   0.56286   0.61714   0.00000  Uiso   1.00
H1097  H     0.68266   0.52483   0.62140   0.00000  Uiso   1.00
H1098  H     0.82254   0.54471   0.90322   0.00000  Uiso   1.00
H1099  H     0.78798   0.57591   0.90412   0.00000  Uiso   1.00
H1100  H     0.72155   0.93414   0.12125   0.00000  Uiso   1.00
H1101  H     0.68477   0.96238   0.11675   0.00000  Uiso   1.00
H1102  H     0.92027   0.77803   0.90343   0.00000  Uiso   1.00
H1103  H     0.67758   0.55792   0.46513   0.00000  Uiso   1.00
H1104  H     0.94689   0.81621   0.90298   0.00000  Uiso   1.00
H1105  H     0.54478   0.69066   0.11786   0.00000  Uiso   1.00
H1106  H     0.56868   0.73040   0.12132   0.00000  Uiso   1.00
H1107  H     0.67774   0.95494   0.90324   0.00000  Uiso   1.00
H1108  H     0.71235   0.92380   0.90363   0.00000  Uiso   1.00
H1109  H     0.82196   0.54503   0.09714   0.00000  Uiso   1.00
H1110  H     0.78718   0.57596   0.09588   0.00000  Uiso   1.00
H1111  H     0.54446   0.69010   0.88234   0.00000  Uiso   1.00
H1112  H     0.56882   0.72954   0.87884   0.00000  Uiso   1.00
H1113  H     0.95529   0.80943   0.11783   0.00000  Uiso   1.00
H1114  H     0.82062   0.94049   0.53466   0.00000  Uiso   1.00
H1115  H     0.93136   0.76969   0.12090   0.00000  Uiso   1.00
H1116  H     0.68723   0.93180   0.96528   0.00000  Uiso   1.00
N1117  N     0.54470   0.80136   0.39833   0.00000  Uiso   1.00
N1118  N     0.70529   0.94864   0.10167   0.00000  Uiso   1.00
N1119  N     0.94587   0.78848   0.89604   0.00000  Uiso   1.00
N1120  N     0.55612   0.71222   0.10214   0.00000  Uiso   1.00
N1121  N     0.70512   0.95050   0.89626   0.00000  Uiso   1.00
N1122  N     0.79447   0.54939   0.10368   0.00000  Uiso   1.00
N1123  N     0.55604   0.71153   0.89804   0.00000  Uiso   1.00
N1124  N     0.94403   0.78796   0.10191   0.00000  Uiso   1.00
N1125  N     0.95489   0.70073   0.60356   0.00000  Uiso   1.00
N1126  N     0.69632   0.54183   0.39805   0.00000  Uiso   1.00
N1127  N     0.80152   0.95808   0.60375   0.00000  Uiso   1.00
N1128  N     0.95553   0.70061   0.39632   0.00000  Uiso   1.00
N1129  N     0.54488   0.79951   0.60374   0.00000  Uiso   1.00
N1130  N     0.80150   0.95806   0.39632   0.00000  Uiso   1.00
N1131  N     0.69633   0.54185   0.60188   0.00000  Uiso   1.00
N1132  N     0.79512   0.54926   0.89645   0.00000  Uiso   1.00
O1133  O     0.75000   0.50000   0.25000   0.00000  Uiso   1.00
O1134  O     0.75000   0.96964   0.66245   0.00000  Uiso   1.00
O1135  O     0.96963   0.75000   0.33755   0.00000  Uiso   1.00
O1136  O     0.53036   0.75000   0.66245   0.00000  Uiso   1.00
O1137  O     0.50000   0.71964   0.83755   0.00000  Uiso   1.00
O1138  O     0.50000   0.78037   0.16245   0.00000  Uiso   1.00
O1139  O     0.78036   0.50000   0.83755   0.00000  Uiso   1.00
O1140  O     0.71963   0.50000   0.16245   0.00000  Uiso   1.00
O1141  O     0.50000   0.78037   0.83755   0.00000  Uiso   1.00
O1142  O     0.50000   0.71964   0.16245   0.00000  Uiso   1.00
O1143  O     0.71963   0.50000   0.83755   0.00000  Uiso   1.00
O1144  O     0.75000   0.50000   0.75000   0.00000  Uiso   1.00
O1145  O     0.78036   0.50000   0.16245   0.00000  Uiso   1.00
O1146  O     0.70724   0.57308   0.27302   0.00000  Uiso   1.00
O1147  O     0.79275   0.92693   0.72698   0.00000  Uiso   1.00
O1148  O     0.92692   0.70725   0.27302   0.00000  Uiso   1.00
O1149  O     0.57307   0.79276   0.72698   0.00000  Uiso   1.00
O1150  O     0.79275   0.92693   0.27302   0.00000  Uiso   1.00
O1151  O     0.70724   0.57308   0.72698   0.00000  Uiso   1.00
O1152  O     0.57307   0.79276   0.27302   0.00000  Uiso   1.00
O1153  O     0.92692   0.70725   0.72698   0.00000  Uiso   1.00
O1154  O     0.70724   0.92693   0.72698   0.00000  Uiso   1.00
O1155  O     0.50000   0.75000   0.25000   0.00000  Uiso   1.00
O1156  O     0.79275   0.57308   0.27302   0.00000  Uiso   1.00
O1157  O     0.92692   0.79276   0.72698   0.00000  Uiso   1.00
O1158  O     0.57307   0.70725   0.27302   0.00000  Uiso   1.00
O1159  O     0.79275   0.57308   0.72698   0.00000  Uiso   1.00
O1160  O     0.70724   0.92693   0.27302   0.00000  Uiso   1.00
O1161  O     0.57307   0.70725   0.72698   0.00000  Uiso   1.00
O1162  O     0.92692   0.79276   0.27302   0.00000  Uiso   1.00
O1163  O     0.95724   0.82308   0.77302   0.00000  Uiso   1.00
O1164  O     0.54275   0.67693   0.22698   0.00000  Uiso   1.00
O1165  O     0.67692   0.95725   0.77302   0.00000  Uiso   1.00
O1166  O     0.50000   0.75000   0.75000   0.00000  Uiso   1.00
O1167  O     0.82307   0.54276   0.22698   0.00000  Uiso   1.00
O1168  O     0.54275   0.67693   0.77302   0.00000  Uiso   1.00
O1169  O     0.95724   0.82308   0.22698   0.00000  Uiso   1.00
O1170  O     0.82307   0.54276   0.77302   0.00000  Uiso   1.00
O1171  O     0.67692   0.95725   0.22698   0.00000  Uiso   1.00
O1172  O     0.95724   0.67693   0.22698   0.00000  Uiso   1.00
O1173  O     0.54275   0.82308   0.77302   0.00000  Uiso   1.00
O1174  O     0.67692   0.54276   0.22698   0.00000  Uiso   1.00
O1175  O     0.82307   0.95725   0.77302   0.00000  Uiso   1.00
O1176  O     0.54275   0.82308   0.22698   0.00000  Uiso   1.00
O1177  O     0.75000   0.96964   0.33755   0.00000  Uiso   1.00
O1178  O     0.95724   0.67693   0.77302   0.00000  Uiso   1.00
O1179  O     0.82307   0.95725   0.22698   0.00000  Uiso   1.00
O1180  O     0.67692   0.54276   0.77302   0.00000  Uiso   1.00
O1181  O     0.75000   0.53037   0.66245   0.00000  Uiso   1.00
O1182  O     0.53036   0.75000   0.33755   0.00000  Uiso   1.00
O1183  O     0.96963   0.75000   0.66245   0.00000  Uiso   1.00
O1184  O     0.75000   0.53037   0.33755   0.00000  Uiso   1.00
Zn1185 Zn    0.70659   0.50000   0.21735   0.00000  Uiso   1.00
Zn1186 Zn    0.54340   0.75000   0.28265   0.00000  Uiso   1.00
Zn1187 Zn    0.75000   0.95660   0.71735   0.00000  Uiso   1.00
Zn1188 Zn    0.75000   0.54341   0.28265   0.00000  Uiso   1.00
Zn1189 Zn    0.54340   0.75000   0.71735   0.00000  Uiso   1.00
Zn1190 Zn    0.95659   0.75000   0.28265   0.00000  Uiso   1.00
Zn1191 Zn    0.75000   0.54341   0.71735   0.00000  Uiso   1.00
Zn1192 Zn    0.75000   0.95660   0.28265   0.00000  Uiso   1.00
Zn1193 Zn    0.79340   0.50000   0.78265   0.00000  Uiso   1.00
Zn1194 Zn    0.50000   0.70660   0.21735   0.00000  Uiso   1.00
Zn1195 Zn    0.50000   0.79341   0.78265   0.00000  Uiso   1.00
Zn1196 Zn    0.79340   0.50000   0.21735   0.00000  Uiso   1.00
Zn1197 Zn    0.70659   0.50000   0.78265   0.00000  Uiso   1.00
Zn1198 Zn    0.50000   0.79341   0.21735   0.00000  Uiso   1.00
Zn1199 Zn    0.50000   0.70660   0.78265   0.00000  Uiso   1.00
Zn1200 Zn    0.95659   0.75000   0.71735   0.00000  Uiso   1.00
loop_
_geom_bond_atom_site_label_1
_geom_bond_atom_site_label_2
_geom_bond_distance
_geom_bond_site_symmetry_2
_ccdc_geom_bond_type
C1     C46     1.412   .     A
C1     N217    1.438   .     S
C1     C4      1.402   .     A
C2     C52     1.412   .     A
C2     C14     1.402   .     A
C2     N218    1.438   .     S
C3     C115    1.402   .     A
C3     C58     1.403   .     A
C3     C638    1.415   1_545 S
C4     C59     1.403   .     A
C4     C334    1.414   1_455 S
C5     C36     1.416   .     A
C5     C49     1.408   .     A
C5     C61     1.404   .     A
C6     C62     1.403   .     A
C6     C60     1.402   .     A
C6     C637    1.415   1_545 S
C7     C63     1.405   .     A
C7     C71     1.409   .     A
C7     C38     1.415   .     A
C8     C35     1.407   .     A
C8     C64     1.404   .     A
C8     C39     1.417   .     A
C9     C65     1.404   .     A
C9     C43     1.408   .     A
C9     C640    1.415   1_545 S
C10    C41     1.415   .     A
C10    C66     1.404   .     A
C10    C44     1.402   .     A
C11    C45     1.403   .     A
C11    C67     1.403   .     A
C11    C342    1.414   .     S
C12    C126    1.408   .     A
C12    C68     1.404   .     A
C12    C639    1.416   1_545 S
C13    N219    1.438   .     S
C13    C15     1.409   .     A
C13    C353    1.405   .     S
C14    C69     1.403   .     A
C14    C40     1.414   .     A
C15    C70     1.405   .     A
C15    C341    1.416   .     S
C16    C72     1.404   .     A
C16    C24     1.403   .     A
C16    C42     1.414   .     A
C17    C118    1.402   .     A
C17    C88     1.456   .     S
C17    C116    1.402   .     A
C18    C89     1.456   .     S
C18    C117    1.402   .     A
C18    C114    1.402   .     A
C19    C113    1.402   .     A
C19    C120    1.402   .     A
C19    C81     1.456   .     S
C20    C112    1.402   .     A
C20    C119    1.402   .     A
C20    C83     1.456   .     S
C21    C122    1.402   .     A
C21    C111    1.402   .     A
C21    C84     1.456   .     S
C22    C85     1.456   .     S
C22    C110    1.402   .     A
C22    C121    1.402   .     A
C23    C86     1.456   .     S
C23    C109    1.402   .     A
C23    C124    1.402   .     A
C24    C54     1.412   .     A
C24    N220    1.438   .     S
C25    C123    1.402   .     A
C25    C87     1.456   .     S
C25    C108    1.402   .     A
C26    C127    1.402   .     A
C26    C97     1.456   .     S
C26    C107    1.402   .     A
C27    C106    1.402   .     A
C27    C125    1.402   .     A
C27    C98     1.456   .     S
C28    C90     1.456   .     S
C28    C105    1.402   .     A
C28    C129    1.402   .     A
C29    C91     1.456   .     S
C29    C103    1.402   .     A
C29    C128    1.402   .     A
C30    C131    1.402   .     A
C30    C102    1.402   .     A
C30    C92     1.456   .     S
C31    C101    1.402   .     A
C31    C130    1.402   .     A
C31    C94     1.456   .     S
C32    C133    1.402   .     A
C32    C100    1.402   .     A
C32    C95     1.456   .     S
C33    C99     1.402   .     A
C33    C132    1.402   .     A
C33    C96     1.456   .     S
C34    C134    1.415   .     A
C34    C36     1.414   .     A
C34    C304    1.414   .     S
C35    N221    1.438   .     S
C35    C51     1.405   .     A
C36    C435    1.417   .     S
C37    C38     1.413   .     A
C37    C136    1.415   .     A
C37    C606    1.415   .     S
C38    C603    1.415   .     S
C39    C612    1.416   .     S
C39    C40     1.414   1_556 S
C40    C609    1.415   .     S
C40    C39     1.414   1_554 S
C41    C315    1.416   1_455 S
C41    C42     1.413   1_556 S
C42    C311    1.414   1_455 S
C42    C41     1.413   1_554 S
C43    N222    1.438   .     S
C43    C652    1.406   1_545 S
C44    C53     1.410   .     A
C44    N223    1.438   .     S
C45    N224    1.438   .     S
C45    C354    1.412   .     S
C46    C75     1.460   .     S
C46    C382    1.406   1_455 S
C47    C76     1.459   .     S
C47    C49     1.405   .     A
C47    C393    1.405   .     S
C48    C704    1.406   1_545 A
C48    C60     1.411   .     S
C48    C73     1.459   .     S
C49    N225    1.438   .     S
C50    C74     1.459   .     S
C50    C115    1.411   .     A
C50    C671    1.406   1_545 S
C51    C679    1.459   .     S
C51    C726    1.405   .     S
C52    C80     1.460   .     S
C52    C643    1.406   .     S
C53    C77     1.458   .     S
C53    C313    1.405   1_455 S
C54    C345    1.412   1_455 S
C54    C378    1.460   1_455 S
C55    H137    1.082   .     S
C55    C61     1.387   .     A
C55    C134    1.404   .     A
C56    C59     1.386   .     A
C56    H148    1.082   .     S
C56    C135    1.404   .     A
C57    H159    1.082   .     S
C57    C63     1.388   .     A
C57    C136    1.404   .     A
C58    C62     1.387   .     A
C58    H170    1.083   .     S
C59    H181    1.083   .     S
C60    N226    1.438   .     S
C61    H192    1.082   .     S
C62    H203    1.083   .     S
C63    H214    1.082   .     S
C64    H216    1.082   .     S
C64    C69     1.386   1_556 S
C65    H138    1.082   .     S
C65    C68     1.387   1_554 S
C66    H139    1.083   .     S
C66    C72     1.388   1_556 S
C67    H140    1.083   .     S
C67    C70     1.388   1_554 S
C68    H141    1.082   .     S
C68    C65     1.387   1_556 S
C69    H142    1.083   .     S
C69    C64     1.386   1_554 S
C70    H143    1.082   .     S
C70    C67     1.388   1_556 S
C71    N227    1.438   .     S
C71    C650    1.406   .     S
C72    H144    1.083   .     S
C72    C66     1.388   1_554 S
C73    O284    1.278   .     A
C73    O877    1.280   1_545 S
C74    O281    1.278   .     A
C74    O834    1.280   1_545 S
C75    O282    1.278   .     A
C75    O535    1.280   1_455 S
C76    O283    1.279   .     A
C76    O536    1.279   .     S
C77    O241    1.279   .     A
C77    O237    1.278   .     A
C78    C354    1.460   .     S
C78    O538    1.279   .     S
C78    O542    1.279   .     S
C79    O243    1.279   .     A
C79    O239    1.279   .     A
C79    C651    1.459   1_545 S
C80    O840    1.278   .     A
C80    O845    1.280   .     A
C81    O274    1.282   .     A
C81    O246    1.282   .     A
C82    N228    1.438   .     S
C82    C134    1.408   .     A
C82    C346    1.406   .     S
C83    O247    1.282   .     A
C83    O275    1.282   .     A
C84    O248    1.282   .     A
C84    O272    1.282   .     A
C85    O249    1.282   .     A
C85    O273    1.282   .     A
C86    O250    1.282   .     A
C86    O279    1.282   .     A
C87    O280    1.282   .     A
C87    O251    1.282   .     A
C88    O252    1.282   .     A
C88    O276    1.282   .     A
C89    O253    1.282   .     A
C89    O278    1.282   .     A
C90    O265    1.282   .     A
C90    O254    1.282   .     A
C91    O267    1.282   .     A
C91    O256    1.282   .     A
C92    O257    1.282   .     A
C92    O263    1.282   .     A
C93    C135    1.407   .     A
C93    N229    1.438   .     S
C93    C347    1.405   1_455 S
C94    O264    1.282   .     A
C94    O258    1.282   .     A
C95    O270    1.282   .     A
C95    O259    1.282   .     A
C96    O271    1.282   .     A
C96    O260    1.282   .     A
C97    O261    1.282   .     A
C97    O268    1.282   .     A
C98    O269    1.282   .     A
C98    O262    1.282   .     A
C99    C116    1.386   .     A
C99    H145    1.083   .     S
C100   C114    1.386   .     A
C100   H146    1.083   .     S
C101   C113    1.386   .     A
C101   H147    1.083   .     S
C102   H149    1.083   .     S
C102   C112    1.386   .     A
C103   H150    1.083   .     S
C103   C111    1.386   .     A
C104   C136    1.409   .     A
C104   N230    1.438   .     S
C104   C648    1.406   .     A
C105   C110    1.386   .     A
C105   H151    1.083   .     S
C106   H152    1.083   .     S
C106   C109    1.386   .     A
C107   C108    1.386   .     A
C107   H153    1.083   .     S
C108   H154    1.083   .     S
C109   H155    1.083   .     S
C110   H156    1.083   .     S
C111   H157    1.083   .     S
C112   H158    1.083   .     S
C113   H160    1.083   .     S
C114   H161    1.083   .     S
C115   N231    1.438   .     S
C116   H162    1.083   .     S
C117   C133    1.386   .     A
C117   H163    1.083   .     S
C118   H164    1.083   .     S
C118   C132    1.386   .     A
C119   C131    1.386   .     A
C119   H165    1.083   .     S
C120   H166    1.083   .     S
C120   C130    1.386   .     A
C121   H167    1.083   .     S
C121   C129    1.386   .     A
C122   H168    1.083   .     S
C122   C128    1.386   .     A
C123   C127    1.386   .     A
C123   H169    1.083   .     S
C124   H171    1.083   .     S
C124   C125    1.386   .     A
C125   H172    1.083   .     S
C126   N232    1.438   .     S
C126   C651    1.405   1_545 S
C127   H173    1.083   .     S
C128   H174    1.083   .     S
C129   H175    1.083   .     S
C130   H176    1.083   .     S
C131   H177    1.083   .     S
C132   H178    1.083   .     S
C133   H179    1.083   .     S
C135   C336    1.417   1_455 S
H180   N217    1.046   .     S
H182   N217    1.044   .     S
H183   N225    1.045   .     S
H184   N225    1.045   .     S
H185   N226    1.045   .     S
H186   N226    1.046   .     S
H187   N227    1.045   .     S
H188   N227    1.045   .     S
H189   N228    1.045   .     S
H190   N228    1.045   .     S
H191   N229    1.045   .     S
H193   N229    1.045   .     S
H194   N230    1.045   .     S
H195   N230    1.045   .     S
H196   N231    1.045   .     S
H197   N231    1.046   .     S
H198   N232    1.045   .     S
H199   N232    1.045   .     S
H200   N218    1.046   .     S
H201   N218    1.044   .     S
H202   N219    1.045   .     S
H204   N219    1.045   .     S
H205   N220    1.045   .     S
H206   N220    1.046   .     S
H207   N221    1.045   .     S
H208   N221    1.045   .     S
H209   N222    1.045   .     S
H210   N222    1.045   .     S
H211   N223    1.045   .     S
H212   N223    1.046   .     S
H213   N224    1.045   .     S
H215   N224    1.046   .     S
O233   Zn288   1.949   .     S
O233   Zn296   1.950   .     S
O233   Zn285   1.949   .     S
O233   Zn892   1.949   1_545 S
O234   Zn287   1.951   .     S
O234   C674    1.280   .     S
O235   Zn290   1.951   .     S
O235   C375    1.280   .     S
O236   Zn289   1.951   .     S
O236   C376    1.279   1_455 S
O237   Zn299   1.952   .     S
O238   Zn298   1.952   .     S
O238   C378    1.279   1_455 S
O239   Zn293   1.952   .     S
O240   C680    1.278   1_545 A
O240   Zn285   1.952   .     S
O241   Zn295   1.951   .     S
O242   Zn294   1.951   .     S
O242   C378    1.279   1_455 S
O243   Zn297   1.951   .     S
O244   Zn291   1.949   .     S
O244   Zn887   1.949   1_545 S
O244   Zn293   1.949   .     S
O244   Zn297   1.950   .     S
O245   C680    1.280   1_545 A
O245   Zn296   1.951   .     S
O246   Zn288   1.937   .     S
O247   Zn287   1.937   .     S
O248   Zn290   1.937   .     S
O249   Zn289   1.937   .     S
O250   Zn292   1.937   .     S
O251   Zn291   1.937   .     S
O252   Zn286   1.937   .     S
O253   Zn300   1.937   .     S
O254   Zn287   1.937   .     S
O255   Zn286   1.949   .     S
O255   Zn294   1.949   .     S
O255   Zn298   1.949   .     S
O255   Zn590   1.950   1_455 S
O256   Zn288   1.937   .     S
O257   Zn300   1.937   .     S
O258   Zn286   1.937   .     S
O259   Zn291   1.937   .     S
O260   Zn292   1.937   .     S
O261   Zn289   1.937   .     S
O262   Zn290   1.937   .     S
O263   Zn595   1.937   .     S
O264   Zn294   1.937   .     S
O265   Zn897   1.937   .     S
O266   Zn295   1.949   .     S
O266   Zn299   1.949   .     S
O266   Zn289   1.950   .     S
O266   Zn600   1.949   1_455 S
O267   Zn296   1.937   .     S
O268   Zn299   1.937   .     S
O269   Zn598   1.937   .     S
O270   Zn293   1.937   .     S
O271   Zn885   1.937   .     S
O272   Zn594   1.937   .     S
O273   Zn295   1.937   .     S
O274   Zn285   1.937   .     S
O275   Zn893   1.937   .     S
O276   Zn298   1.937   .     S
O277   Zn292   1.952   .     S
O277   C673    1.280   .     S
O278   Zn599   1.937   .     S
O279   Zn896   1.937   .     S
O280   Zn297   1.937   .     S
O281   Zn291   1.952   .     S
O282   Zn286   1.952   .     S
O283   Zn300   1.952   .     S
O284   Zn288   1.951   .     S
Zn285  O871    1.937   1_545 S
Zn287  O844    1.949   .     S
Zn290  O555    1.950   .     S
Zn292  O833    1.949   .     S
Zn293  O875    1.937   1_545 S
Zn294  O572    1.937   1_455 S
Zn295  O563    1.937   1_455 S
Zn296  O879    1.937   1_545 S
Zn297  O865    1.937   1_545 S
Zn298  O569    1.937   1_455 S
Zn299  O578    1.937   1_455 S
Zn300  O566    1.949   .     S
C301   C346    1.412   .     A
C301   N517    1.438   .     S
C301   C304    1.402   .     A
C302   C352    1.412   .     A
C302   C314    1.402   .     A
C302   N518    1.438   .     S
C303   C415    1.402   .     A
C303   C358    1.403   .     A
C303   C938    1.415   1_545 S
C304   C359    1.403   .     A
C305   C336    1.416   .     A
C305   C349    1.408   .     A
C305   C361    1.404   .     A
C306   C362    1.403   .     A
C306   C360    1.402   .     A
C306   C937    1.415   1_545 S
C307   C363    1.405   .     A
C307   C371    1.409   .     A
C307   C338    1.415   .     A
C308   C335    1.407   .     A
C308   C364    1.404   .     A
C308   C339    1.417   .     A
C309   C365    1.404   .     A
C309   C343    1.408   .     A
C309   C940    1.415   1_545 S
C310   C341    1.415   .     A
C310   C366    1.404   .     A
C310   C344    1.402   .     A
C311   C345    1.403   .     A
C311   C367    1.403   .     A
C311   C42     1.414   1_655 S
C312   C426    1.408   .     A
C312   C368    1.404   .     A
C312   C939    1.416   1_545 S
C313   N519    1.438   .     S
C313   C315    1.409   .     A
C313   C53     1.405   1_655 S
C314   C369    1.403   .     A
C314   C340    1.414   .     A
C315   C370    1.405   .     A
C315   C41     1.416   1_655 S
C316   C372    1.404   .     A
C316   C324    1.403   .     A
C316   C342    1.414   .     A
C317   C418    1.402   .     A
C317   C388    1.456   .     S
C317   C416    1.402   .     A
C318   C389    1.456   .     S
C318   C417    1.402   .     A
C318   C414    1.402   .     A
C319   C413    1.402   .     A
C319   C420    1.402   .     A
C319   C381    1.456   .     S
C320   C412    1.402   .     A
C320   C419    1.402   .     A
C320   C383    1.456   .     S
C321   C422    1.402   .     A
C321   C411    1.402   .     A
C321   C384    1.456   .     S
C322   C385    1.456   .     S
C322   C410    1.402   .     A
C322   C421    1.402   .     A
C323   C386    1.456   .     S
C323   C409    1.402   .     A
C323   C424    1.402   .     A
C324   C354    1.412   .     A
C324   N520    1.438   .     S
C325   C423    1.402   .     A
C325   C387    1.456   .     S
C325   C408    1.402   .     A
C326   C427    1.402   .     A
C326   C397    1.456   .     S
C326   C407    1.402   .     A
C327   C406    1.402   .     A
C327   C425    1.402   .     A
C327   C398    1.456   .     S
C328   C390    1.456   .     S
C328   C405    1.402   .     A
C328   C429    1.402   .     A
C329   C391    1.456   .     S
C329   C403    1.402   .     A
C329   C428    1.402   .     A
C330   C431    1.402   .     A
C330   C402    1.402   .     A
C330   C392    1.456   .     S
C331   C401    1.402   .     A
C331   C430    1.402   .     A
C331   C394    1.456   .     S
C332   C433    1.402   .     A
C332   C400    1.402   .     A
C332   C395    1.456   .     S
C333   C399    1.402   .     A
C333   C432    1.402   .     A
C333   C396    1.456   .     S
C334   C434    1.415   .     A
C334   C336    1.414   .     A
C334   C4      1.414   1_655 S
C335   N521    1.438   .     S
C335   C351    1.405   .     A
C336   C135    1.417   1_655 S
C337   C338    1.413   .     A
C337   C436    1.415   .     A
C337   C906    1.415   .     S
C338   C903    1.415   .     S
C339   C912    1.416   .     S
C339   C340    1.414   1_556 S
C340   C909    1.415   .     S
C340   C339    1.414   1_554 S
C341   C342    1.413   1_556 S
C342   C341    1.413   1_554 S
C343   N522    1.438   .     S
C343   C952    1.406   1_545 S
C344   C353    1.410   .     A
C344   N523    1.438   .     S
C345   N524    1.438   .     S
C345   C54     1.412   1_655 S
C346   C375    1.460   .     S
C347   C376    1.459   .     S
C347   C349    1.405   .     A
C347   C93     1.405   1_655 S
C348   C1004   1.406   1_545 A
C348   C360    1.411   .     S
C348   C373    1.459   .     S
C349   N525    1.438   .     S
C350   C374    1.459   .     S
C350   C415    1.411   .     A
C350   C971    1.406   1_545 S
C351   C979    1.459   .     S
C351   C1026   1.405   .     S
C352   C380    1.460   .     S
C352   C943    1.406   .     S
C353   C377    1.458   .     S
C355   H437    1.082   .     S
C355   C361    1.387   .     A
C355   C434    1.404   .     A
C356   C359    1.386   .     A
C356   H448    1.082   .     S
C356   C435    1.404   .     A
C357   H459    1.082   .     S
C357   C363    1.388   .     A
C357   C436    1.404   .     A
C358   C362    1.387   .     A
C358   H470    1.083   .     S
C359   H481    1.083   .     S
C360   N526    1.438   .     S
C361   H492    1.082   .     S
C362   H503    1.083   .     S
C363   H514    1.082   .     S
C364   H516    1.082   .     S
C364   C369    1.386   1_556 S
C365   H438    1.082   .     S
C365   C368    1.387   1_554 S
C366   H439    1.083   .     S
C366   C372    1.388   1_556 S
C367   H440    1.083   .     S
C367   C370    1.388   1_554 S
C368   H441    1.082   .     S
C368   C365    1.387   1_556 S
C369   H442    1.083   .     S
C369   C364    1.386   1_554 S
C370   H443    1.082   .     S
C370   C367    1.388   1_556 S
C371   N527    1.438   .     S
C371   C950    1.406   .     S
C372   H444    1.083   .     S
C372   C366    1.388   1_554 S
C373   O584    1.278   .     A
C373   O1177   1.280   1_545 S
C374   O581    1.278   .     A
C374   O1134   1.280   1_545 S
C375   O582    1.278   .     A
C376   O583    1.279   .     A
C376   O236    1.279   1_655 S
C377   O541    1.279   .     A
C377   O537    1.278   .     A
C378   C54     1.460   1_655 S
C378   O238    1.279   1_655 S
C378   O242    1.279   1_655 S
C379   O543    1.279   .     A
C379   O539    1.279   .     A
C379   C951    1.459   1_545 S
C380   O1140   1.278   .     A
C380   O1145   1.280   .     A
C381   O574    1.282   .     A
C381   O546    1.282   .     A
C382   N528    1.438   .     S
C382   C434    1.408   .     A
C382   C46     1.406   1_655 S
C383   O547    1.282   .     A
C383   O575    1.282   .     A
C384   O548    1.282   .     A
C384   O572    1.282   .     A
C385   O549    1.282   .     A
C385   O573    1.282   .     A
C386   O550    1.282   .     A
C386   O579    1.282   .     A
C387   O580    1.282   .     A
C387   O551    1.282   .     A
C388   O552    1.282   .     A
C388   O576    1.282   .     A
C389   O553    1.282   .     A
C389   O578    1.282   .     A
C390   O565    1.282   .     A
C390   O554    1.282   .     A
C391   O567    1.282   .     A
C391   O556    1.282   .     A
C392   O557    1.282   .     A
C392   O563    1.282   .     A
C393   C435    1.407   .     A
C393   N529    1.438   .     S
C394   O564    1.282   .     A
C394   O558    1.282   .     A
C395   O570    1.282   .     A
C395   O559    1.282   .     A
C396   O571    1.282   .     A
C396   O560    1.282   .     A
C397   O561    1.282   .     A
C397   O568    1.282   .     A
C398   O569    1.282   .     A
C398   O562    1.282   .     A
C399   C416    1.386   .     A
C399   H445    1.083   .     S
C400   C414    1.386   .     A
C400   H446    1.083   .     S
C401   C413    1.386   .     A
C401   H447    1.083   .     S
C402   H449    1.083   .     S
C402   C412    1.386   .     A
C403   H450    1.083   .     S
C403   C411    1.386   .     A
C404   C436    1.409   .     A
C404   N530    1.438   .     S
C404   C948    1.406   .     A
C405   C410    1.386   .     A
C405   H451    1.083   .     S
C406   H452    1.083   .     S
C406   C409    1.386   .     A
C407   C408    1.386   .     A
C407   H453    1.083   .     S
C408   H454    1.083   .     S
C409   H455    1.083   .     S
C410   H456    1.083   .     S
C411   H457    1.083   .     S
C412   H458    1.083   .     S
C413   H460    1.083   .     S
C414   H461    1.083   .     S
C415   N531    1.438   .     S
C416   H462    1.083   .     S
C417   C433    1.386   .     A
C417   H463    1.083   .     S
C418   H464    1.083   .     S
C418   C432    1.386   .     A
C419   C431    1.386   .     A
C419   H465    1.083   .     S
C420   H466    1.083   .     S
C420   C430    1.386   .     A
C421   H467    1.083   .     S
C421   C429    1.386   .     A
C422   H468    1.083   .     S
C422   C428    1.386   .     A
C423   C427    1.386   .     A
C423   H469    1.083   .     S
C424   H471    1.083   .     S
C424   C425    1.386   .     A
C425   H472    1.083   .     S
C426   N532    1.438   .     S
C426   C951    1.405   1_545 S
C427   H473    1.083   .     S
C428   H474    1.083   .     S
C429   H475    1.083   .     S
C430   H476    1.083   .     S
C431   H477    1.083   .     S
C432   H478    1.083   .     S
C433   H479    1.083   .     S
H480   N517    1.046   .     S
H482   N517    1.044   .     S
H483   N525    1.045   .     S
H484   N525    1.045   .     S
H485   N526    1.045   .     S
H486   N526    1.046   .     S
H487   N527    1.045   .     S
H488   N527    1.045   .     S
H489   N528    1.045   .     S
H490   N528    1.045   .     S
H491   N529    1.045   .     S
H493   N529    1.045   .     S
H494   N530    1.045   .     S
H495   N530    1.045   .     S
H496   N531    1.045   .     S
H497   N531    1.046   .     S
H498   N532    1.045   .     S
H499   N532    1.045   .     S
H500   N518    1.046   .     S
H501   N518    1.044   .     S
H502   N519    1.045   .     S
H504   N519    1.045   .     S
H505   N520    1.045   .     S
H506   N520    1.046   .     S
H507   N521    1.045   .     S
H508   N521    1.045   .     S
H509   N522    1.045   .     S
H510   N522    1.045   .     S
H511   N523    1.045   .     S
H512   N523    1.046   .     S
H513   N524    1.045   .     S
H515   N524    1.046   .     S
O533   Zn588   1.949   .     S
O533   Zn596   1.950   .     S
O533   Zn585   1.949   .     S
O533   Zn1192  1.949   1_545 S
O534   Zn587   1.951   .     S
O534   C974    1.280   .     S
O535   Zn590   1.951   .     S
O535   C75     1.280   1_655 S
O536   Zn589   1.951   .     S
O537   Zn599   1.952   .     S
O538   Zn598   1.952   .     S
O539   Zn593   1.952   .     S
O540   C980    1.278   1_545 A
O540   Zn585   1.952   .     S
O541   Zn595   1.951   .     S
O542   Zn594   1.951   .     S
O543   Zn597   1.951   .     S
O544   Zn591   1.949   .     S
O544   Zn1187  1.949   1_545 S
O544   Zn593   1.949   .     S
O544   Zn597   1.950   .     S
O545   C980    1.280   1_545 A
O545   Zn596   1.951   .     S
O546   Zn588   1.937   .     S
O547   Zn587   1.937   .     S
O548   Zn590   1.937   .     S
O549   Zn589   1.937   .     S
O550   Zn592   1.937   .     S
O551   Zn591   1.937   .     S
O552   Zn586   1.937   .     S
O553   Zn600   1.937   .     S
O554   Zn587   1.937   .     S
O555   Zn586   1.949   .     S
O555   Zn594   1.949   .     S
O555   Zn598   1.949   .     S
O556   Zn588   1.937   .     S
O557   Zn600   1.937   .     S
O558   Zn586   1.937   .     S
O559   Zn591   1.937   .     S
O560   Zn592   1.937   .     S
O561   Zn589   1.937   .     S
O562   Zn590   1.937   .     S
O563   Zn295   1.937   1_655 S
O564   Zn594   1.937   .     S
O565   Zn1197  1.937   .     S
O566   Zn595   1.949   .     S
O566   Zn599   1.949   .     S
O566   Zn589   1.950   .     S
O567   Zn596   1.937   .     S
O568   Zn599   1.937   .     S
O569   Zn298   1.937   1_655 S
O570   Zn593   1.937   .     S
O571   Zn1185  1.937   .     S
O572   Zn294   1.937   1_655 S
O573   Zn595   1.937   .     S
O574   Zn585   1.937   .     S
O575   Zn1193  1.937   .     S
O576   Zn598   1.937   .     S
O577   Zn592   1.952   .     S
O577   C973    1.280   .     S
O578   Zn299   1.937   1_655 S
O579   Zn1196  1.937   .     S
O580   Zn597   1.937   .     S
O581   Zn591   1.952   .     S
O582   Zn586   1.952   .     S
O583   Zn600   1.952   .     S
O584   Zn588   1.951   .     S
Zn585  O1171   1.937   1_545 S
Zn587  O1144   1.949   .     S
Zn590  O255    1.950   1_655 S
Zn592  O1133   1.949   .     S
Zn593  O1175   1.937   1_545 S
Zn596  O1179   1.937   1_545 S
Zn597  O1165   1.937   1_545 S
Zn600  O266    1.949   1_655 S
C601   C646    1.412   .     A
C601   N817    1.438   .     S
C601   C604    1.402   .     A
C602   C652    1.412   .     A
C602   C614    1.402   .     A
C602   N818    1.438   .     S
C603   C715    1.402   .     A
C603   C658    1.403   .     A
C604   C659    1.403   .     A
C604   C934    1.414   1_455 S
C605   C636    1.416   .     A
C605   C649    1.408   .     A
C605   C661    1.404   .     A
C606   C662    1.403   .     A
C606   C660    1.402   .     A
C607   C663    1.405   .     A
C607   C671    1.409   .     A
C607   C638    1.415   .     A
C608   C635    1.407   .     A
C608   C664    1.404   .     A
C608   C639    1.417   .     A
C609   C665    1.404   .     A
C609   C643    1.408   .     A
C610   C641    1.415   .     A
C610   C666    1.404   .     A
C610   C644    1.402   .     A
C611   C645    1.403   .     A
C611   C667    1.403   .     A
C611   C942    1.414   .     S
C612   C726    1.408   .     A
C612   C668    1.404   .     A
C613   N819    1.438   .     S
C613   C615    1.409   .     A
C613   C953    1.405   .     S
C614   C669    1.403   .     A
C614   C640    1.414   .     A
C615   C670    1.405   .     A
C615   C941    1.416   .     S
C616   C672    1.404   .     A
C616   C624    1.403   .     A
C616   C642    1.414   .     A
C617   C718    1.402   .     A
C617   C688    1.456   .     S
C617   C716    1.402   .     A
C618   C689    1.456   .     S
C618   C717    1.402   .     A
C618   C714    1.402   .     A
C619   C713    1.402   .     A
C619   C720    1.402   .     A
C619   C681    1.456   .     S
C620   C712    1.402   .     A
C620   C719    1.402   .     A
C620   C683    1.456   .     S
C621   C722    1.402   .     A
C621   C711    1.402   .     A
C621   C684    1.456   .     S
C622   C685    1.456   .     S
C622   C710    1.402   .     A
C622   C721    1.402   .     A
C623   C686    1.456   .     S
C623   C709    1.402   .     A
C623   C724    1.402   .     A
C624   C654    1.412   .     A
C624   N820    1.438   .     S
C625   C723    1.402   .     A
C625   C687    1.456   .     S
C625   C708    1.402   .     A
C626   C727    1.402   .     A
C626   C697    1.456   .     S
C626   C707    1.402   .     A
C627   C706    1.402   .     A
C627   C725    1.402   .     A
C627   C698    1.456   .     S
C628   C690    1.456   .     S
C628   C705    1.402   .     A
C628   C729    1.402   .     A
C629   C691    1.456   .     S
C629   C703    1.402   .     A
C629   C728    1.402   .     A
C630   C731    1.402   .     A
C630   C702    1.402   .     A
C630   C692    1.456   .     S
C631   C701    1.402   .     A
C631   C730    1.402   .     A
C631   C694    1.456   .     S
C632   C733    1.402   .     A
C632   C700    1.402   .     A
C632   C695    1.456   .     S
C633   C699    1.402   .     A
C633   C732    1.402   .     A
C633   C696    1.456   .     S
C634   C734    1.415   .     A
C634   C636    1.414   .     A
C634   C904    1.414   .     S
C635   N821    1.438   .     S
C635   C651    1.405   .     A
C636   C1035   1.417   .     S
C637   C638    1.413   .     A
C637   C736    1.415   .     A
C637   C6      1.415   1_565 S
C638   C3      1.415   1_565 S
C639   C12     1.416   1_565 S
C639   C640    1.414   1_556 S
C640   C9      1.415   1_565 S
C640   C639    1.414   1_554 S
C641   C915    1.416   1_455 S
C641   C642    1.413   1_556 S
C642   C911    1.414   1_455 S
C642   C641    1.413   1_554 S
C643   N822    1.438   .     S
C644   C653    1.410   .     A
C644   N823    1.438   .     S
C645   N824    1.438   .     S
C645   C954    1.412   .     S
C646   C675    1.460   .     S
C646   C982    1.406   1_455 S
C647   C676    1.459   .     S
C647   C649    1.405   .     A
C647   C993    1.405   .     S
C648   C660    1.411   .     S
C648   C673    1.459   .     S
C649   N825    1.438   .     S
C650   C674    1.459   .     S
C650   C715    1.411   .     A
C651   C79     1.459   1_565 S
C651   C126    1.405   1_565 S
C652   C680    1.460   .     S
C652   C43     1.406   1_565 S
C653   C677    1.458   .     S
C653   C913    1.405   1_455 S
C654   C945    1.412   1_455 S
C654   C978    1.460   1_455 S
C655   H737    1.082   .     S
C655   C661    1.387   .     A
C655   C734    1.404   .     A
C656   C659    1.386   .     A
C656   H748    1.082   .     S
C656   C735    1.404   .     A
C657   H759    1.082   .     S
C657   C663    1.388   .     A
C657   C736    1.404   .     A
C658   C662    1.387   .     A
C658   H770    1.083   .     S
C659   H781    1.083   .     S
C660   N826    1.438   .     S
C661   H792    1.082   .     S
C662   H803    1.083   .     S
C663   H814    1.082   .     S
C664   H816    1.082   .     S
C664   C669    1.386   1_556 S
C665   H738    1.082   .     S
C665   C668    1.387   1_554 S
C666   H739    1.083   .     S
C666   C672    1.388   1_556 S
C667   H740    1.083   .     S
C667   C670    1.388   1_554 S
C668   H741    1.082   .     S
C668   C665    1.387   1_556 S
C669   H742    1.083   .     S
C669   C664    1.386   1_554 S
C670   H743    1.082   .     S
C670   C667    1.388   1_556 S
C671   N827    1.438   .     S
C671   C50     1.406   1_565 S
C672   H744    1.083   .     S
C672   C666    1.388   1_554 S
C673   O884    1.278   .     A
C674   O881    1.278   .     A
C675   O882    1.278   .     A
C675   O1135   1.280   1_455 S
C676   O883    1.279   .     A
C676   O1136   1.279   .     S
C677   O841    1.279   .     A
C677   O837    1.278   .     A
C678   C954    1.460   .     S
C678   O1138   1.279   .     S
C678   O1142   1.279   .     S
C679   O843    1.279   .     A
C679   O839    1.279   .     A
C680   O240    1.278   1_565 A
C680   O245    1.280   1_565 A
C681   O874    1.282   .     A
C681   O846    1.282   .     A
C682   N828    1.438   .     S
C682   C734    1.408   .     A
C682   C946    1.406   .     S
C683   O847    1.282   .     A
C683   O875    1.282   .     A
C684   O848    1.282   .     A
C684   O872    1.282   .     A
C685   O849    1.282   .     A
C685   O873    1.282   .     A
C686   O850    1.282   .     A
C686   O879    1.282   .     A
C687   O880    1.282   .     A
C687   O851    1.282   .     A
C688   O852    1.282   .     A
C688   O876    1.282   .     A
C689   O853    1.282   .     A
C689   O878    1.282   .     A
C690   O865    1.282   .     A
C690   O854    1.282   .     A
C691   O867    1.282   .     A
C691   O856    1.282   .     A
C692   O857    1.282   .     A
C692   O863    1.282   .     A
C693   C735    1.407   .     A
C693   N829    1.438   .     S
C693   C947    1.405   1_455 S
C694   O864    1.282   .     A
C694   O858    1.282   .     A
C695   O870    1.282   .     A
C695   O859    1.282   .     A
C696   O871    1.282   .     A
C696   O860    1.282   .     A
C697   O861    1.282   .     A
C697   O868    1.282   .     A
C698   O869    1.282   .     A
C698   O862    1.282   .     A
C699   C716    1.386   .     A
C699   H745    1.083   .     S
C700   C714    1.386   .     A
C700   H746    1.083   .     S
C701   C713    1.386   .     A
C701   H747    1.083   .     S
C702   H749    1.083   .     S
C702   C712    1.386   .     A
C703   H750    1.083   .     S
C703   C711    1.386   .     A
C704   C736    1.409   .     A
C704   N830    1.438   .     S
C704   C48     1.406   1_565 A
C705   C710    1.386   .     A
C705   H751    1.083   .     S
C706   H752    1.083   .     S
C706   C709    1.386   .     A
C707   C708    1.386   .     A
C707   H753    1.083   .     S
C708   H754    1.083   .     S
C709   H755    1.083   .     S
C710   H756    1.083   .     S
C711   H757    1.083   .     S
C712   H758    1.083   .     S
C713   H760    1.083   .     S
C714   H761    1.083   .     S
C715   N831    1.438   .     S
C716   H762    1.083   .     S
C717   C733    1.386   .     A
C717   H763    1.083   .     S
C718   H764    1.083   .     S
C718   C732    1.386   .     A
C719   C731    1.386   .     A
C719   H765    1.083   .     S
C720   H766    1.083   .     S
C720   C730    1.386   .     A
C721   H767    1.083   .     S
C721   C729    1.386   .     A
C722   H768    1.083   .     S
C722   C728    1.386   .     A
C723   C727    1.386   .     A
C723   H769    1.083   .     S
C724   H771    1.083   .     S
C724   C725    1.386   .     A
C725   H772    1.083   .     S
C726   N832    1.438   .     S
C727   H773    1.083   .     S
C728   H774    1.083   .     S
C729   H775    1.083   .     S
C730   H776    1.083   .     S
C731   H777    1.083   .     S
C732   H778    1.083   .     S
C733   H779    1.083   .     S
C735   C936    1.417   1_455 S
H780   N817    1.046   .     S
H782   N817    1.044   .     S
H783   N825    1.045   .     S
H784   N825    1.045   .     S
H785   N826    1.045   .     S
H786   N826    1.046   .     S
H787   N827    1.045   .     S
H788   N827    1.045   .     S
H789   N828    1.045   .     S
H790   N828    1.045   .     S
H791   N829    1.045   .     S
H793   N829    1.045   .     S
H794   N830    1.045   .     S
H795   N830    1.045   .     S
H796   N831    1.045   .     S
H797   N831    1.046   .     S
H798   N832    1.045   .     S
H799   N832    1.045   .     S
H800   N818    1.046   .     S
H801   N818    1.044   .     S
H802   N819    1.045   .     S
H804   N819    1.045   .     S
H805   N820    1.045   .     S
H806   N820    1.046   .     S
H807   N821    1.045   .     S
H808   N821    1.045   .     S
H809   N822    1.045   .     S
H810   N822    1.045   .     S
H811   N823    1.045   .     S
H812   N823    1.046   .     S
H813   N824    1.045   .     S
H815   N824    1.046   .     S
O833   Zn888   1.949   .     S
O833   Zn896   1.950   .     S
O833   Zn885   1.949   .     S
O834   Zn887   1.951   .     S
O834   C74     1.280   1_565 S
O835   Zn890   1.951   .     S
O835   C975    1.280   .     S
O836   Zn889   1.951   .     S
O836   C976    1.279   1_455 S
O837   Zn899   1.952   .     S
O838   Zn898   1.952   .     S
O838   C978    1.279   1_455 S
O839   Zn893   1.952   .     S
O840   Zn885   1.952   .     S
O841   Zn895   1.951   .     S
O842   Zn894   1.951   .     S
O842   C978    1.279   1_455 S
O843   Zn897   1.951   .     S
O844   Zn891   1.949   .     S
O844   Zn893   1.949   .     S
O844   Zn897   1.950   .     S
O845   Zn896   1.951   .     S
O846   Zn888   1.937   .     S
O847   Zn887   1.937   .     S
O848   Zn890   1.937   .     S
O849   Zn889   1.937   .     S
O850   Zn892   1.937   .     S
O851   Zn891   1.937   .     S
O852   Zn886   1.937   .     S
O853   Zn900   1.937   .     S
O854   Zn887   1.937   .     S
O855   Zn886   1.949   .     S
O855   Zn894   1.949   .     S
O855   Zn898   1.949   .     S
O855   Zn1190  1.950   1_455 S
O856   Zn888   1.937   .     S
O857   Zn900   1.937   .     S
O858   Zn886   1.937   .     S
O859   Zn891   1.937   .     S
O860   Zn892   1.937   .     S
O861   Zn889   1.937   .     S
O862   Zn890   1.937   .     S
O863   Zn1195  1.937   .     S
O864   Zn894   1.937   .     S
O865   Zn297   1.937   1_565 S
O866   Zn895   1.949   .     S
O866   Zn899   1.949   .     S
O866   Zn889   1.950   .     S
O866   Zn1200  1.949   1_455 S
O867   Zn896   1.937   .     S
O868   Zn899   1.937   .     S
O869   Zn1198  1.937   .     S
O870   Zn893   1.937   .     S
O871   Zn285   1.937   1_565 S
O872   Zn1194  1.937   .     S
O873   Zn895   1.937   .     S
O874   Zn885   1.937   .     S
O875   Zn293   1.937   1_565 S
O876   Zn898   1.937   .     S
O877   Zn892   1.952   .     S
O877   C73     1.280   1_565 S
O878   Zn1199  1.937   .     S
O879   Zn296   1.937   1_565 S
O880   Zn897   1.937   .     S
O881   Zn891   1.952   .     S
O882   Zn886   1.952   .     S
O883   Zn900   1.952   .     S
O884   Zn888   1.951   .     S
Zn887  O244    1.949   1_565 S
Zn890  O1155   1.950   .     S
Zn892  O233    1.949   1_565 S
Zn894  O1172   1.937   1_455 S
Zn895  O1163   1.937   1_455 S
Zn898  O1169   1.937   1_455 S
Zn899  O1178   1.937   1_455 S
Zn900  O1166   1.949   .     S
C901   C946    1.412   .     A
C901   N1117   1.438   .     S
C901   C904    1.402   .     A
C902   C952    1.412   .     A
C902   C914    1.402   .     A
C902   N1118   1.438   .     S
C903   C1015   1.402   .     A
C903   C958    1.403   .     A
C904   C959    1.403   .     A
C905   C936    1.416   .     A
C905   C949    1.408   .     A
C905   C961    1.404   .     A
C906   C962    1.403   .     A
C906   C960    1.402   .     A
C907   C963    1.405   .     A
C907   C971    1.409   .     A
C907   C938    1.415   .     A
C908   C935    1.407   .     A
C908   C964    1.404   .     A
C908   C939    1.417   .     A
C909   C965    1.404   .     A
C909   C943    1.408   .     A
C910   C941    1.415   .     A
C910   C966    1.404   .     A
C910   C944    1.402   .     A
C911   C945    1.403   .     A
C911   C967    1.403   .     A
C911   C642    1.414   1_655 S
C912   C1026   1.408   .     A
C912   C968    1.404   .     A
C913   N1119   1.438   .     S
C913   C915    1.409   .     A
C913   C653    1.405   1_655 S
C914   C969    1.403   .     A
C914   C940    1.414   .     A
C915   C970    1.405   .     A
C915   C641    1.416   1_655 S
C916   C972    1.404   .     A
C916   C924    1.403   .     A
C916   C942    1.414   .     A
C917   C1018   1.402   .     A
C917   C988    1.456   .     S
C917   C1016   1.402   .     A
C918   C989    1.456   .     S
C918   C1017   1.402   .     A
C918   C1014   1.402   .     A
C919   C1013   1.402   .     A
C919   C1020   1.402   .     A
C919   C981    1.456   .     S
C920   C1012   1.402   .     A
C920   C1019   1.402   .     A
C920   C983    1.456   .     S
C921   C1022   1.402   .     A
C921   C1011   1.402   .     A
C921   C984    1.456   .     S
C922   C985    1.456   .     S
C922   C1010   1.402   .     A
C922   C1021   1.402   .     A
C923   C986    1.456   .     S
C923   C1009   1.402   .     A
C923   C1024   1.402   .     A
C924   C954    1.412   .     A
C924   N1120   1.438   .     S
C925   C1023   1.402   .     A
C925   C987    1.456   .     S
C925   C1008   1.402   .     A
C926   C1027   1.402   .     A
C926   C997    1.456   .     S
C926   C1007   1.402   .     A
C927   C1006   1.402   .     A
C927   C1025   1.402   .     A
C927   C998    1.456   .     S
C928   C990    1.456   .     S
C928   C1005   1.402   .     A
C928   C1029   1.402   .     A
C929   C991    1.456   .     S
C929   C1003   1.402   .     A
C929   C1028   1.402   .     A
C930   C1031   1.402   .     A
C930   C1002   1.402   .     A
C930   C992    1.456   .     S
C931   C1001   1.402   .     A
C931   C1030   1.402   .     A
C931   C994    1.456   .     S
C932   C1033   1.402   .     A
C932   C1000   1.402   .     A
C932   C995    1.456   .     S
C933   C999    1.402   .     A
C933   C1032   1.402   .     A
C933   C996    1.456   .     S
C934   C1034   1.415   .     A
C934   C936    1.414   .     A
C934   C604    1.414   1_655 S
C935   N1121   1.438   .     S
C935   C951    1.405   .     A
C936   C735    1.417   1_655 S
C937   C938    1.413   .     A
C937   C1036   1.415   .     A
C937   C306    1.415   1_565 S
C938   C303    1.415   1_565 S
C939   C312    1.416   1_565 S
C939   C940    1.414   1_556 S
C940   C309    1.415   1_565 S
C940   C939    1.414   1_554 S
C941   C942    1.413   1_556 S
C942   C941    1.413   1_554 S
C943   N1122   1.438   .     S
C944   C953    1.410   .     A
C944   N1123   1.438   .     S
C945   N1124   1.438   .     S
C945   C654    1.412   1_655 S
C946   C975    1.460   .     S
C947   C976    1.459   .     S
C947   C949    1.405   .     A
C947   C693    1.405   1_655 S
C948   C960    1.411   .     S
C948   C973    1.459   .     S
C949   N1125   1.438   .     S
C950   C974    1.459   .     S
C950   C1015   1.411   .     A
C951   C379    1.459   1_565 S
C951   C426    1.405   1_565 S
C952   C980    1.460   .     S
C952   C343    1.406   1_565 S
C953   C977    1.458   .     S
C955   H1037   1.082   .     S
C955   C961    1.387   .     A
C955   C1034   1.404   .     A
C956   C959    1.386   .     A
C956   H1048   1.082   .     S
C956   C1035   1.404   .     A
C957   H1059   1.082   .     S
C957   C963    1.388   .     A
C957   C1036   1.404   .     A
C958   C962    1.387   .     A
C958   H1070   1.083   .     S
C959   H1081   1.083   .     S
C960   N1126   1.438   .     S
C961   H1092   1.082   .     S
C962   H1103   1.083   .     S
C963   H1114   1.082   .     S
C964   H1116   1.082   .     S
C964   C969    1.386   1_556 S
C965   H1038   1.082   .     S
C965   C968    1.387   1_554 S
C966   H1039   1.083   .     S
C966   C972    1.388   1_556 S
C967   H1040   1.083   .     S
C967   C970    1.388   1_554 S
C968   H1041   1.082   .     S
C968   C965    1.387   1_556 S
C969   H1042   1.083   .     S
C969   C964    1.386   1_554 S
C970   H1043   1.082   .     S
C970   C967    1.388   1_556 S
C971   N1127   1.438   .     S
C971   C350    1.406   1_565 S
C972   H1044   1.083   .     S
C972   C966    1.388   1_554 S
C973   O1184   1.278   .     A
C974   O1181   1.278   .     A
C975   O1182   1.278   .     A
C976   O1183   1.279   .     A
C976   O836    1.279   1_655 S
C977   O1141   1.279   .     A
C977   O1137   1.278   .     A
C978   C654    1.460   1_655 S
C978   O838    1.279   1_655 S
C978   O842    1.279   1_655 S
C979   O1143   1.279   .     A
C979   O1139   1.279   .     A
C980   O540    1.278   1_565 A
C980   O545    1.280   1_565 A
C981   O1174   1.282   .     A
C981   O1146   1.282   .     A
C982   N1128   1.438   .     S
C982   C1034   1.408   .     A
C982   C646    1.406   1_655 S
C983   O1147   1.282   .     A
C983   O1175   1.282   .     A
C984   O1148   1.282   .     A
C984   O1172   1.282   .     A
C985   O1149   1.282   .     A
C985   O1173   1.282   .     A
C986   O1150   1.282   .     A
C986   O1179   1.282   .     A
C987   O1180   1.282   .     A
C987   O1151   1.282   .     A
C988   O1152   1.282   .     A
C988   O1176   1.282   .     A
C989   O1153   1.282   .     A
C989   O1178   1.282   .     A
C990   O1165   1.282   .     A
C990   O1154   1.282   .     A
C991   O1167   1.282   .     A
C991   O1156   1.282   .     A
C992   O1157   1.282   .     A
C992   O1163   1.282   .     A
C993   C1035   1.407   .     A
C993   N1129   1.438   .     S
C994   O1164   1.282   .     A
C994   O1158   1.282   .     A
C995   O1170   1.282   .     A
C995   O1159   1.282   .     A
C996   O1171   1.282   .     A
C996   O1160   1.282   .     A
C997   O1161   1.282   .     A
C997   O1168   1.282   .     A
C998   O1169   1.282   .     A
C998   O1162   1.282   .     A
C999   C1016   1.386   .     A
C999   H1045   1.083   .     S
C1000  C1014   1.386   .     A
C1000  H1046   1.083   .     S
C1001  C1013   1.386   .     A
C1001  H1047   1.083   .     S
C1002  H1049   1.083   .     S
C1002  C1012   1.386   .     A
C1003  H1050   1.083   .     S
C1003  C1011   1.386   .     A
C1004  C1036   1.409   .     A
C1004  N1130   1.438   .     S
C1004  C348    1.406   1_565 A
C1005  C1010   1.386   .     A
C1005  H1051   1.083   .     S
C1006  H1052   1.083   .     S
C1006  C1009   1.386   .     A
C1007  C1008   1.386   .     A
C1007  H1053   1.083   .     S
C1008  H1054   1.083   .     S
C1009  H1055   1.083   .     S
C1010  H1056   1.083   .     S
C1011  H1057   1.083   .     S
C1012  H1058   1.083   .     S
C1013  H1060   1.083   .     S
C1014  H1061   1.083   .     S
C1015  N1131   1.438   .     S
C1016  H1062   1.083   .     S
C1017  C1033   1.386   .     A
C1017  H1063   1.083   .     S
C1018  H1064   1.083   .     S
C1018  C1032   1.386   .     A
C1019  C1031   1.386   .     A
C1019  H1065   1.083   .     S
C1020  H1066   1.083   .     S
C1020  C1030   1.386   .     A
C1021  H1067   1.083   .     S
C1021  C1029   1.386   .     A
C1022  H1068   1.083   .     S
C1022  C1028   1.386   .     A
C1023  C1027   1.386   .     A
C1023  H1069   1.083   .     S
C1024  H1071   1.083   .     S
C1024  C1025   1.386   .     A
C1025  H1072   1.083   .     S
C1026  N1132   1.438   .     S
C1027  H1073   1.083   .     S
C1028  H1074   1.083   .     S
C1029  H1075   1.083   .     S
C1030  H1076   1.083   .     S
C1031  H1077   1.083   .     S
C1032  H1078   1.083   .     S
C1033  H1079   1.083   .     S
H1080  N1117   1.046   .     S
H1082  N1117   1.044   .     S
H1083  N1125   1.045   .     S
H1084  N1125   1.045   .     S
H1085  N1126   1.045   .     S
H1086  N1126   1.046   .     S
H1087  N1127   1.045   .     S
H1088  N1127   1.045   .     S
H1089  N1128   1.045   .     S
H1090  N1128   1.045   .     S
H1091  N1129   1.045   .     S
H1093  N1129   1.045   .     S
H1094  N1130   1.045   .     S
H1095  N1130   1.045   .     S
H1096  N1131   1.045   .     S
H1097  N1131   1.046   .     S
H1098  N1132   1.045   .     S
H1099  N1132   1.045   .     S
H1100  N1118   1.046   .     S
H1101  N1118   1.044   .     S
H1102  N1119   1.045   .     S
H1104  N1119   1.045   .     S
H1105  N1120   1.045   .     S
H1106  N1120   1.046   .     S
H1107  N1121   1.045   .     S
H1108  N1121   1.045   .     S
H1109  N1122   1.045   .     S
H1110  N1122   1.045   .     S
H1111  N1123   1.045   .     S
H1112  N1123   1.046   .     S
H1113  N1124   1.045   .     S
H1115  N1124   1.046   .     S
O1133  Zn1188  1.949   .     S
O1133  Zn1196  1.950   .     S
O1133  Zn1185  1.949   .     S
O1134  Zn1187  1.951   .     S
O1134  C374    1.280   1_565 S
O1135  Zn1190  1.951   .     S
O1135  C675    1.280   1_655 S
O1136  Zn1189  1.951   .     S
O1137  Zn1199  1.952   .     S
O1138  Zn1198  1.952   .     S
O1139  Zn1193  1.952   .     S
O1140  Zn1185  1.952   .     S
O1141  Zn1195  1.951   .     S
O1142  Zn1194  1.951   .     S
O1143  Zn1197  1.951   .     S
O1144  Zn1191  1.949   .     S
O1144  Zn1193  1.949   .     S
O1144  Zn1197  1.950   .     S
O1145  Zn1196  1.951   .     S
O1146  Zn1188  1.937   .     S
O1147  Zn1187  1.937   .     S
O1148  Zn1190  1.937   .     S
O1149  Zn1189  1.937   .     S
O1150  Zn1192  1.937   .     S
O1151  Zn1191  1.937   .     S
O1152  Zn1186  1.937   .     S
O1153  Zn1200  1.937   .     S
O1154  Zn1187  1.937   .     S
O1155  Zn1186  1.949   .     S
O1155  Zn1194  1.949   .     S
O1155  Zn1198  1.949   .     S
O1156  Zn1188  1.937   .     S
O1157  Zn1200  1.937   .     S
O1158  Zn1186  1.937   .     S
O1159  Zn1191  1.937   .     S
O1160  Zn1192  1.937   .     S
O1161  Zn1189  1.937   .     S
O1162  Zn1190  1.937   .     S
O1163  Zn895   1.937   1_655 S
O1164  Zn1194  1.937   .     S
O1165  Zn597   1.937   1_565 S
O1166  Zn1195  1.949   .     S
O1166  Zn1199  1.949   .     S
O1166  Zn1189  1.950   .     S
O1167  Zn1196  1.937   .     S
O1168  Zn1199  1.937   .     S
O1169  Zn898   1.937   1_655 S
O1170  Zn1193  1.937   .     S
O1171  Zn585   1.937   1_565 S
O1172  Zn894   1.937   1_655 S
O1173  Zn1195  1.937   .     S
O1174  Zn1185  1.937   .     S
O1175  Zn593   1.937   1_565 S
O1176  Zn1198  1.937   .     S
O1177  Zn1192  1.952   .     S
O1177  C373    1.280   1_565 S
O1178  Zn899   1.937   1_655 S
O1179  Zn596   1.937   1_565 S
O1180  Zn1197  1.937   .     S
O1181  Zn1191  1.952   .     S
O1182  Zn1186  1.952   .     S
O1183  Zn1200  1.952   .     S
O1184  Zn1188  1.951   .     S
Zn1187 O544    1.949   1_565 S
Zn1190 O855    1.950   1_655 S
Zn1192 O533    1.949   1_565 S
Zn1200 O866    1.949   1_655 S
