data_str_m2_o1_o2_pcu_sym.104
_audit_creation_date              2020-01-03
_audit_creation_method            'Materials Studio'
_symmetry_space_group_name_H-M    'P1'
_symmetry_Int_Tables_number       1
_symmetry_cell_setting            triclinic
loop_
_symmetry_equiv_pos_as_xyz
  x,y,z
_cell_length_a                    32.5572
_cell_length_b                    29.0762
_cell_length_c                    30.3333
_cell_angle_alpha                 89.9635
_cell_angle_beta                  96.2526
_cell_angle_gamma                 89.6100
loop_
_atom_site_label
_atom_site_type_symbol
_atom_site_fract_x
_atom_site_fract_y
_atom_site_fract_z
_atom_site_U_iso_or_equiv
_atom_site_adp_type
_atom_site_occupancy
C1     C     0.08755   0.16658   0.25053   0.00000  Uiso   1.00
C2     C     0.24567   0.16638   0.24854   0.00000  Uiso   1.00
C3     C     0.16789   0.16678   0.16525   0.00000  Uiso   1.00
C4     C     0.16441   0.16677   0.33457   0.00000  Uiso   1.00
C5     C     0.14310   0.02445   0.21814   0.00000  Uiso   1.00
C6     C     0.19586   0.30906   0.27640   0.00000  Uiso   1.00
C7     C     0.19071   0.02411   0.28167   0.00000  Uiso   1.00
C8     C     0.13727   0.30977   0.22403   0.00000  Uiso   1.00
C9     C     0.02166   0.12400   0.25109   0.00000  Uiso   1.00
C10    C     0.31131   0.20675   0.24386   0.00000  Uiso   1.00
C11    C     0.31220   0.12381   0.24800   0.00000  Uiso   1.00
C12    C     0.02065   0.20699   0.24811   0.00000  Uiso   1.00
C13    C     0.15438   0.20678   0.04684   0.00000  Uiso   1.00
C14    C     0.15147   0.12698   0.45069   0.00000  Uiso   1.00
C15    C     0.16701   0.20825   0.45208   0.00000  Uiso   1.00
C16    C     0.17988   0.12834   0.04854   0.00000  Uiso   1.00
C17    C     0.15840   0.20746   0.09271   0.00000  Uiso   1.00
C18    C     0.15057   0.12722   0.40460   0.00000  Uiso   1.00
C19    C     0.16445   0.20856   0.40624   0.00000  Uiso   1.00
C20    C     0.18220   0.12859   0.09476   0.00000  Uiso   1.00
C21    C     0.16961   0.16751   0.11706   0.00000  Uiso   1.00
C22    C     0.15989   0.16739   0.38232   0.00000  Uiso   1.00
C23    C     0.16480   0.16715   0.02403   0.00000  Uiso   1.00
C24    C     0.16133   0.16726   0.47506   0.00000  Uiso   1.00
C25    C     0.29017   0.16550   0.24637   0.00000  Uiso   1.00
C26    C     0.04282   0.16584   0.25055   0.00000  Uiso   1.00
Cu27   Cu    0.16667   0.21355   0.25000   0.00000  Uiso   1.00
Cu28   Cu    0.16667   0.11978   0.25000   0.00000  Uiso   1.00
H29    H     0.14265   0.23749   0.02954   0.00000  Uiso   1.00
H30    H     0.14445   0.09536   0.46710   0.00000  Uiso   1.00
H31    H     0.17409   0.24032   0.46920   0.00000  Uiso   1.00
H32    H     0.19005   0.09792   0.03214   0.00000  Uiso   1.00
H33    H     0.15244   0.23951   0.10856   0.00000  Uiso   1.00
H34    H     0.14225   0.09619   0.38637   0.00000  Uiso   1.00
H35    H     0.16600   0.24130   0.39003   0.00000  Uiso   1.00
H36    H     0.19406   0.09853   0.11306   0.00000  Uiso   1.00
H37    H     0.03788   0.09141   0.25422   0.00000  Uiso   1.00
H38    H     0.29484   0.23872   0.23837   0.00000  Uiso   1.00
H39    H     0.29672   0.09106   0.24648   0.00000  Uiso   1.00
H40    H     0.03637   0.23926   0.24960   0.00000  Uiso   1.00
N41    N     0.16667   0.28402   0.25000   0.00000  Uiso   1.00
N42    N     0.16667   0.04931   0.25000   0.00000  Uiso   1.00
O43    O     0.10655   0.20625   0.24999   0.00000  Uiso   1.00
O44    O     0.22679   0.12709   0.25000   0.00000  Uiso   1.00
O45    O     0.22679   0.20625   0.25000   0.00000  Uiso   1.00
O46    O     0.10655   0.12709   0.24999   0.00000  Uiso   1.00
O47    O     0.16666   0.20626   0.18573   0.00000  Uiso   1.00
O48    O     0.16667   0.12707   0.31427   0.00000  Uiso   1.00
O49    O     0.16667   0.20626   0.31427   0.00000  Uiso   1.00
O50    O     0.16666   0.12707   0.18573   0.00000  Uiso   1.00
C51    C     0.12643   0.04400   0.17452   0.00000  Uiso   1.00
C52    C     0.08920   0.06901   0.16877   0.00000  Uiso   1.00
C53    C     0.07145   0.08149   0.12638   0.00000  Uiso   1.00
C54    C     0.08968   0.06723   0.08907   0.00000  Uiso   1.00
C55    C     0.12556   0.04033   0.09417   0.00000  Uiso   1.00
C56    C     0.14403   0.02908   0.13663   0.00000  Uiso   1.00
H57    H     0.07262   0.07664   0.19650   0.00000  Uiso   1.00
H58    H     0.04287   0.10102   0.12243   0.00000  Uiso   1.00
H59    H     0.07566   0.07638   0.05621   0.00000  Uiso   1.00
H60    H     0.13931   0.02853   0.06525   0.00000  Uiso   1.00
H61    H     0.17163   0.00778   0.14000   0.00000  Uiso   1.00
C62    C     0.23623   0.28988   0.29620   0.00000  Uiso   1.00
C63    C     0.23994   0.26554   0.33626   0.00000  Uiso   1.00
C64    C     0.27864   0.25523   0.35883   0.00000  Uiso   1.00
C65    C     0.31433   0.27192   0.34305   0.00000  Uiso   1.00
C66    C     0.31116   0.29904   0.30489   0.00000  Uiso   1.00
C67    C     0.27245   0.30750   0.28128   0.00000  Uiso   1.00
H68    H     0.21319   0.25764   0.35176   0.00000  Uiso   1.00
H69    H     0.28079   0.23605   0.38959   0.00000  Uiso   1.00
H70    H     0.01096   0.26494   0.36102   0.00000  Uiso   1.00
H71    H     0.00536   0.31344   0.29366   0.00000  Uiso   1.00
H72    H     0.27041   0.32928   0.25215   0.00000  Uiso   1.00
C73    C     0.20840   0.04388   0.32467   0.00000  Uiso   1.00
C74    C     0.24615   0.06719   0.32905   0.00000  Uiso   1.00
C75    C     0.26519   0.07962   0.37083   0.00000  Uiso   1.00
C76    C     0.24771   0.06672   0.40897   0.00000  Uiso   1.00
C77    C     0.21140   0.04112   0.40526   0.00000  Uiso   1.00
C78    C     0.19167   0.03003   0.36337   0.00000  Uiso   1.00
H79    H     0.26209   0.07324   0.30065   0.00000  Uiso   1.00
H80    H     0.29419   0.09791   0.37367   0.00000  Uiso   1.00
H81    H     0.26273   0.07573   0.44137   0.00000  Uiso   1.00
H82    H     0.19829   0.03018   0.43481   0.00000  Uiso   1.00
H83    H     0.16377   0.00968   0.36106   0.00000  Uiso   1.00
C84    C     0.09479   0.29356   0.20843   0.00000  Uiso   1.00
C85    C     0.08661   0.26605   0.17065   0.00000  Uiso   1.00
C86    C     0.04644   0.26124   0.14973   0.00000  Uiso   1.00
C87    C     0.01393   0.28588   0.16500   0.00000  Uiso   1.00
C88    C     0.02150   0.31446   0.20184   0.00000  Uiso   1.00
C89    C     0.06134   0.31734   0.22414   0.00000  Uiso   1.00
H90    H     0.11110   0.25031   0.15582   0.00000  Uiso   1.00
H91    H     0.04082   0.23977   0.12058   0.00000  Uiso   1.00
H92    H     0.31634   0.28318   0.14808   0.00000  Uiso   1.00
H93    H     0.32995   0.00129   0.21297   0.00000  Uiso   1.00
H94    H     0.06667   0.00715   0.25213   0.00000  Uiso   1.00
C95    C     0.42089   0.16658   0.25053   0.00000  Uiso   1.00
C96    C     0.57900   0.16638   0.24854   0.00000  Uiso   1.00
C97    C     0.50122   0.16678   0.16525   0.00000  Uiso   1.00
C98    C     0.49774   0.16677   0.33457   0.00000  Uiso   1.00
C99    C     0.47643   0.02445   0.21814   0.00000  Uiso   1.00
C100   C     0.52919   0.30906   0.27640   0.00000  Uiso   1.00
C101   C     0.52404   0.02411   0.28167   0.00000  Uiso   1.00
C102   C     0.47060   0.30977   0.22403   0.00000  Uiso   1.00
C103   C     0.35499   0.12400   0.25109   0.00000  Uiso   1.00
C104   C     0.64465   0.20675   0.24386   0.00000  Uiso   1.00
C105   C     0.64553   0.12381   0.24800   0.00000  Uiso   1.00
C106   C     0.35398   0.20699   0.24811   0.00000  Uiso   1.00
C107   C     0.48771   0.20678   0.04684   0.00000  Uiso   1.00
C108   C     0.48481   0.12698   0.45069   0.00000  Uiso   1.00
C109   C     0.50034   0.20825   0.45208   0.00000  Uiso   1.00
C110   C     0.51322   0.12834   0.04854   0.00000  Uiso   1.00
C111   C     0.49174   0.20746   0.09271   0.00000  Uiso   1.00
C112   C     0.48390   0.12722   0.40460   0.00000  Uiso   1.00
C113   C     0.49778   0.20856   0.40624   0.00000  Uiso   1.00
C114   C     0.51554   0.12859   0.09476   0.00000  Uiso   1.00
C115   C     0.50294   0.16751   0.11706   0.00000  Uiso   1.00
C116   C     0.49322   0.16739   0.38232   0.00000  Uiso   1.00
C117   C     0.49814   0.16715   0.02403   0.00000  Uiso   1.00
C118   C     0.49467   0.16726   0.47506   0.00000  Uiso   1.00
C119   C     0.62351   0.16550   0.24637   0.00000  Uiso   1.00
C120   C     0.37615   0.16584   0.25055   0.00000  Uiso   1.00
Cu121  Cu    0.50000   0.21355   0.25000   0.00000  Uiso   1.00
Cu122  Cu    0.50000   0.11978   0.25000   0.00000  Uiso   1.00
H123   H     0.47598   0.23749   0.02954   0.00000  Uiso   1.00
H124   H     0.47779   0.09536   0.46710   0.00000  Uiso   1.00
H125   H     0.50742   0.24032   0.46920   0.00000  Uiso   1.00
H126   H     0.52338   0.09792   0.03214   0.00000  Uiso   1.00
H127   H     0.48577   0.23951   0.10856   0.00000  Uiso   1.00
H128   H     0.47558   0.09619   0.38637   0.00000  Uiso   1.00
H129   H     0.49934   0.24130   0.39003   0.00000  Uiso   1.00
H130   H     0.52739   0.09853   0.11306   0.00000  Uiso   1.00
H131   H     0.37122   0.09141   0.25422   0.00000  Uiso   1.00
H132   H     0.62817   0.23872   0.23837   0.00000  Uiso   1.00
H133   H     0.63005   0.09106   0.24648   0.00000  Uiso   1.00
H134   H     0.36971   0.23926   0.24960   0.00000  Uiso   1.00
N135   N     0.50000   0.28402   0.25000   0.00000  Uiso   1.00
N136   N     0.50000   0.04931   0.25000   0.00000  Uiso   1.00
O137   O     0.43988   0.20625   0.24999   0.00000  Uiso   1.00
O138   O     0.56012   0.12709   0.25000   0.00000  Uiso   1.00
O139   O     0.56012   0.20625   0.25000   0.00000  Uiso   1.00
O140   O     0.43988   0.12709   0.24999   0.00000  Uiso   1.00
O141   O     0.50000   0.20626   0.18573   0.00000  Uiso   1.00
O142   O     0.50000   0.12707   0.31427   0.00000  Uiso   1.00
O143   O     0.50000   0.20626   0.31427   0.00000  Uiso   1.00
O144   O     0.50000   0.12707   0.18573   0.00000  Uiso   1.00
C145   C     0.45976   0.04400   0.17452   0.00000  Uiso   1.00
C146   C     0.42254   0.06901   0.16877   0.00000  Uiso   1.00
C147   C     0.40478   0.08149   0.12638   0.00000  Uiso   1.00
C148   C     0.42301   0.06723   0.08907   0.00000  Uiso   1.00
C149   C     0.45889   0.04033   0.09417   0.00000  Uiso   1.00
C150   C     0.47737   0.02908   0.13663   0.00000  Uiso   1.00
H151   H     0.40595   0.07664   0.19650   0.00000  Uiso   1.00
H152   H     0.37620   0.10102   0.12243   0.00000  Uiso   1.00
H153   H     0.40899   0.07638   0.05621   0.00000  Uiso   1.00
H154   H     0.47264   0.02853   0.06525   0.00000  Uiso   1.00
H155   H     0.50497   0.00778   0.14000   0.00000  Uiso   1.00
C156   C     0.56956   0.28988   0.29620   0.00000  Uiso   1.00
C157   C     0.57327   0.26554   0.33626   0.00000  Uiso   1.00
C158   C     0.61197   0.25523   0.35883   0.00000  Uiso   1.00
C159   C     0.64766   0.27192   0.34305   0.00000  Uiso   1.00
C160   C     0.64449   0.29904   0.30489   0.00000  Uiso   1.00
C161   C     0.60578   0.30750   0.28128   0.00000  Uiso   1.00
H162   H     0.54652   0.25764   0.35176   0.00000  Uiso   1.00
H163   H     0.61413   0.23605   0.38959   0.00000  Uiso   1.00
H164   H     0.34429   0.26494   0.36102   0.00000  Uiso   1.00
H165   H     0.33870   0.31344   0.29366   0.00000  Uiso   1.00
H166   H     0.60375   0.32928   0.25215   0.00000  Uiso   1.00
C167   C     0.54173   0.04388   0.32467   0.00000  Uiso   1.00
C168   C     0.57948   0.06719   0.32905   0.00000  Uiso   1.00
C169   C     0.59852   0.07962   0.37083   0.00000  Uiso   1.00
C170   C     0.58105   0.06672   0.40897   0.00000  Uiso   1.00
C171   C     0.54473   0.04112   0.40526   0.00000  Uiso   1.00
C172   C     0.52500   0.03003   0.36337   0.00000  Uiso   1.00
H173   H     0.59543   0.07324   0.30065   0.00000  Uiso   1.00
H174   H     0.62753   0.09791   0.37367   0.00000  Uiso   1.00
H175   H     0.59607   0.07573   0.44137   0.00000  Uiso   1.00
H176   H     0.53162   0.03018   0.43481   0.00000  Uiso   1.00
H177   H     0.49710   0.00968   0.36106   0.00000  Uiso   1.00
C178   C     0.42812   0.29356   0.20843   0.00000  Uiso   1.00
C179   C     0.41995   0.26605   0.17065   0.00000  Uiso   1.00
C180   C     0.37977   0.26124   0.14973   0.00000  Uiso   1.00
C181   C     0.34726   0.28588   0.16500   0.00000  Uiso   1.00
C182   C     0.35483   0.31446   0.20184   0.00000  Uiso   1.00
C183   C     0.39467   0.31734   0.22414   0.00000  Uiso   1.00
H184   H     0.44443   0.25031   0.15582   0.00000  Uiso   1.00
H185   H     0.37415   0.23977   0.12058   0.00000  Uiso   1.00
H186   H     0.64968   0.28318   0.14808   0.00000  Uiso   1.00
H187   H     0.66328   0.00129   0.21297   0.00000  Uiso   1.00
H188   H     0.40000   0.00715   0.25213   0.00000  Uiso   1.00
C189   C     0.75422   0.16658   0.25053   0.00000  Uiso   1.00
C190   C     0.91233   0.16638   0.24854   0.00000  Uiso   1.00
C191   C     0.83455   0.16678   0.16525   0.00000  Uiso   1.00
C192   C     0.83107   0.16677   0.33457   0.00000  Uiso   1.00
C193   C     0.80977   0.02445   0.21814   0.00000  Uiso   1.00
C194   C     0.86253   0.30906   0.27640   0.00000  Uiso   1.00
C195   C     0.85737   0.02411   0.28167   0.00000  Uiso   1.00
C196   C     0.80394   0.30977   0.22403   0.00000  Uiso   1.00
C197   C     0.68832   0.12400   0.25109   0.00000  Uiso   1.00
C198   C     0.97798   0.20675   0.24386   0.00000  Uiso   1.00
C199   C     0.97886   0.12381   0.24800   0.00000  Uiso   1.00
C200   C     0.68732   0.20699   0.24811   0.00000  Uiso   1.00
C201   C     0.82104   0.20678   0.04684   0.00000  Uiso   1.00
C202   C     0.81814   0.12698   0.45069   0.00000  Uiso   1.00
C203   C     0.83368   0.20825   0.45208   0.00000  Uiso   1.00
C204   C     0.84655   0.12834   0.04854   0.00000  Uiso   1.00
C205   C     0.82507   0.20746   0.09271   0.00000  Uiso   1.00
C206   C     0.81723   0.12722   0.40460   0.00000  Uiso   1.00
C207   C     0.83111   0.20856   0.40624   0.00000  Uiso   1.00
C208   C     0.84887   0.12859   0.09476   0.00000  Uiso   1.00
C209   C     0.83628   0.16751   0.11706   0.00000  Uiso   1.00
C210   C     0.82656   0.16739   0.38232   0.00000  Uiso   1.00
C211   C     0.83147   0.16715   0.02403   0.00000  Uiso   1.00
C212   C     0.82800   0.16726   0.47506   0.00000  Uiso   1.00
C213   C     0.95684   0.16550   0.24637   0.00000  Uiso   1.00
C214   C     0.70949   0.16584   0.25055   0.00000  Uiso   1.00
Cu215  Cu    0.83333   0.21355   0.25000   0.00000  Uiso   1.00
Cu216  Cu    0.83333   0.11978   0.25000   0.00000  Uiso   1.00
H217   H     0.80931   0.23749   0.02954   0.00000  Uiso   1.00
H218   H     0.81112   0.09536   0.46710   0.00000  Uiso   1.00
H219   H     0.84075   0.24032   0.46920   0.00000  Uiso   1.00
H220   H     0.85671   0.09792   0.03214   0.00000  Uiso   1.00
H221   H     0.81911   0.23951   0.10856   0.00000  Uiso   1.00
H222   H     0.80891   0.09619   0.38637   0.00000  Uiso   1.00
H223   H     0.83267   0.24130   0.39003   0.00000  Uiso   1.00
H224   H     0.86073   0.09853   0.11306   0.00000  Uiso   1.00
H225   H     0.70455   0.09141   0.25422   0.00000  Uiso   1.00
H226   H     0.96151   0.23872   0.23837   0.00000  Uiso   1.00
H227   H     0.96339   0.09106   0.24648   0.00000  Uiso   1.00
H228   H     0.70304   0.23926   0.24960   0.00000  Uiso   1.00
N229   N     0.83333   0.28402   0.25000   0.00000  Uiso   1.00
N230   N     0.83333   0.04931   0.25000   0.00000  Uiso   1.00
O231   O     0.77321   0.20625   0.24999   0.00000  Uiso   1.00
O232   O     0.89345   0.12709   0.25000   0.00000  Uiso   1.00
O233   O     0.89345   0.20625   0.25000   0.00000  Uiso   1.00
O234   O     0.77321   0.12709   0.24999   0.00000  Uiso   1.00
O235   O     0.83333   0.20626   0.18573   0.00000  Uiso   1.00
O236   O     0.83334   0.12707   0.31427   0.00000  Uiso   1.00
O237   O     0.83334   0.20626   0.31427   0.00000  Uiso   1.00
O238   O     0.83333   0.12707   0.18573   0.00000  Uiso   1.00
C239   C     0.79309   0.04400   0.17452   0.00000  Uiso   1.00
C240   C     0.75587   0.06901   0.16877   0.00000  Uiso   1.00
C241   C     0.73812   0.08149   0.12638   0.00000  Uiso   1.00
C242   C     0.75634   0.06723   0.08907   0.00000  Uiso   1.00
C243   C     0.79222   0.04033   0.09417   0.00000  Uiso   1.00
C244   C     0.81070   0.02908   0.13663   0.00000  Uiso   1.00
H245   H     0.73928   0.07664   0.19650   0.00000  Uiso   1.00
H246   H     0.70953   0.10102   0.12243   0.00000  Uiso   1.00
H247   H     0.74232   0.07638   0.05621   0.00000  Uiso   1.00
H248   H     0.80597   0.02853   0.06525   0.00000  Uiso   1.00
H249   H     0.83830   0.00778   0.14000   0.00000  Uiso   1.00
C250   C     0.90289   0.28988   0.29620   0.00000  Uiso   1.00
C251   C     0.90661   0.26554   0.33626   0.00000  Uiso   1.00
C252   C     0.94530   0.25523   0.35883   0.00000  Uiso   1.00
C253   C     0.98100   0.27192   0.34305   0.00000  Uiso   1.00
C254   C     0.97783   0.29904   0.30489   0.00000  Uiso   1.00
C255   C     0.93911   0.30750   0.28128   0.00000  Uiso   1.00
H256   H     0.87985   0.25764   0.35176   0.00000  Uiso   1.00
H257   H     0.94746   0.23605   0.38959   0.00000  Uiso   1.00
H258   H     0.67763   0.26494   0.36102   0.00000  Uiso   1.00
H259   H     0.67203   0.31344   0.29366   0.00000  Uiso   1.00
H260   H     0.93708   0.32928   0.25215   0.00000  Uiso   1.00
C261   C     0.87507   0.04388   0.32467   0.00000  Uiso   1.00
C262   C     0.91281   0.06719   0.32905   0.00000  Uiso   1.00
C263   C     0.93185   0.07962   0.37083   0.00000  Uiso   1.00
C264   C     0.91438   0.06672   0.40897   0.00000  Uiso   1.00
C265   C     0.87806   0.04112   0.40526   0.00000  Uiso   1.00
C266   C     0.85833   0.03003   0.36337   0.00000  Uiso   1.00
H267   H     0.92876   0.07324   0.30065   0.00000  Uiso   1.00
H268   H     0.96086   0.09791   0.37367   0.00000  Uiso   1.00
H269   H     0.92940   0.07573   0.44137   0.00000  Uiso   1.00
H270   H     0.86496   0.03018   0.43481   0.00000  Uiso   1.00
H271   H     0.83043   0.00968   0.36106   0.00000  Uiso   1.00
C272   C     0.76146   0.29356   0.20843   0.00000  Uiso   1.00
C273   C     0.75328   0.26605   0.17065   0.00000  Uiso   1.00
C274   C     0.71310   0.26124   0.14973   0.00000  Uiso   1.00
C275   C     0.68059   0.28588   0.16500   0.00000  Uiso   1.00
C276   C     0.68816   0.31446   0.20184   0.00000  Uiso   1.00
C277   C     0.72800   0.31734   0.22414   0.00000  Uiso   1.00
H278   H     0.77776   0.25031   0.15582   0.00000  Uiso   1.00
H279   H     0.70749   0.23977   0.12058   0.00000  Uiso   1.00
H280   H     0.98301   0.28318   0.14808   0.00000  Uiso   1.00
H281   H     0.99662   0.00129   0.21297   0.00000  Uiso   1.00
H282   H     0.73334   0.00715   0.25213   0.00000  Uiso   1.00
C283   C     0.08755   0.49991   0.25053   0.00000  Uiso   1.00
C284   C     0.24567   0.49971   0.24854   0.00000  Uiso   1.00
C285   C     0.16789   0.50011   0.16525   0.00000  Uiso   1.00
C286   C     0.16441   0.50010   0.33457   0.00000  Uiso   1.00
C287   C     0.14310   0.35778   0.21814   0.00000  Uiso   1.00
C288   C     0.19586   0.64239   0.27640   0.00000  Uiso   1.00
C289   C     0.19071   0.35744   0.28167   0.00000  Uiso   1.00
C290   C     0.13727   0.64310   0.22403   0.00000  Uiso   1.00
C291   C     0.02166   0.45733   0.25109   0.00000  Uiso   1.00
C292   C     0.31131   0.54008   0.24386   0.00000  Uiso   1.00
C293   C     0.31220   0.45715   0.24800   0.00000  Uiso   1.00
C294   C     0.02065   0.54033   0.24811   0.00000  Uiso   1.00
C295   C     0.15438   0.54012   0.04684   0.00000  Uiso   1.00
C296   C     0.15147   0.46031   0.45069   0.00000  Uiso   1.00
C297   C     0.16701   0.54159   0.45208   0.00000  Uiso   1.00
C298   C     0.17988   0.46168   0.04854   0.00000  Uiso   1.00
C299   C     0.15840   0.54079   0.09271   0.00000  Uiso   1.00
C300   C     0.15057   0.46055   0.40460   0.00000  Uiso   1.00
C301   C     0.16445   0.54189   0.40624   0.00000  Uiso   1.00
C302   C     0.18220   0.46192   0.09476   0.00000  Uiso   1.00
C303   C     0.16961   0.50085   0.11706   0.00000  Uiso   1.00
C304   C     0.15989   0.50072   0.38232   0.00000  Uiso   1.00
C305   C     0.16480   0.50048   0.02403   0.00000  Uiso   1.00
C306   C     0.16133   0.50059   0.47506   0.00000  Uiso   1.00
C307   C     0.29017   0.49884   0.24637   0.00000  Uiso   1.00
C308   C     0.04282   0.49917   0.25055   0.00000  Uiso   1.00
Cu309  Cu    0.16667   0.54689   0.25000   0.00000  Uiso   1.00
Cu310  Cu    0.16667   0.45311   0.25000   0.00000  Uiso   1.00
H311   H     0.14265   0.57083   0.02954   0.00000  Uiso   1.00
H312   H     0.14445   0.42870   0.46710   0.00000  Uiso   1.00
H313   H     0.17409   0.57365   0.46920   0.00000  Uiso   1.00
H314   H     0.19005   0.43125   0.03214   0.00000  Uiso   1.00
H315   H     0.15244   0.57285   0.10856   0.00000  Uiso   1.00
H316   H     0.14225   0.42952   0.38637   0.00000  Uiso   1.00
H317   H     0.16600   0.57463   0.39003   0.00000  Uiso   1.00
H318   H     0.19406   0.43186   0.11306   0.00000  Uiso   1.00
H319   H     0.03788   0.42474   0.25422   0.00000  Uiso   1.00
H320   H     0.29484   0.57206   0.23837   0.00000  Uiso   1.00
H321   H     0.29672   0.42439   0.24648   0.00000  Uiso   1.00
H322   H     0.03637   0.57259   0.24960   0.00000  Uiso   1.00
N323   N     0.16667   0.61736   0.25000   0.00000  Uiso   1.00
N324   N     0.16667   0.38264   0.25000   0.00000  Uiso   1.00
O325   O     0.10655   0.53958   0.24999   0.00000  Uiso   1.00
O326   O     0.22679   0.46042   0.25000   0.00000  Uiso   1.00
O327   O     0.22679   0.53958   0.25000   0.00000  Uiso   1.00
O328   O     0.10655   0.46042   0.24999   0.00000  Uiso   1.00
O329   O     0.16666   0.53959   0.18573   0.00000  Uiso   1.00
O330   O     0.16667   0.46041   0.31427   0.00000  Uiso   1.00
O331   O     0.16667   0.53959   0.31427   0.00000  Uiso   1.00
O332   O     0.16666   0.46041   0.18573   0.00000  Uiso   1.00
C333   C     0.12643   0.37734   0.17452   0.00000  Uiso   1.00
C334   C     0.08920   0.40234   0.16877   0.00000  Uiso   1.00
C335   C     0.07145   0.41482   0.12638   0.00000  Uiso   1.00
C336   C     0.08968   0.40057   0.08907   0.00000  Uiso   1.00
C337   C     0.12556   0.37366   0.09417   0.00000  Uiso   1.00
C338   C     0.14403   0.36241   0.13663   0.00000  Uiso   1.00
H339   H     0.07262   0.40998   0.19650   0.00000  Uiso   1.00
H340   H     0.04287   0.43435   0.12243   0.00000  Uiso   1.00
H341   H     0.07566   0.40972   0.05621   0.00000  Uiso   1.00
H342   H     0.13931   0.36186   0.06525   0.00000  Uiso   1.00
H343   H     0.17163   0.34111   0.14000   0.00000  Uiso   1.00
C344   C     0.23623   0.62321   0.29620   0.00000  Uiso   1.00
C345   C     0.23994   0.59887   0.33626   0.00000  Uiso   1.00
C346   C     0.27864   0.58856   0.35883   0.00000  Uiso   1.00
C347   C     0.31433   0.60526   0.34305   0.00000  Uiso   1.00
C348   C     0.31116   0.63237   0.30489   0.00000  Uiso   1.00
C349   C     0.27245   0.64083   0.28128   0.00000  Uiso   1.00
H350   H     0.21319   0.59097   0.35176   0.00000  Uiso   1.00
H351   H     0.28079   0.56938   0.38959   0.00000  Uiso   1.00
H352   H     0.01096   0.59827   0.36102   0.00000  Uiso   1.00
H353   H     0.00536   0.64677   0.29366   0.00000  Uiso   1.00
H354   H     0.27041   0.66262   0.25215   0.00000  Uiso   1.00
C355   C     0.20840   0.37721   0.32467   0.00000  Uiso   1.00
C356   C     0.24615   0.40053   0.32905   0.00000  Uiso   1.00
C357   C     0.26519   0.41295   0.37083   0.00000  Uiso   1.00
C358   C     0.24771   0.40006   0.40897   0.00000  Uiso   1.00
C359   C     0.21140   0.37445   0.40526   0.00000  Uiso   1.00
C360   C     0.19167   0.36337   0.36337   0.00000  Uiso   1.00
H361   H     0.26209   0.40657   0.30065   0.00000  Uiso   1.00
H362   H     0.29419   0.43125   0.37367   0.00000  Uiso   1.00
H363   H     0.26273   0.40907   0.44137   0.00000  Uiso   1.00
H364   H     0.19829   0.36352   0.43481   0.00000  Uiso   1.00
H365   H     0.16377   0.34301   0.36106   0.00000  Uiso   1.00
C366   C     0.09479   0.62689   0.20843   0.00000  Uiso   1.00
C367   C     0.08661   0.59938   0.17065   0.00000  Uiso   1.00
C368   C     0.04644   0.59457   0.14973   0.00000  Uiso   1.00
C369   C     0.01393   0.61921   0.16500   0.00000  Uiso   1.00
C370   C     0.02150   0.64780   0.20184   0.00000  Uiso   1.00
C371   C     0.06134   0.65067   0.22414   0.00000  Uiso   1.00
H372   H     0.11110   0.58365   0.15582   0.00000  Uiso   1.00
H373   H     0.04082   0.57311   0.12058   0.00000  Uiso   1.00
H374   H     0.31634   0.61651   0.14808   0.00000  Uiso   1.00
H375   H     0.32995   0.33462   0.21297   0.00000  Uiso   1.00
H376   H     0.06667   0.34048   0.25213   0.00000  Uiso   1.00
C377   C     0.42089   0.49991   0.25053   0.00000  Uiso   1.00
C378   C     0.57900   0.49971   0.24854   0.00000  Uiso   1.00
C379   C     0.50122   0.50011   0.16525   0.00000  Uiso   1.00
C380   C     0.49774   0.50010   0.33457   0.00000  Uiso   1.00
C381   C     0.47643   0.35778   0.21814   0.00000  Uiso   1.00
C382   C     0.52919   0.64239   0.27640   0.00000  Uiso   1.00
C383   C     0.52404   0.35744   0.28167   0.00000  Uiso   1.00
C384   C     0.47060   0.64310   0.22403   0.00000  Uiso   1.00
C385   C     0.35499   0.45733   0.25109   0.00000  Uiso   1.00
C386   C     0.64465   0.54008   0.24386   0.00000  Uiso   1.00
C387   C     0.64553   0.45715   0.24800   0.00000  Uiso   1.00
C388   C     0.35398   0.54033   0.24811   0.00000  Uiso   1.00
C389   C     0.48771   0.54012   0.04684   0.00000  Uiso   1.00
C390   C     0.48481   0.46031   0.45069   0.00000  Uiso   1.00
C391   C     0.50034   0.54159   0.45208   0.00000  Uiso   1.00
C392   C     0.51322   0.46168   0.04854   0.00000  Uiso   1.00
C393   C     0.49174   0.54079   0.09271   0.00000  Uiso   1.00
C394   C     0.48390   0.46055   0.40460   0.00000  Uiso   1.00
C395   C     0.49778   0.54189   0.40624   0.00000  Uiso   1.00
C396   C     0.51554   0.46192   0.09476   0.00000  Uiso   1.00
C397   C     0.50294   0.50085   0.11706   0.00000  Uiso   1.00
C398   C     0.49322   0.50072   0.38232   0.00000  Uiso   1.00
C399   C     0.49814   0.50048   0.02403   0.00000  Uiso   1.00
C400   C     0.49467   0.50059   0.47506   0.00000  Uiso   1.00
C401   C     0.62351   0.49884   0.24637   0.00000  Uiso   1.00
C402   C     0.37615   0.49917   0.25055   0.00000  Uiso   1.00
Cu403  Cu    0.50000   0.54689   0.25000   0.00000  Uiso   1.00
Cu404  Cu    0.50000   0.45311   0.25000   0.00000  Uiso   1.00
H405   H     0.47598   0.57083   0.02954   0.00000  Uiso   1.00
H406   H     0.47779   0.42870   0.46710   0.00000  Uiso   1.00
H407   H     0.50742   0.57365   0.46920   0.00000  Uiso   1.00
H408   H     0.52338   0.43125   0.03214   0.00000  Uiso   1.00
H409   H     0.48577   0.57285   0.10856   0.00000  Uiso   1.00
H410   H     0.47558   0.42952   0.38637   0.00000  Uiso   1.00
H411   H     0.49934   0.57463   0.39003   0.00000  Uiso   1.00
H412   H     0.52739   0.43186   0.11306   0.00000  Uiso   1.00
H413   H     0.37122   0.42474   0.25422   0.00000  Uiso   1.00
H414   H     0.62817   0.57206   0.23837   0.00000  Uiso   1.00
H415   H     0.63005   0.42439   0.24648   0.00000  Uiso   1.00
H416   H     0.36971   0.57259   0.24960   0.00000  Uiso   1.00
N417   N     0.50000   0.61736   0.25000   0.00000  Uiso   1.00
N418   N     0.50000   0.38264   0.25000   0.00000  Uiso   1.00
O419   O     0.43988   0.53958   0.24999   0.00000  Uiso   1.00
O420   O     0.56012   0.46042   0.25000   0.00000  Uiso   1.00
O421   O     0.56012   0.53958   0.25000   0.00000  Uiso   1.00
O422   O     0.43988   0.46042   0.24999   0.00000  Uiso   1.00
O423   O     0.50000   0.53959   0.18573   0.00000  Uiso   1.00
O424   O     0.50000   0.46041   0.31427   0.00000  Uiso   1.00
O425   O     0.50000   0.53959   0.31427   0.00000  Uiso   1.00
O426   O     0.50000   0.46041   0.18573   0.00000  Uiso   1.00
C427   C     0.45976   0.37734   0.17452   0.00000  Uiso   1.00
C428   C     0.42254   0.40234   0.16877   0.00000  Uiso   1.00
C429   C     0.40478   0.41482   0.12638   0.00000  Uiso   1.00
C430   C     0.42301   0.40057   0.08907   0.00000  Uiso   1.00
C431   C     0.45889   0.37366   0.09417   0.00000  Uiso   1.00
C432   C     0.47737   0.36241   0.13663   0.00000  Uiso   1.00
H433   H     0.40595   0.40998   0.19650   0.00000  Uiso   1.00
H434   H     0.37620   0.43435   0.12243   0.00000  Uiso   1.00
H435   H     0.40899   0.40972   0.05621   0.00000  Uiso   1.00
H436   H     0.47264   0.36186   0.06525   0.00000  Uiso   1.00
H437   H     0.50497   0.34111   0.14000   0.00000  Uiso   1.00
C438   C     0.56956   0.62321   0.29620   0.00000  Uiso   1.00
C439   C     0.57327   0.59887   0.33626   0.00000  Uiso   1.00
C440   C     0.61197   0.58856   0.35883   0.00000  Uiso   1.00
C441   C     0.64766   0.60526   0.34305   0.00000  Uiso   1.00
C442   C     0.64449   0.63237   0.30489   0.00000  Uiso   1.00
C443   C     0.60578   0.64083   0.28128   0.00000  Uiso   1.00
H444   H     0.54652   0.59097   0.35176   0.00000  Uiso   1.00
H445   H     0.61413   0.56938   0.38959   0.00000  Uiso   1.00
H446   H     0.34429   0.59827   0.36102   0.00000  Uiso   1.00
H447   H     0.33870   0.64677   0.29366   0.00000  Uiso   1.00
H448   H     0.60375   0.66262   0.25215   0.00000  Uiso   1.00
C449   C     0.54173   0.37721   0.32467   0.00000  Uiso   1.00
C450   C     0.57948   0.40053   0.32905   0.00000  Uiso   1.00
C451   C     0.59852   0.41295   0.37083   0.00000  Uiso   1.00
C452   C     0.58105   0.40006   0.40897   0.00000  Uiso   1.00
C453   C     0.54473   0.37445   0.40526   0.00000  Uiso   1.00
C454   C     0.52500   0.36337   0.36337   0.00000  Uiso   1.00
H455   H     0.59543   0.40657   0.30065   0.00000  Uiso   1.00
H456   H     0.62753   0.43125   0.37367   0.00000  Uiso   1.00
H457   H     0.59607   0.40907   0.44137   0.00000  Uiso   1.00
H458   H     0.53162   0.36352   0.43481   0.00000  Uiso   1.00
H459   H     0.49710   0.34301   0.36106   0.00000  Uiso   1.00
C460   C     0.42812   0.62689   0.20843   0.00000  Uiso   1.00
C461   C     0.41995   0.59938   0.17065   0.00000  Uiso   1.00
C462   C     0.37977   0.59457   0.14973   0.00000  Uiso   1.00
C463   C     0.34726   0.61921   0.16500   0.00000  Uiso   1.00
C464   C     0.35483   0.64780   0.20184   0.00000  Uiso   1.00
C465   C     0.39467   0.65067   0.22414   0.00000  Uiso   1.00
H466   H     0.44443   0.58365   0.15582   0.00000  Uiso   1.00
H467   H     0.37415   0.57311   0.12058   0.00000  Uiso   1.00
H468   H     0.64968   0.61651   0.14808   0.00000  Uiso   1.00
H469   H     0.66328   0.33462   0.21297   0.00000  Uiso   1.00
H470   H     0.40000   0.34048   0.25213   0.00000  Uiso   1.00
C471   C     0.75422   0.49991   0.25053   0.00000  Uiso   1.00
C472   C     0.91233   0.49971   0.24854   0.00000  Uiso   1.00
C473   C     0.83455   0.50011   0.16525   0.00000  Uiso   1.00
C474   C     0.83107   0.50010   0.33457   0.00000  Uiso   1.00
C475   C     0.80977   0.35778   0.21814   0.00000  Uiso   1.00
C476   C     0.86253   0.64239   0.27640   0.00000  Uiso   1.00
C477   C     0.85737   0.35744   0.28167   0.00000  Uiso   1.00
C478   C     0.80394   0.64310   0.22403   0.00000  Uiso   1.00
C479   C     0.68832   0.45733   0.25109   0.00000  Uiso   1.00
C480   C     0.97798   0.54008   0.24386   0.00000  Uiso   1.00
C481   C     0.97886   0.45715   0.24800   0.00000  Uiso   1.00
C482   C     0.68732   0.54033   0.24811   0.00000  Uiso   1.00
C483   C     0.82104   0.54012   0.04684   0.00000  Uiso   1.00
C484   C     0.81814   0.46031   0.45069   0.00000  Uiso   1.00
C485   C     0.83368   0.54159   0.45208   0.00000  Uiso   1.00
C486   C     0.84655   0.46168   0.04854   0.00000  Uiso   1.00
C487   C     0.82507   0.54079   0.09271   0.00000  Uiso   1.00
C488   C     0.81723   0.46055   0.40460   0.00000  Uiso   1.00
C489   C     0.83111   0.54189   0.40624   0.00000  Uiso   1.00
C490   C     0.84887   0.46192   0.09476   0.00000  Uiso   1.00
C491   C     0.83628   0.50085   0.11706   0.00000  Uiso   1.00
C492   C     0.82656   0.50072   0.38232   0.00000  Uiso   1.00
C493   C     0.83147   0.50048   0.02403   0.00000  Uiso   1.00
C494   C     0.82800   0.50059   0.47506   0.00000  Uiso   1.00
C495   C     0.95684   0.49884   0.24637   0.00000  Uiso   1.00
C496   C     0.70949   0.49917   0.25055   0.00000  Uiso   1.00
Cu497  Cu    0.83333   0.54689   0.25000   0.00000  Uiso   1.00
Cu498  Cu    0.83333   0.45311   0.25000   0.00000  Uiso   1.00
H499   H     0.80931   0.57083   0.02954   0.00000  Uiso   1.00
H500   H     0.81112   0.42870   0.46710   0.00000  Uiso   1.00
H501   H     0.84075   0.57365   0.46920   0.00000  Uiso   1.00
H502   H     0.85671   0.43125   0.03214   0.00000  Uiso   1.00
H503   H     0.81911   0.57285   0.10856   0.00000  Uiso   1.00
H504   H     0.80891   0.42952   0.38637   0.00000  Uiso   1.00
H505   H     0.83267   0.57463   0.39003   0.00000  Uiso   1.00
H506   H     0.86073   0.43186   0.11306   0.00000  Uiso   1.00
H507   H     0.70455   0.42474   0.25422   0.00000  Uiso   1.00
H508   H     0.96151   0.57206   0.23837   0.00000  Uiso   1.00
H509   H     0.96339   0.42439   0.24648   0.00000  Uiso   1.00
H510   H     0.70304   0.57259   0.24960   0.00000  Uiso   1.00
N511   N     0.83333   0.61736   0.25000   0.00000  Uiso   1.00
N512   N     0.83333   0.38264   0.25000   0.00000  Uiso   1.00
O513   O     0.77321   0.53958   0.24999   0.00000  Uiso   1.00
O514   O     0.89345   0.46042   0.25000   0.00000  Uiso   1.00
O515   O     0.89345   0.53958   0.25000   0.00000  Uiso   1.00
O516   O     0.77321   0.46042   0.24999   0.00000  Uiso   1.00
O517   O     0.83333   0.53959   0.18573   0.00000  Uiso   1.00
O518   O     0.83334   0.46041   0.31427   0.00000  Uiso   1.00
O519   O     0.83334   0.53959   0.31427   0.00000  Uiso   1.00
O520   O     0.83333   0.46041   0.18573   0.00000  Uiso   1.00
C521   C     0.79309   0.37734   0.17452   0.00000  Uiso   1.00
C522   C     0.75587   0.40234   0.16877   0.00000  Uiso   1.00
C523   C     0.73812   0.41482   0.12638   0.00000  Uiso   1.00
C524   C     0.75634   0.40057   0.08907   0.00000  Uiso   1.00
C525   C     0.79222   0.37366   0.09417   0.00000  Uiso   1.00
C526   C     0.81070   0.36241   0.13663   0.00000  Uiso   1.00
H527   H     0.73928   0.40998   0.19650   0.00000  Uiso   1.00
H528   H     0.70953   0.43435   0.12243   0.00000  Uiso   1.00
H529   H     0.74232   0.40972   0.05621   0.00000  Uiso   1.00
H530   H     0.80597   0.36186   0.06525   0.00000  Uiso   1.00
H531   H     0.83830   0.34111   0.14000   0.00000  Uiso   1.00
C532   C     0.90289   0.62321   0.29620   0.00000  Uiso   1.00
C533   C     0.90661   0.59887   0.33626   0.00000  Uiso   1.00
C534   C     0.94530   0.58856   0.35883   0.00000  Uiso   1.00
C535   C     0.98100   0.60526   0.34305   0.00000  Uiso   1.00
C536   C     0.97783   0.63237   0.30489   0.00000  Uiso   1.00
C537   C     0.93911   0.64083   0.28128   0.00000  Uiso   1.00
H538   H     0.87985   0.59097   0.35176   0.00000  Uiso   1.00
H539   H     0.94746   0.56938   0.38959   0.00000  Uiso   1.00
H540   H     0.67763   0.59827   0.36102   0.00000  Uiso   1.00
H541   H     0.67203   0.64677   0.29366   0.00000  Uiso   1.00
H542   H     0.93708   0.66262   0.25215   0.00000  Uiso   1.00
C543   C     0.87507   0.37721   0.32467   0.00000  Uiso   1.00
C544   C     0.91281   0.40053   0.32905   0.00000  Uiso   1.00
C545   C     0.93185   0.41295   0.37083   0.00000  Uiso   1.00
C546   C     0.91438   0.40006   0.40897   0.00000  Uiso   1.00
C547   C     0.87806   0.37445   0.40526   0.00000  Uiso   1.00
C548   C     0.85833   0.36337   0.36337   0.00000  Uiso   1.00
H549   H     0.92876   0.40657   0.30065   0.00000  Uiso   1.00
H550   H     0.96086   0.43125   0.37367   0.00000  Uiso   1.00
H551   H     0.92940   0.40907   0.44137   0.00000  Uiso   1.00
H552   H     0.86496   0.36352   0.43481   0.00000  Uiso   1.00
H553   H     0.83043   0.34301   0.36106   0.00000  Uiso   1.00
C554   C     0.76146   0.62689   0.20843   0.00000  Uiso   1.00
C555   C     0.75328   0.59938   0.17065   0.00000  Uiso   1.00
C556   C     0.71310   0.59457   0.14973   0.00000  Uiso   1.00
C557   C     0.68059   0.61921   0.16500   0.00000  Uiso   1.00
C558   C     0.68816   0.64780   0.20184   0.00000  Uiso   1.00
C559   C     0.72800   0.65067   0.22414   0.00000  Uiso   1.00
H560   H     0.77776   0.58365   0.15582   0.00000  Uiso   1.00
H561   H     0.70749   0.57311   0.12058   0.00000  Uiso   1.00
H562   H     0.98301   0.61651   0.14808   0.00000  Uiso   1.00
H563   H     0.99662   0.33462   0.21297   0.00000  Uiso   1.00
H564   H     0.73334   0.34048   0.25213   0.00000  Uiso   1.00
C565   C     0.08755   0.83324   0.25053   0.00000  Uiso   1.00
C566   C     0.24567   0.83304   0.24854   0.00000  Uiso   1.00
C567   C     0.16789   0.83345   0.16525   0.00000  Uiso   1.00
C568   C     0.16441   0.83343   0.33457   0.00000  Uiso   1.00
C569   C     0.14310   0.69111   0.21814   0.00000  Uiso   1.00
C570   C     0.19586   0.97573   0.27640   0.00000  Uiso   1.00
C571   C     0.19071   0.69077   0.28167   0.00000  Uiso   1.00
C572   C     0.13727   0.97643   0.22403   0.00000  Uiso   1.00
C573   C     0.02166   0.79066   0.25109   0.00000  Uiso   1.00
C574   C     0.31131   0.87341   0.24386   0.00000  Uiso   1.00
C575   C     0.31220   0.79048   0.24800   0.00000  Uiso   1.00
C576   C     0.02065   0.87366   0.24811   0.00000  Uiso   1.00
C577   C     0.15438   0.87345   0.04684   0.00000  Uiso   1.00
C578   C     0.15147   0.79364   0.45069   0.00000  Uiso   1.00
C579   C     0.16701   0.87492   0.45208   0.00000  Uiso   1.00
C580   C     0.17988   0.79501   0.04854   0.00000  Uiso   1.00
C581   C     0.15840   0.87413   0.09271   0.00000  Uiso   1.00
C582   C     0.15057   0.79389   0.40460   0.00000  Uiso   1.00
C583   C     0.16445   0.87522   0.40624   0.00000  Uiso   1.00
C584   C     0.18220   0.79526   0.09476   0.00000  Uiso   1.00
C585   C     0.16961   0.83418   0.11706   0.00000  Uiso   1.00
C586   C     0.15989   0.83406   0.38232   0.00000  Uiso   1.00
C587   C     0.16480   0.83382   0.02403   0.00000  Uiso   1.00
C588   C     0.16133   0.83392   0.47506   0.00000  Uiso   1.00
C589   C     0.29017   0.83217   0.24637   0.00000  Uiso   1.00
C590   C     0.04282   0.83250   0.25055   0.00000  Uiso   1.00
Cu591  Cu    0.16667   0.88022   0.25000   0.00000  Uiso   1.00
Cu592  Cu    0.16667   0.78645   0.25000   0.00000  Uiso   1.00
H593   H     0.14265   0.90416   0.02954   0.00000  Uiso   1.00
H594   H     0.14445   0.76203   0.46710   0.00000  Uiso   1.00
H595   H     0.17409   0.90698   0.46920   0.00000  Uiso   1.00
H596   H     0.19005   0.76459   0.03214   0.00000  Uiso   1.00
H597   H     0.15244   0.90618   0.10856   0.00000  Uiso   1.00
H598   H     0.14225   0.76286   0.38637   0.00000  Uiso   1.00
H599   H     0.16600   0.90796   0.39003   0.00000  Uiso   1.00
H600   H     0.19406   0.76520   0.11306   0.00000  Uiso   1.00
H601   H     0.03788   0.75808   0.25422   0.00000  Uiso   1.00
H602   H     0.29484   0.90539   0.23837   0.00000  Uiso   1.00
H603   H     0.29672   0.75773   0.24648   0.00000  Uiso   1.00
H604   H     0.03637   0.90592   0.24960   0.00000  Uiso   1.00
N605   N     0.16667   0.95069   0.25000   0.00000  Uiso   1.00
N606   N     0.16667   0.71598   0.25000   0.00000  Uiso   1.00
O607   O     0.10655   0.87291   0.24999   0.00000  Uiso   1.00
O608   O     0.22679   0.79375   0.25000   0.00000  Uiso   1.00
O609   O     0.22679   0.87291   0.25000   0.00000  Uiso   1.00
O610   O     0.10655   0.79375   0.24999   0.00000  Uiso   1.00
O611   O     0.16666   0.87293   0.18573   0.00000  Uiso   1.00
O612   O     0.16667   0.79374   0.31427   0.00000  Uiso   1.00
O613   O     0.16667   0.87293   0.31427   0.00000  Uiso   1.00
O614   O     0.16666   0.79374   0.18573   0.00000  Uiso   1.00
C615   C     0.12643   0.71067   0.17452   0.00000  Uiso   1.00
C616   C     0.08920   0.73568   0.16877   0.00000  Uiso   1.00
C617   C     0.07145   0.74815   0.12638   0.00000  Uiso   1.00
C618   C     0.08968   0.73390   0.08907   0.00000  Uiso   1.00
C619   C     0.12556   0.70700   0.09417   0.00000  Uiso   1.00
C620   C     0.14403   0.69574   0.13663   0.00000  Uiso   1.00
H621   H     0.07262   0.74331   0.19650   0.00000  Uiso   1.00
H622   H     0.04287   0.76769   0.12243   0.00000  Uiso   1.00
H623   H     0.07566   0.74305   0.05621   0.00000  Uiso   1.00
H624   H     0.13931   0.69520   0.06525   0.00000  Uiso   1.00
H625   H     0.17163   0.67444   0.14000   0.00000  Uiso   1.00
C626   C     0.23623   0.95654   0.29620   0.00000  Uiso   1.00
C627   C     0.23994   0.93220   0.33626   0.00000  Uiso   1.00
C628   C     0.27864   0.92190   0.35883   0.00000  Uiso   1.00
C629   C     0.31433   0.93859   0.34305   0.00000  Uiso   1.00
C630   C     0.31116   0.96570   0.30489   0.00000  Uiso   1.00
C631   C     0.27245   0.97417   0.28128   0.00000  Uiso   1.00
H632   H     0.21319   0.92431   0.35176   0.00000  Uiso   1.00
H633   H     0.28079   0.90272   0.38959   0.00000  Uiso   1.00
H634   H     0.01096   0.93161   0.36102   0.00000  Uiso   1.00
H635   H     0.00536   0.98010   0.29366   0.00000  Uiso   1.00
H636   H     0.27041   0.99595   0.25215   0.00000  Uiso   1.00
C637   C     0.20840   0.71055   0.32467   0.00000  Uiso   1.00
C638   C     0.24615   0.73386   0.32905   0.00000  Uiso   1.00
C639   C     0.26519   0.74628   0.37083   0.00000  Uiso   1.00
C640   C     0.24771   0.73339   0.40897   0.00000  Uiso   1.00
C641   C     0.21140   0.70779   0.40526   0.00000  Uiso   1.00
C642   C     0.19167   0.69670   0.36337   0.00000  Uiso   1.00
H643   H     0.26209   0.73991   0.30065   0.00000  Uiso   1.00
H644   H     0.29419   0.76458   0.37367   0.00000  Uiso   1.00
H645   H     0.26273   0.74240   0.44137   0.00000  Uiso   1.00
H646   H     0.19829   0.69685   0.43481   0.00000  Uiso   1.00
H647   H     0.16377   0.67634   0.36106   0.00000  Uiso   1.00
C648   C     0.09479   0.96022   0.20843   0.00000  Uiso   1.00
C649   C     0.08661   0.93271   0.17065   0.00000  Uiso   1.00
C650   C     0.04644   0.92790   0.14973   0.00000  Uiso   1.00
C651   C     0.01393   0.95254   0.16500   0.00000  Uiso   1.00
C652   C     0.02150   0.98113   0.20184   0.00000  Uiso   1.00
C653   C     0.06134   0.98400   0.22414   0.00000  Uiso   1.00
H654   H     0.11110   0.91698   0.15582   0.00000  Uiso   1.00
H655   H     0.04082   0.90644   0.12058   0.00000  Uiso   1.00
H656   H     0.31634   0.94985   0.14808   0.00000  Uiso   1.00
H657   H     0.32995   0.66795   0.21297   0.00000  Uiso   1.00
H658   H     0.06667   0.67381   0.25213   0.00000  Uiso   1.00
C659   C     0.42089   0.83324   0.25053   0.00000  Uiso   1.00
C660   C     0.57900   0.83304   0.24854   0.00000  Uiso   1.00
C661   C     0.50122   0.83345   0.16525   0.00000  Uiso   1.00
C662   C     0.49774   0.83343   0.33457   0.00000  Uiso   1.00
C663   C     0.47643   0.69111   0.21814   0.00000  Uiso   1.00
C664   C     0.52919   0.97573   0.27640   0.00000  Uiso   1.00
C665   C     0.52404   0.69077   0.28167   0.00000  Uiso   1.00
C666   C     0.47060   0.97643   0.22403   0.00000  Uiso   1.00
C667   C     0.35499   0.79066   0.25109   0.00000  Uiso   1.00
C668   C     0.64465   0.87341   0.24386   0.00000  Uiso   1.00
C669   C     0.64553   0.79048   0.24800   0.00000  Uiso   1.00
C670   C     0.35398   0.87366   0.24811   0.00000  Uiso   1.00
C671   C     0.48771   0.87345   0.04684   0.00000  Uiso   1.00
C672   C     0.48481   0.79364   0.45069   0.00000  Uiso   1.00
C673   C     0.50034   0.87492   0.45208   0.00000  Uiso   1.00
C674   C     0.51322   0.79501   0.04854   0.00000  Uiso   1.00
C675   C     0.49174   0.87413   0.09271   0.00000  Uiso   1.00
C676   C     0.48390   0.79389   0.40460   0.00000  Uiso   1.00
C677   C     0.49778   0.87522   0.40624   0.00000  Uiso   1.00
C678   C     0.51554   0.79526   0.09476   0.00000  Uiso   1.00
C679   C     0.50294   0.83418   0.11706   0.00000  Uiso   1.00
C680   C     0.49322   0.83406   0.38232   0.00000  Uiso   1.00
C681   C     0.49814   0.83382   0.02403   0.00000  Uiso   1.00
C682   C     0.49467   0.83392   0.47506   0.00000  Uiso   1.00
C683   C     0.62351   0.83217   0.24637   0.00000  Uiso   1.00
C684   C     0.37615   0.83250   0.25055   0.00000  Uiso   1.00
Cu685  Cu    0.50000   0.88022   0.25000   0.00000  Uiso   1.00
Cu686  Cu    0.50000   0.78645   0.25000   0.00000  Uiso   1.00
H687   H     0.47598   0.90416   0.02954   0.00000  Uiso   1.00
H688   H     0.47779   0.76203   0.46710   0.00000  Uiso   1.00
H689   H     0.50742   0.90698   0.46920   0.00000  Uiso   1.00
H690   H     0.52338   0.76459   0.03214   0.00000  Uiso   1.00
H691   H     0.48577   0.90618   0.10856   0.00000  Uiso   1.00
H692   H     0.47558   0.76286   0.38637   0.00000  Uiso   1.00
H693   H     0.49934   0.90796   0.39003   0.00000  Uiso   1.00
H694   H     0.52739   0.76520   0.11306   0.00000  Uiso   1.00
H695   H     0.37122   0.75808   0.25422   0.00000  Uiso   1.00
H696   H     0.62817   0.90539   0.23837   0.00000  Uiso   1.00
H697   H     0.63005   0.75773   0.24648   0.00000  Uiso   1.00
H698   H     0.36971   0.90592   0.24960   0.00000  Uiso   1.00
N699   N     0.50000   0.95069   0.25000   0.00000  Uiso   1.00
N700   N     0.50000   0.71598   0.25000   0.00000  Uiso   1.00
O701   O     0.43988   0.87291   0.24999   0.00000  Uiso   1.00
O702   O     0.56012   0.79375   0.25000   0.00000  Uiso   1.00
O703   O     0.56012   0.87291   0.25000   0.00000  Uiso   1.00
O704   O     0.43988   0.79375   0.24999   0.00000  Uiso   1.00
O705   O     0.50000   0.87293   0.18573   0.00000  Uiso   1.00
O706   O     0.50000   0.79374   0.31427   0.00000  Uiso   1.00
O707   O     0.50000   0.87293   0.31427   0.00000  Uiso   1.00
O708   O     0.50000   0.79374   0.18573   0.00000  Uiso   1.00
C709   C     0.45976   0.71067   0.17452   0.00000  Uiso   1.00
C710   C     0.42254   0.73568   0.16877   0.00000  Uiso   1.00
C711   C     0.40478   0.74815   0.12638   0.00000  Uiso   1.00
C712   C     0.42301   0.73390   0.08907   0.00000  Uiso   1.00
C713   C     0.45889   0.70700   0.09417   0.00000  Uiso   1.00
C714   C     0.47737   0.69574   0.13663   0.00000  Uiso   1.00
H715   H     0.40595   0.74331   0.19650   0.00000  Uiso   1.00
H716   H     0.37620   0.76769   0.12243   0.00000  Uiso   1.00
H717   H     0.40899   0.74305   0.05621   0.00000  Uiso   1.00
H718   H     0.47264   0.69520   0.06525   0.00000  Uiso   1.00
H719   H     0.50497   0.67444   0.14000   0.00000  Uiso   1.00
C720   C     0.56956   0.95654   0.29620   0.00000  Uiso   1.00
C721   C     0.57327   0.93220   0.33626   0.00000  Uiso   1.00
C722   C     0.61197   0.92190   0.35883   0.00000  Uiso   1.00
C723   C     0.64766   0.93859   0.34305   0.00000  Uiso   1.00
C724   C     0.64449   0.96570   0.30489   0.00000  Uiso   1.00
C725   C     0.60578   0.97417   0.28128   0.00000  Uiso   1.00
H726   H     0.54652   0.92431   0.35176   0.00000  Uiso   1.00
H727   H     0.61413   0.90272   0.38959   0.00000  Uiso   1.00
H728   H     0.34429   0.93161   0.36102   0.00000  Uiso   1.00
H729   H     0.33870   0.98010   0.29366   0.00000  Uiso   1.00
H730   H     0.60375   0.99595   0.25215   0.00000  Uiso   1.00
C731   C     0.54173   0.71055   0.32467   0.00000  Uiso   1.00
C732   C     0.57948   0.73386   0.32905   0.00000  Uiso   1.00
C733   C     0.59852   0.74628   0.37083   0.00000  Uiso   1.00
C734   C     0.58105   0.73339   0.40897   0.00000  Uiso   1.00
C735   C     0.54473   0.70779   0.40526   0.00000  Uiso   1.00
C736   C     0.52500   0.69670   0.36337   0.00000  Uiso   1.00
H737   H     0.59543   0.73991   0.30065   0.00000  Uiso   1.00
H738   H     0.62753   0.76458   0.37367   0.00000  Uiso   1.00
H739   H     0.59607   0.74240   0.44137   0.00000  Uiso   1.00
H740   H     0.53162   0.69685   0.43481   0.00000  Uiso   1.00
H741   H     0.49710   0.67634   0.36106   0.00000  Uiso   1.00
C742   C     0.42812   0.96022   0.20843   0.00000  Uiso   1.00
C743   C     0.41995   0.93271   0.17065   0.00000  Uiso   1.00
C744   C     0.37977   0.92790   0.14973   0.00000  Uiso   1.00
C745   C     0.34726   0.95254   0.16500   0.00000  Uiso   1.00
C746   C     0.35483   0.98113   0.20184   0.00000  Uiso   1.00
C747   C     0.39467   0.98400   0.22414   0.00000  Uiso   1.00
H748   H     0.44443   0.91698   0.15582   0.00000  Uiso   1.00
H749   H     0.37415   0.90644   0.12058   0.00000  Uiso   1.00
H750   H     0.64968   0.94985   0.14808   0.00000  Uiso   1.00
H751   H     0.66328   0.66795   0.21297   0.00000  Uiso   1.00
H752   H     0.40000   0.67381   0.25213   0.00000  Uiso   1.00
C753   C     0.75422   0.83324   0.25053   0.00000  Uiso   1.00
C754   C     0.91233   0.83304   0.24854   0.00000  Uiso   1.00
C755   C     0.83455   0.83345   0.16525   0.00000  Uiso   1.00
C756   C     0.83107   0.83343   0.33457   0.00000  Uiso   1.00
C757   C     0.80977   0.69111   0.21814   0.00000  Uiso   1.00
C758   C     0.86253   0.97573   0.27640   0.00000  Uiso   1.00
C759   C     0.85737   0.69077   0.28167   0.00000  Uiso   1.00
C760   C     0.80394   0.97643   0.22403   0.00000  Uiso   1.00
C761   C     0.68832   0.79066   0.25109   0.00000  Uiso   1.00
C762   C     0.97798   0.87341   0.24386   0.00000  Uiso   1.00
C763   C     0.97886   0.79048   0.24800   0.00000  Uiso   1.00
C764   C     0.68732   0.87366   0.24811   0.00000  Uiso   1.00
C765   C     0.82104   0.87345   0.04684   0.00000  Uiso   1.00
C766   C     0.81814   0.79364   0.45069   0.00000  Uiso   1.00
C767   C     0.83368   0.87492   0.45208   0.00000  Uiso   1.00
C768   C     0.84655   0.79501   0.04854   0.00000  Uiso   1.00
C769   C     0.82507   0.87413   0.09271   0.00000  Uiso   1.00
C770   C     0.81723   0.79389   0.40460   0.00000  Uiso   1.00
C771   C     0.83111   0.87522   0.40624   0.00000  Uiso   1.00
C772   C     0.84887   0.79526   0.09476   0.00000  Uiso   1.00
C773   C     0.83628   0.83418   0.11706   0.00000  Uiso   1.00
C774   C     0.82656   0.83406   0.38232   0.00000  Uiso   1.00
C775   C     0.83147   0.83382   0.02403   0.00000  Uiso   1.00
C776   C     0.82800   0.83392   0.47506   0.00000  Uiso   1.00
C777   C     0.95684   0.83217   0.24637   0.00000  Uiso   1.00
C778   C     0.70949   0.83250   0.25055   0.00000  Uiso   1.00
Cu779  Cu    0.83333   0.88022   0.25000   0.00000  Uiso   1.00
Cu780  Cu    0.83333   0.78645   0.25000   0.00000  Uiso   1.00
H781   H     0.80931   0.90416   0.02954   0.00000  Uiso   1.00
H782   H     0.81112   0.76203   0.46710   0.00000  Uiso   1.00
H783   H     0.84075   0.90698   0.46920   0.00000  Uiso   1.00
H784   H     0.85671   0.76459   0.03214   0.00000  Uiso   1.00
H785   H     0.81911   0.90618   0.10856   0.00000  Uiso   1.00
H786   H     0.80891   0.76286   0.38637   0.00000  Uiso   1.00
H787   H     0.83267   0.90796   0.39003   0.00000  Uiso   1.00
H788   H     0.86073   0.76520   0.11306   0.00000  Uiso   1.00
H789   H     0.70455   0.75808   0.25422   0.00000  Uiso   1.00
H790   H     0.96151   0.90539   0.23837   0.00000  Uiso   1.00
H791   H     0.96339   0.75773   0.24648   0.00000  Uiso   1.00
H792   H     0.70304   0.90592   0.24960   0.00000  Uiso   1.00
N793   N     0.83333   0.95069   0.25000   0.00000  Uiso   1.00
N794   N     0.83333   0.71598   0.25000   0.00000  Uiso   1.00
O795   O     0.77321   0.87291   0.24999   0.00000  Uiso   1.00
O796   O     0.89345   0.79375   0.25000   0.00000  Uiso   1.00
O797   O     0.89345   0.87291   0.25000   0.00000  Uiso   1.00
O798   O     0.77321   0.79375   0.24999   0.00000  Uiso   1.00
O799   O     0.83333   0.87293   0.18573   0.00000  Uiso   1.00
O800   O     0.83334   0.79374   0.31427   0.00000  Uiso   1.00
O801   O     0.83334   0.87293   0.31427   0.00000  Uiso   1.00
O802   O     0.83333   0.79374   0.18573   0.00000  Uiso   1.00
C803   C     0.79309   0.71067   0.17452   0.00000  Uiso   1.00
C804   C     0.75587   0.73568   0.16877   0.00000  Uiso   1.00
C805   C     0.73812   0.74815   0.12638   0.00000  Uiso   1.00
C806   C     0.75634   0.73390   0.08907   0.00000  Uiso   1.00
C807   C     0.79222   0.70700   0.09417   0.00000  Uiso   1.00
C808   C     0.81070   0.69574   0.13663   0.00000  Uiso   1.00
H809   H     0.73928   0.74331   0.19650   0.00000  Uiso   1.00
H810   H     0.70953   0.76769   0.12243   0.00000  Uiso   1.00
H811   H     0.74232   0.74305   0.05621   0.00000  Uiso   1.00
H812   H     0.80597   0.69520   0.06525   0.00000  Uiso   1.00
H813   H     0.83830   0.67444   0.14000   0.00000  Uiso   1.00
C814   C     0.90289   0.95654   0.29620   0.00000  Uiso   1.00
C815   C     0.90661   0.93220   0.33626   0.00000  Uiso   1.00
C816   C     0.94530   0.92190   0.35883   0.00000  Uiso   1.00
C817   C     0.98100   0.93859   0.34305   0.00000  Uiso   1.00
C818   C     0.97783   0.96570   0.30489   0.00000  Uiso   1.00
C819   C     0.93911   0.97417   0.28128   0.00000  Uiso   1.00
H820   H     0.87985   0.92431   0.35176   0.00000  Uiso   1.00
H821   H     0.94746   0.90272   0.38959   0.00000  Uiso   1.00
H822   H     0.67763   0.93161   0.36102   0.00000  Uiso   1.00
H823   H     0.67203   0.98010   0.29366   0.00000  Uiso   1.00
H824   H     0.93708   0.99595   0.25215   0.00000  Uiso   1.00
C825   C     0.87507   0.71055   0.32467   0.00000  Uiso   1.00
C826   C     0.91281   0.73386   0.32905   0.00000  Uiso   1.00
C827   C     0.93185   0.74628   0.37083   0.00000  Uiso   1.00
C828   C     0.91438   0.73339   0.40897   0.00000  Uiso   1.00
C829   C     0.87806   0.70779   0.40526   0.00000  Uiso   1.00
C830   C     0.85833   0.69670   0.36337   0.00000  Uiso   1.00
H831   H     0.92876   0.73991   0.30065   0.00000  Uiso   1.00
H832   H     0.96086   0.76458   0.37367   0.00000  Uiso   1.00
H833   H     0.92940   0.74240   0.44137   0.00000  Uiso   1.00
H834   H     0.86496   0.69685   0.43481   0.00000  Uiso   1.00
H835   H     0.83043   0.67634   0.36106   0.00000  Uiso   1.00
C836   C     0.76146   0.96022   0.20843   0.00000  Uiso   1.00
C837   C     0.75328   0.93271   0.17065   0.00000  Uiso   1.00
C838   C     0.71310   0.92790   0.14973   0.00000  Uiso   1.00
C839   C     0.68059   0.95254   0.16500   0.00000  Uiso   1.00
C840   C     0.68816   0.98113   0.20184   0.00000  Uiso   1.00
C841   C     0.72800   0.98400   0.22414   0.00000  Uiso   1.00
H842   H     0.77776   0.91698   0.15582   0.00000  Uiso   1.00
H843   H     0.70749   0.90644   0.12058   0.00000  Uiso   1.00
H844   H     0.98301   0.94985   0.14808   0.00000  Uiso   1.00
H845   H     0.99662   0.66795   0.21297   0.00000  Uiso   1.00
H846   H     0.73334   0.67381   0.25213   0.00000  Uiso   1.00
C847   C     0.08755   0.16658   0.75053   0.00000  Uiso   1.00
C848   C     0.24567   0.16638   0.74854   0.00000  Uiso   1.00
C849   C     0.16789   0.16678   0.66525   0.00000  Uiso   1.00
C850   C     0.16441   0.16677   0.83457   0.00000  Uiso   1.00
C851   C     0.14310   0.02445   0.71814   0.00000  Uiso   1.00
C852   C     0.19586   0.30906   0.77640   0.00000  Uiso   1.00
C853   C     0.19071   0.02411   0.78167   0.00000  Uiso   1.00
C854   C     0.13727   0.30977   0.72403   0.00000  Uiso   1.00
C855   C     0.02166   0.12400   0.75109   0.00000  Uiso   1.00
C856   C     0.31131   0.20675   0.74386   0.00000  Uiso   1.00
C857   C     0.31220   0.12381   0.74800   0.00000  Uiso   1.00
C858   C     0.02065   0.20699   0.74811   0.00000  Uiso   1.00
C859   C     0.15438   0.20678   0.54684   0.00000  Uiso   1.00
C860   C     0.15147   0.12698   0.95069   0.00000  Uiso   1.00
C861   C     0.16701   0.20825   0.95208   0.00000  Uiso   1.00
C862   C     0.17988   0.12834   0.54854   0.00000  Uiso   1.00
C863   C     0.15840   0.20746   0.59271   0.00000  Uiso   1.00
C864   C     0.15057   0.12722   0.90460   0.00000  Uiso   1.00
C865   C     0.16445   0.20856   0.90624   0.00000  Uiso   1.00
C866   C     0.18220   0.12859   0.59476   0.00000  Uiso   1.00
C867   C     0.16961   0.16751   0.61706   0.00000  Uiso   1.00
C868   C     0.15989   0.16739   0.88232   0.00000  Uiso   1.00
C869   C     0.16480   0.16715   0.52403   0.00000  Uiso   1.00
C870   C     0.16133   0.16726   0.97506   0.00000  Uiso   1.00
C871   C     0.29017   0.16550   0.74637   0.00000  Uiso   1.00
C872   C     0.04282   0.16584   0.75055   0.00000  Uiso   1.00
Cu873  Cu    0.16667   0.21355   0.75000   0.00000  Uiso   1.00
Cu874  Cu    0.16667   0.11978   0.75000   0.00000  Uiso   1.00
H875   H     0.14265   0.23749   0.52954   0.00000  Uiso   1.00
H876   H     0.14445   0.09536   0.96710   0.00000  Uiso   1.00
H877   H     0.17409   0.24032   0.96920   0.00000  Uiso   1.00
H878   H     0.19005   0.09792   0.53214   0.00000  Uiso   1.00
H879   H     0.15244   0.23951   0.60856   0.00000  Uiso   1.00
H880   H     0.14225   0.09619   0.88637   0.00000  Uiso   1.00
H881   H     0.16600   0.24130   0.89003   0.00000  Uiso   1.00
H882   H     0.19406   0.09853   0.61306   0.00000  Uiso   1.00
H883   H     0.03788   0.09141   0.75422   0.00000  Uiso   1.00
H884   H     0.29484   0.23872   0.73837   0.00000  Uiso   1.00
H885   H     0.29672   0.09106   0.74648   0.00000  Uiso   1.00
H886   H     0.03637   0.23926   0.74960   0.00000  Uiso   1.00
N887   N     0.16667   0.28402   0.75000   0.00000  Uiso   1.00
N888   N     0.16667   0.04931   0.75000   0.00000  Uiso   1.00
O889   O     0.10655   0.20625   0.74999   0.00000  Uiso   1.00
O890   O     0.22679   0.12709   0.75000   0.00000  Uiso   1.00
O891   O     0.22679   0.20625   0.75000   0.00000  Uiso   1.00
O892   O     0.10655   0.12709   0.74999   0.00000  Uiso   1.00
O893   O     0.16666   0.20626   0.68573   0.00000  Uiso   1.00
O894   O     0.16667   0.12707   0.81427   0.00000  Uiso   1.00
O895   O     0.16667   0.20626   0.81427   0.00000  Uiso   1.00
O896   O     0.16666   0.12707   0.68573   0.00000  Uiso   1.00
C897   C     0.12643   0.04400   0.67452   0.00000  Uiso   1.00
C898   C     0.08920   0.06901   0.66877   0.00000  Uiso   1.00
C899   C     0.07145   0.08149   0.62638   0.00000  Uiso   1.00
C900   C     0.08968   0.06723   0.58907   0.00000  Uiso   1.00
C901   C     0.12556   0.04033   0.59417   0.00000  Uiso   1.00
C902   C     0.14403   0.02908   0.63663   0.00000  Uiso   1.00
H903   H     0.07262   0.07664   0.69650   0.00000  Uiso   1.00
H904   H     0.04287   0.10102   0.62243   0.00000  Uiso   1.00
H905   H     0.07566   0.07638   0.55621   0.00000  Uiso   1.00
H906   H     0.13931   0.02853   0.56525   0.00000  Uiso   1.00
H907   H     0.17163   0.00778   0.64000   0.00000  Uiso   1.00
C908   C     0.23623   0.28988   0.79620   0.00000  Uiso   1.00
C909   C     0.23994   0.26554   0.83626   0.00000  Uiso   1.00
C910   C     0.27864   0.25523   0.85883   0.00000  Uiso   1.00
C911   C     0.31433   0.27192   0.84305   0.00000  Uiso   1.00
C912   C     0.31116   0.29904   0.80489   0.00000  Uiso   1.00
C913   C     0.27245   0.30750   0.78128   0.00000  Uiso   1.00
H914   H     0.21319   0.25764   0.85176   0.00000  Uiso   1.00
H915   H     0.28079   0.23605   0.88959   0.00000  Uiso   1.00
H916   H     0.01096   0.26494   0.86102   0.00000  Uiso   1.00
H917   H     0.00536   0.31344   0.79366   0.00000  Uiso   1.00
H918   H     0.27041   0.32928   0.75215   0.00000  Uiso   1.00
C919   C     0.20840   0.04388   0.82467   0.00000  Uiso   1.00
C920   C     0.24615   0.06719   0.82905   0.00000  Uiso   1.00
C921   C     0.26519   0.07962   0.87083   0.00000  Uiso   1.00
C922   C     0.24771   0.06672   0.90897   0.00000  Uiso   1.00
C923   C     0.21140   0.04112   0.90526   0.00000  Uiso   1.00
C924   C     0.19167   0.03003   0.86337   0.00000  Uiso   1.00
H925   H     0.26209   0.07324   0.80065   0.00000  Uiso   1.00
H926   H     0.29419   0.09791   0.87367   0.00000  Uiso   1.00
H927   H     0.26273   0.07573   0.94137   0.00000  Uiso   1.00
H928   H     0.19829   0.03018   0.93481   0.00000  Uiso   1.00
H929   H     0.16377   0.00968   0.86106   0.00000  Uiso   1.00
C930   C     0.09479   0.29356   0.70843   0.00000  Uiso   1.00
C931   C     0.08661   0.26605   0.67065   0.00000  Uiso   1.00
C932   C     0.04644   0.26124   0.64973   0.00000  Uiso   1.00
C933   C     0.01393   0.28588   0.66500   0.00000  Uiso   1.00
C934   C     0.02150   0.31446   0.70184   0.00000  Uiso   1.00
C935   C     0.06134   0.31734   0.72414   0.00000  Uiso   1.00
H936   H     0.11110   0.25031   0.65582   0.00000  Uiso   1.00
H937   H     0.04082   0.23977   0.62058   0.00000  Uiso   1.00
H938   H     0.31634   0.28318   0.64808   0.00000  Uiso   1.00
H939   H     0.32995   0.00129   0.71297   0.00000  Uiso   1.00
H940   H     0.06667   0.00715   0.75213   0.00000  Uiso   1.00
C941   C     0.42089   0.16658   0.75053   0.00000  Uiso   1.00
C942   C     0.57900   0.16638   0.74854   0.00000  Uiso   1.00
C943   C     0.50122   0.16678   0.66525   0.00000  Uiso   1.00
C944   C     0.49774   0.16677   0.83457   0.00000  Uiso   1.00
C945   C     0.47643   0.02445   0.71814   0.00000  Uiso   1.00
C946   C     0.52919   0.30906   0.77640   0.00000  Uiso   1.00
C947   C     0.52404   0.02411   0.78167   0.00000  Uiso   1.00
C948   C     0.47060   0.30977   0.72403   0.00000  Uiso   1.00
C949   C     0.35499   0.12400   0.75109   0.00000  Uiso   1.00
C950   C     0.64465   0.20675   0.74386   0.00000  Uiso   1.00
C951   C     0.64553   0.12381   0.74800   0.00000  Uiso   1.00
C952   C     0.35398   0.20699   0.74811   0.00000  Uiso   1.00
C953   C     0.48771   0.20678   0.54684   0.00000  Uiso   1.00
C954   C     0.48481   0.12698   0.95069   0.00000  Uiso   1.00
C955   C     0.50034   0.20825   0.95208   0.00000  Uiso   1.00
C956   C     0.51322   0.12834   0.54854   0.00000  Uiso   1.00
C957   C     0.49174   0.20746   0.59271   0.00000  Uiso   1.00
C958   C     0.48390   0.12722   0.90460   0.00000  Uiso   1.00
C959   C     0.49778   0.20856   0.90624   0.00000  Uiso   1.00
C960   C     0.51554   0.12859   0.59476   0.00000  Uiso   1.00
C961   C     0.50294   0.16751   0.61706   0.00000  Uiso   1.00
C962   C     0.49322   0.16739   0.88232   0.00000  Uiso   1.00
C963   C     0.49814   0.16715   0.52403   0.00000  Uiso   1.00
C964   C     0.49467   0.16726   0.97506   0.00000  Uiso   1.00
C965   C     0.62351   0.16550   0.74637   0.00000  Uiso   1.00
C966   C     0.37615   0.16584   0.75055   0.00000  Uiso   1.00
Cu967  Cu    0.50000   0.21355   0.75000   0.00000  Uiso   1.00
Cu968  Cu    0.50000   0.11978   0.75000   0.00000  Uiso   1.00
H969   H     0.47598   0.23749   0.52954   0.00000  Uiso   1.00
H970   H     0.47779   0.09536   0.96710   0.00000  Uiso   1.00
H971   H     0.50742   0.24032   0.96920   0.00000  Uiso   1.00
H972   H     0.52338   0.09792   0.53214   0.00000  Uiso   1.00
H973   H     0.48577   0.23951   0.60856   0.00000  Uiso   1.00
H974   H     0.47558   0.09619   0.88637   0.00000  Uiso   1.00
H975   H     0.49934   0.24130   0.89003   0.00000  Uiso   1.00
H976   H     0.52739   0.09853   0.61306   0.00000  Uiso   1.00
H977   H     0.37122   0.09141   0.75422   0.00000  Uiso   1.00
H978   H     0.62817   0.23872   0.73837   0.00000  Uiso   1.00
H979   H     0.63005   0.09106   0.74648   0.00000  Uiso   1.00
H980   H     0.36971   0.23926   0.74960   0.00000  Uiso   1.00
N981   N     0.50000   0.28402   0.75000   0.00000  Uiso   1.00
N982   N     0.50000   0.04931   0.75000   0.00000  Uiso   1.00
O983   O     0.43988   0.20625   0.74999   0.00000  Uiso   1.00
O984   O     0.56012   0.12709   0.75000   0.00000  Uiso   1.00
O985   O     0.56012   0.20625   0.75000   0.00000  Uiso   1.00
O986   O     0.43988   0.12709   0.74999   0.00000  Uiso   1.00
O987   O     0.50000   0.20626   0.68573   0.00000  Uiso   1.00
O988   O     0.50000   0.12707   0.81427   0.00000  Uiso   1.00
O989   O     0.50000   0.20626   0.81427   0.00000  Uiso   1.00
O990   O     0.50000   0.12707   0.68573   0.00000  Uiso   1.00
C991   C     0.45976   0.04400   0.67452   0.00000  Uiso   1.00
C992   C     0.42254   0.06901   0.66877   0.00000  Uiso   1.00
C993   C     0.40478   0.08149   0.62638   0.00000  Uiso   1.00
C994   C     0.42301   0.06723   0.58907   0.00000  Uiso   1.00
C995   C     0.45889   0.04033   0.59417   0.00000  Uiso   1.00
C996   C     0.47737   0.02908   0.63663   0.00000  Uiso   1.00
H997   H     0.40595   0.07664   0.69650   0.00000  Uiso   1.00
H998   H     0.37620   0.10102   0.62243   0.00000  Uiso   1.00
H999   H     0.40899   0.07638   0.55621   0.00000  Uiso   1.00
H1000  H     0.47264   0.02853   0.56525   0.00000  Uiso   1.00
H1001  H     0.50497   0.00778   0.64000   0.00000  Uiso   1.00
C1002  C     0.56956   0.28988   0.79620   0.00000  Uiso   1.00
C1003  C     0.57327   0.26554   0.83626   0.00000  Uiso   1.00
C1004  C     0.61197   0.25523   0.85883   0.00000  Uiso   1.00
C1005  C     0.64766   0.27192   0.84305   0.00000  Uiso   1.00
C1006  C     0.64449   0.29904   0.80489   0.00000  Uiso   1.00
C1007  C     0.60578   0.30750   0.78128   0.00000  Uiso   1.00
H1008  H     0.54652   0.25764   0.85176   0.00000  Uiso   1.00
H1009  H     0.61413   0.23605   0.88959   0.00000  Uiso   1.00
H1010  H     0.34429   0.26494   0.86102   0.00000  Uiso   1.00
H1011  H     0.33870   0.31344   0.79366   0.00000  Uiso   1.00
H1012  H     0.60375   0.32928   0.75215   0.00000  Uiso   1.00
C1013  C     0.54173   0.04388   0.82467   0.00000  Uiso   1.00
C1014  C     0.57948   0.06719   0.82905   0.00000  Uiso   1.00
C1015  C     0.59852   0.07962   0.87083   0.00000  Uiso   1.00
C1016  C     0.58105   0.06672   0.90897   0.00000  Uiso   1.00
C1017  C     0.54473   0.04112   0.90526   0.00000  Uiso   1.00
C1018  C     0.52500   0.03003   0.86337   0.00000  Uiso   1.00
H1019  H     0.59543   0.07324   0.80065   0.00000  Uiso   1.00
H1020  H     0.62753   0.09791   0.87367   0.00000  Uiso   1.00
H1021  H     0.59607   0.07573   0.94137   0.00000  Uiso   1.00
H1022  H     0.53162   0.03018   0.93481   0.00000  Uiso   1.00
H1023  H     0.49710   0.00968   0.86106   0.00000  Uiso   1.00
C1024  C     0.42812   0.29356   0.70843   0.00000  Uiso   1.00
C1025  C     0.41995   0.26605   0.67065   0.00000  Uiso   1.00
C1026  C     0.37977   0.26124   0.64973   0.00000  Uiso   1.00
C1027  C     0.34726   0.28588   0.66500   0.00000  Uiso   1.00
C1028  C     0.35483   0.31446   0.70184   0.00000  Uiso   1.00
C1029  C     0.39467   0.31734   0.72414   0.00000  Uiso   1.00
H1030  H     0.44443   0.25031   0.65582   0.00000  Uiso   1.00
H1031  H     0.37415   0.23977   0.62058   0.00000  Uiso   1.00
H1032  H     0.64968   0.28318   0.64808   0.00000  Uiso   1.00
H1033  H     0.66328   0.00129   0.71297   0.00000  Uiso   1.00
H1034  H     0.40000   0.00715   0.75213   0.00000  Uiso   1.00
C1035  C     0.75422   0.16658   0.75053   0.00000  Uiso   1.00
C1036  C     0.91233   0.16638   0.74854   0.00000  Uiso   1.00
C1037  C     0.83455   0.16678   0.66525   0.00000  Uiso   1.00
C1038  C     0.83107   0.16677   0.83457   0.00000  Uiso   1.00
C1039  C     0.80977   0.02445   0.71814   0.00000  Uiso   1.00
C1040  C     0.86253   0.30906   0.77640   0.00000  Uiso   1.00
C1041  C     0.85737   0.02411   0.78167   0.00000  Uiso   1.00
C1042  C     0.80394   0.30977   0.72403   0.00000  Uiso   1.00
C1043  C     0.68832   0.12400   0.75109   0.00000  Uiso   1.00
C1044  C     0.97798   0.20675   0.74386   0.00000  Uiso   1.00
C1045  C     0.97886   0.12381   0.74800   0.00000  Uiso   1.00
C1046  C     0.68732   0.20699   0.74811   0.00000  Uiso   1.00
C1047  C     0.82104   0.20678   0.54684   0.00000  Uiso   1.00
C1048  C     0.81814   0.12698   0.95069   0.00000  Uiso   1.00
C1049  C     0.83368   0.20825   0.95208   0.00000  Uiso   1.00
C1050  C     0.84655   0.12834   0.54854   0.00000  Uiso   1.00
C1051  C     0.82507   0.20746   0.59271   0.00000  Uiso   1.00
C1052  C     0.81723   0.12722   0.90460   0.00000  Uiso   1.00
C1053  C     0.83111   0.20856   0.90624   0.00000  Uiso   1.00
C1054  C     0.84887   0.12859   0.59476   0.00000  Uiso   1.00
C1055  C     0.83628   0.16751   0.61706   0.00000  Uiso   1.00
C1056  C     0.82656   0.16739   0.88232   0.00000  Uiso   1.00
C1057  C     0.83147   0.16715   0.52403   0.00000  Uiso   1.00
C1058  C     0.82800   0.16726   0.97506   0.00000  Uiso   1.00
C1059  C     0.95684   0.16550   0.74637   0.00000  Uiso   1.00
C1060  C     0.70949   0.16584   0.75055   0.00000  Uiso   1.00
Cu1061 Cu    0.83333   0.21355   0.75000   0.00000  Uiso   1.00
Cu1062 Cu    0.83333   0.11978   0.75000   0.00000  Uiso   1.00
H1063  H     0.80931   0.23749   0.52954   0.00000  Uiso   1.00
H1064  H     0.81112   0.09536   0.96710   0.00000  Uiso   1.00
H1065  H     0.84075   0.24032   0.96920   0.00000  Uiso   1.00
H1066  H     0.85671   0.09792   0.53214   0.00000  Uiso   1.00
H1067  H     0.81911   0.23951   0.60856   0.00000  Uiso   1.00
H1068  H     0.80891   0.09619   0.88637   0.00000  Uiso   1.00
H1069  H     0.83267   0.24130   0.89003   0.00000  Uiso   1.00
H1070  H     0.86073   0.09853   0.61306   0.00000  Uiso   1.00
H1071  H     0.70455   0.09141   0.75422   0.00000  Uiso   1.00
H1072  H     0.96151   0.23872   0.73837   0.00000  Uiso   1.00
H1073  H     0.96339   0.09106   0.74648   0.00000  Uiso   1.00
H1074  H     0.70304   0.23926   0.74960   0.00000  Uiso   1.00
N1075  N     0.83333   0.28402   0.75000   0.00000  Uiso   1.00
N1076  N     0.83333   0.04931   0.75000   0.00000  Uiso   1.00
O1077  O     0.77321   0.20625   0.74999   0.00000  Uiso   1.00
O1078  O     0.89345   0.12709   0.75000   0.00000  Uiso   1.00
O1079  O     0.89345   0.20625   0.75000   0.00000  Uiso   1.00
O1080  O     0.77321   0.12709   0.74999   0.00000  Uiso   1.00
O1081  O     0.83333   0.20626   0.68573   0.00000  Uiso   1.00
O1082  O     0.83334   0.12707   0.81427   0.00000  Uiso   1.00
O1083  O     0.83334   0.20626   0.81427   0.00000  Uiso   1.00
O1084  O     0.83333   0.12707   0.68573   0.00000  Uiso   1.00
C1085  C     0.79309   0.04400   0.67452   0.00000  Uiso   1.00
C1086  C     0.75587   0.06901   0.66877   0.00000  Uiso   1.00
C1087  C     0.73812   0.08149   0.62638   0.00000  Uiso   1.00
C1088  C     0.75634   0.06723   0.58907   0.00000  Uiso   1.00
C1089  C     0.79222   0.04033   0.59417   0.00000  Uiso   1.00
C1090  C     0.81070   0.02908   0.63663   0.00000  Uiso   1.00
H1091  H     0.73928   0.07664   0.69650   0.00000  Uiso   1.00
H1092  H     0.70953   0.10102   0.62243   0.00000  Uiso   1.00
H1093  H     0.74232   0.07638   0.55621   0.00000  Uiso   1.00
H1094  H     0.80597   0.02853   0.56525   0.00000  Uiso   1.00
H1095  H     0.83830   0.00778   0.64000   0.00000  Uiso   1.00
C1096  C     0.90289   0.28988   0.79620   0.00000  Uiso   1.00
C1097  C     0.90661   0.26554   0.83626   0.00000  Uiso   1.00
C1098  C     0.94530   0.25523   0.85883   0.00000  Uiso   1.00
C1099  C     0.98100   0.27192   0.84305   0.00000  Uiso   1.00
C1100  C     0.97783   0.29904   0.80489   0.00000  Uiso   1.00
C1101  C     0.93911   0.30750   0.78128   0.00000  Uiso   1.00
H1102  H     0.87985   0.25764   0.85176   0.00000  Uiso   1.00
H1103  H     0.94746   0.23605   0.88959   0.00000  Uiso   1.00
H1104  H     0.67763   0.26494   0.86102   0.00000  Uiso   1.00
H1105  H     0.67203   0.31344   0.79366   0.00000  Uiso   1.00
H1106  H     0.93708   0.32928   0.75215   0.00000  Uiso   1.00
C1107  C     0.87507   0.04388   0.82467   0.00000  Uiso   1.00
C1108  C     0.91281   0.06719   0.82905   0.00000  Uiso   1.00
C1109  C     0.93185   0.07962   0.87083   0.00000  Uiso   1.00
C1110  C     0.91438   0.06672   0.90897   0.00000  Uiso   1.00
C1111  C     0.87806   0.04112   0.90526   0.00000  Uiso   1.00
C1112  C     0.85833   0.03003   0.86337   0.00000  Uiso   1.00
H1113  H     0.92876   0.07324   0.80065   0.00000  Uiso   1.00
H1114  H     0.96086   0.09791   0.87367   0.00000  Uiso   1.00
H1115  H     0.92940   0.07573   0.94137   0.00000  Uiso   1.00
H1116  H     0.86496   0.03018   0.93481   0.00000  Uiso   1.00
H1117  H     0.83043   0.00968   0.86106   0.00000  Uiso   1.00
C1118  C     0.76146   0.29356   0.70843   0.00000  Uiso   1.00
C1119  C     0.75328   0.26605   0.67065   0.00000  Uiso   1.00
C1120  C     0.71310   0.26124   0.64973   0.00000  Uiso   1.00
C1121  C     0.68059   0.28588   0.66500   0.00000  Uiso   1.00
C1122  C     0.68816   0.31446   0.70184   0.00000  Uiso   1.00
C1123  C     0.72800   0.31734   0.72414   0.00000  Uiso   1.00
H1124  H     0.77776   0.25031   0.65582   0.00000  Uiso   1.00
H1125  H     0.70749   0.23977   0.62058   0.00000  Uiso   1.00
H1126  H     0.98301   0.28318   0.64808   0.00000  Uiso   1.00
H1127  H     0.99662   0.00129   0.71297   0.00000  Uiso   1.00
H1128  H     0.73334   0.00715   0.75213   0.00000  Uiso   1.00
C1129  C     0.08755   0.49991   0.75053   0.00000  Uiso   1.00
C1130  C     0.24567   0.49971   0.74854   0.00000  Uiso   1.00
C1131  C     0.16789   0.50011   0.66525   0.00000  Uiso   1.00
C1132  C     0.16441   0.50010   0.83457   0.00000  Uiso   1.00
C1133  C     0.14310   0.35778   0.71814   0.00000  Uiso   1.00
C1134  C     0.19586   0.64239   0.77640   0.00000  Uiso   1.00
C1135  C     0.19071   0.35744   0.78167   0.00000  Uiso   1.00
C1136  C     0.13727   0.64310   0.72403   0.00000  Uiso   1.00
C1137  C     0.02166   0.45733   0.75109   0.00000  Uiso   1.00
C1138  C     0.31131   0.54008   0.74386   0.00000  Uiso   1.00
C1139  C     0.31220   0.45715   0.74800   0.00000  Uiso   1.00
C1140  C     0.02065   0.54033   0.74811   0.00000  Uiso   1.00
C1141  C     0.15438   0.54012   0.54684   0.00000  Uiso   1.00
C1142  C     0.15147   0.46031   0.95069   0.00000  Uiso   1.00
C1143  C     0.16701   0.54159   0.95208   0.00000  Uiso   1.00
C1144  C     0.17988   0.46168   0.54854   0.00000  Uiso   1.00
C1145  C     0.15840   0.54079   0.59271   0.00000  Uiso   1.00
C1146  C     0.15057   0.46055   0.90460   0.00000  Uiso   1.00
C1147  C     0.16445   0.54189   0.90624   0.00000  Uiso   1.00
C1148  C     0.18220   0.46192   0.59476   0.00000  Uiso   1.00
C1149  C     0.16961   0.50085   0.61706   0.00000  Uiso   1.00
C1150  C     0.15989   0.50072   0.88232   0.00000  Uiso   1.00
C1151  C     0.16480   0.50048   0.52403   0.00000  Uiso   1.00
C1152  C     0.16133   0.50059   0.97506   0.00000  Uiso   1.00
C1153  C     0.29017   0.49884   0.74637   0.00000  Uiso   1.00
C1154  C     0.04282   0.49917   0.75055   0.00000  Uiso   1.00
Cu1155 Cu    0.16667   0.54689   0.75000   0.00000  Uiso   1.00
Cu1156 Cu    0.16667   0.45311   0.75000   0.00000  Uiso   1.00
H1157  H     0.14265   0.57083   0.52954   0.00000  Uiso   1.00
H1158  H     0.14445   0.42870   0.96710   0.00000  Uiso   1.00
H1159  H     0.17409   0.57365   0.96920   0.00000  Uiso   1.00
H1160  H     0.19005   0.43125   0.53214   0.00000  Uiso   1.00
H1161  H     0.15244   0.57285   0.60856   0.00000  Uiso   1.00
H1162  H     0.14225   0.42952   0.88637   0.00000  Uiso   1.00
H1163  H     0.16600   0.57463   0.89003   0.00000  Uiso   1.00
H1164  H     0.19406   0.43186   0.61306   0.00000  Uiso   1.00
H1165  H     0.03788   0.42474   0.75422   0.00000  Uiso   1.00
H1166  H     0.29484   0.57206   0.73837   0.00000  Uiso   1.00
H1167  H     0.29672   0.42439   0.74648   0.00000  Uiso   1.00
H1168  H     0.03637   0.57259   0.74960   0.00000  Uiso   1.00
N1169  N     0.16667   0.61736   0.75000   0.00000  Uiso   1.00
N1170  N     0.16667   0.38264   0.75000   0.00000  Uiso   1.00
O1171  O     0.10655   0.53958   0.74999   0.00000  Uiso   1.00
O1172  O     0.22679   0.46042   0.75000   0.00000  Uiso   1.00
O1173  O     0.22679   0.53958   0.75000   0.00000  Uiso   1.00
O1174  O     0.10655   0.46042   0.74999   0.00000  Uiso   1.00
O1175  O     0.16666   0.53959   0.68573   0.00000  Uiso   1.00
O1176  O     0.16667   0.46041   0.81427   0.00000  Uiso   1.00
O1177  O     0.16667   0.53959   0.81427   0.00000  Uiso   1.00
O1178  O     0.16666   0.46041   0.68573   0.00000  Uiso   1.00
C1179  C     0.12643   0.37734   0.67452   0.00000  Uiso   1.00
C1180  C     0.08920   0.40234   0.66877   0.00000  Uiso   1.00
C1181  C     0.07145   0.41482   0.62638   0.00000  Uiso   1.00
C1182  C     0.08968   0.40057   0.58907   0.00000  Uiso   1.00
C1183  C     0.12556   0.37366   0.59417   0.00000  Uiso   1.00
C1184  C     0.14403   0.36241   0.63663   0.00000  Uiso   1.00
H1185  H     0.07262   0.40998   0.69650   0.00000  Uiso   1.00
H1186  H     0.04287   0.43435   0.62243   0.00000  Uiso   1.00
H1187  H     0.07566   0.40972   0.55621   0.00000  Uiso   1.00
H1188  H     0.13931   0.36186   0.56525   0.00000  Uiso   1.00
H1189  H     0.17163   0.34111   0.64000   0.00000  Uiso   1.00
C1190  C     0.23623   0.62321   0.79620   0.00000  Uiso   1.00
C1191  C     0.23994   0.59887   0.83626   0.00000  Uiso   1.00
C1192  C     0.27864   0.58856   0.85883   0.00000  Uiso   1.00
C1193  C     0.31433   0.60526   0.84305   0.00000  Uiso   1.00
C1194  C     0.31116   0.63237   0.80489   0.00000  Uiso   1.00
C1195  C     0.27245   0.64083   0.78128   0.00000  Uiso   1.00
H1196  H     0.21319   0.59097   0.85176   0.00000  Uiso   1.00
H1197  H     0.28079   0.56938   0.88959   0.00000  Uiso   1.00
H1198  H     0.01096   0.59827   0.86102   0.00000  Uiso   1.00
H1199  H     0.00536   0.64677   0.79366   0.00000  Uiso   1.00
H1200  H     0.27041   0.66262   0.75215   0.00000  Uiso   1.00
C1201  C     0.20840   0.37721   0.82467   0.00000  Uiso   1.00
C1202  C     0.24615   0.40053   0.82905   0.00000  Uiso   1.00
C1203  C     0.26519   0.41295   0.87083   0.00000  Uiso   1.00
C1204  C     0.24771   0.40006   0.90897   0.00000  Uiso   1.00
C1205  C     0.21140   0.37445   0.90526   0.00000  Uiso   1.00
C1206  C     0.19167   0.36337   0.86337   0.00000  Uiso   1.00
H1207  H     0.26209   0.40657   0.80065   0.00000  Uiso   1.00
H1208  H     0.29419   0.43125   0.87367   0.00000  Uiso   1.00
H1209  H     0.26273   0.40907   0.94137   0.00000  Uiso   1.00
H1210  H     0.19829   0.36352   0.93481   0.00000  Uiso   1.00
H1211  H     0.16377   0.34301   0.86106   0.00000  Uiso   1.00
C1212  C     0.09479   0.62689   0.70843   0.00000  Uiso   1.00
C1213  C     0.08661   0.59938   0.67065   0.00000  Uiso   1.00
C1214  C     0.04644   0.59457   0.64973   0.00000  Uiso   1.00
C1215  C     0.01393   0.61921   0.66500   0.00000  Uiso   1.00
C1216  C     0.02150   0.64780   0.70184   0.00000  Uiso   1.00
C1217  C     0.06134   0.65067   0.72414   0.00000  Uiso   1.00
H1218  H     0.11110   0.58365   0.65582   0.00000  Uiso   1.00
H1219  H     0.04082   0.57311   0.62058   0.00000  Uiso   1.00
H1220  H     0.31634   0.61651   0.64808   0.00000  Uiso   1.00
H1221  H     0.32995   0.33462   0.71297   0.00000  Uiso   1.00
H1222  H     0.06667   0.34048   0.75213   0.00000  Uiso   1.00
C1223  C     0.42089   0.49991   0.75053   0.00000  Uiso   1.00
C1224  C     0.57900   0.49971   0.74854   0.00000  Uiso   1.00
C1225  C     0.50122   0.50011   0.66525   0.00000  Uiso   1.00
C1226  C     0.49774   0.50010   0.83457   0.00000  Uiso   1.00
C1227  C     0.47643   0.35778   0.71814   0.00000  Uiso   1.00
C1228  C     0.52919   0.64239   0.77640   0.00000  Uiso   1.00
C1229  C     0.52404   0.35744   0.78167   0.00000  Uiso   1.00
C1230  C     0.47060   0.64310   0.72403   0.00000  Uiso   1.00
C1231  C     0.35499   0.45733   0.75109   0.00000  Uiso   1.00
C1232  C     0.64465   0.54008   0.74386   0.00000  Uiso   1.00
C1233  C     0.64553   0.45715   0.74800   0.00000  Uiso   1.00
C1234  C     0.35398   0.54033   0.74811   0.00000  Uiso   1.00
C1235  C     0.48771   0.54012   0.54684   0.00000  Uiso   1.00
C1236  C     0.48481   0.46031   0.95069   0.00000  Uiso   1.00
C1237  C     0.50034   0.54159   0.95208   0.00000  Uiso   1.00
C1238  C     0.51322   0.46168   0.54854   0.00000  Uiso   1.00
C1239  C     0.49174   0.54079   0.59271   0.00000  Uiso   1.00
C1240  C     0.48390   0.46055   0.90460   0.00000  Uiso   1.00
C1241  C     0.49778   0.54189   0.90624   0.00000  Uiso   1.00
C1242  C     0.51554   0.46192   0.59476   0.00000  Uiso   1.00
C1243  C     0.50294   0.50085   0.61706   0.00000  Uiso   1.00
C1244  C     0.49322   0.50072   0.88232   0.00000  Uiso   1.00
C1245  C     0.49814   0.50048   0.52403   0.00000  Uiso   1.00
C1246  C     0.49467   0.50059   0.97506   0.00000  Uiso   1.00
C1247  C     0.62351   0.49884   0.74637   0.00000  Uiso   1.00
C1248  C     0.37615   0.49917   0.75055   0.00000  Uiso   1.00
Cu1249 Cu    0.50000   0.54689   0.75000   0.00000  Uiso   1.00
Cu1250 Cu    0.50000   0.45311   0.75000   0.00000  Uiso   1.00
H1251  H     0.47598   0.57083   0.52954   0.00000  Uiso   1.00
H1252  H     0.47779   0.42870   0.96710   0.00000  Uiso   1.00
H1253  H     0.50742   0.57365   0.96920   0.00000  Uiso   1.00
H1254  H     0.52338   0.43125   0.53214   0.00000  Uiso   1.00
H1255  H     0.48577   0.57285   0.60856   0.00000  Uiso   1.00
H1256  H     0.47558   0.42952   0.88637   0.00000  Uiso   1.00
H1257  H     0.49934   0.57463   0.89003   0.00000  Uiso   1.00
H1258  H     0.52739   0.43186   0.61306   0.00000  Uiso   1.00
H1259  H     0.37122   0.42474   0.75422   0.00000  Uiso   1.00
H1260  H     0.62817   0.57206   0.73837   0.00000  Uiso   1.00
H1261  H     0.63005   0.42439   0.74648   0.00000  Uiso   1.00
H1262  H     0.36971   0.57259   0.74960   0.00000  Uiso   1.00
N1263  N     0.50000   0.61736   0.75000   0.00000  Uiso   1.00
N1264  N     0.50000   0.38264   0.75000   0.00000  Uiso   1.00
O1265  O     0.43988   0.53958   0.74999   0.00000  Uiso   1.00
O1266  O     0.56012   0.46042   0.75000   0.00000  Uiso   1.00
O1267  O     0.56012   0.53958   0.75000   0.00000  Uiso   1.00
O1268  O     0.43988   0.46042   0.74999   0.00000  Uiso   1.00
O1269  O     0.50000   0.53959   0.68573   0.00000  Uiso   1.00
O1270  O     0.50000   0.46041   0.81427   0.00000  Uiso   1.00
O1271  O     0.50000   0.53959   0.81427   0.00000  Uiso   1.00
O1272  O     0.50000   0.46041   0.68573   0.00000  Uiso   1.00
C1273  C     0.45976   0.37734   0.67452   0.00000  Uiso   1.00
C1274  C     0.42254   0.40234   0.66877   0.00000  Uiso   1.00
C1275  C     0.40478   0.41482   0.62638   0.00000  Uiso   1.00
C1276  C     0.42301   0.40057   0.58907   0.00000  Uiso   1.00
C1277  C     0.45889   0.37366   0.59417   0.00000  Uiso   1.00
C1278  C     0.47737   0.36241   0.63663   0.00000  Uiso   1.00
H1279  H     0.40595   0.40998   0.69650   0.00000  Uiso   1.00
H1280  H     0.37620   0.43435   0.62243   0.00000  Uiso   1.00
H1281  H     0.40899   0.40972   0.55621   0.00000  Uiso   1.00
H1282  H     0.47264   0.36186   0.56525   0.00000  Uiso   1.00
H1283  H     0.50497   0.34111   0.64000   0.00000  Uiso   1.00
C1284  C     0.56956   0.62321   0.79620   0.00000  Uiso   1.00
C1285  C     0.57327   0.59887   0.83626   0.00000  Uiso   1.00
C1286  C     0.61197   0.58856   0.85883   0.00000  Uiso   1.00
C1287  C     0.64766   0.60526   0.84305   0.00000  Uiso   1.00
C1288  C     0.64449   0.63237   0.80489   0.00000  Uiso   1.00
C1289  C     0.60578   0.64083   0.78128   0.00000  Uiso   1.00
H1290  H     0.54652   0.59097   0.85176   0.00000  Uiso   1.00
H1291  H     0.61413   0.56938   0.88959   0.00000  Uiso   1.00
H1292  H     0.34429   0.59827   0.86102   0.00000  Uiso   1.00
H1293  H     0.33870   0.64677   0.79366   0.00000  Uiso   1.00
H1294  H     0.60375   0.66262   0.75215   0.00000  Uiso   1.00
C1295  C     0.54173   0.37721   0.82467   0.00000  Uiso   1.00
C1296  C     0.57948   0.40053   0.82905   0.00000  Uiso   1.00
C1297  C     0.59852   0.41295   0.87083   0.00000  Uiso   1.00
C1298  C     0.58105   0.40006   0.90897   0.00000  Uiso   1.00
C1299  C     0.54473   0.37445   0.90526   0.00000  Uiso   1.00
C1300  C     0.52500   0.36337   0.86337   0.00000  Uiso   1.00
H1301  H     0.59543   0.40657   0.80065   0.00000  Uiso   1.00
H1302  H     0.62753   0.43125   0.87367   0.00000  Uiso   1.00
H1303  H     0.59607   0.40907   0.94137   0.00000  Uiso   1.00
H1304  H     0.53162   0.36352   0.93481   0.00000  Uiso   1.00
H1305  H     0.49710   0.34301   0.86106   0.00000  Uiso   1.00
C1306  C     0.42812   0.62689   0.70843   0.00000  Uiso   1.00
C1307  C     0.41995   0.59938   0.67065   0.00000  Uiso   1.00
C1308  C     0.37977   0.59457   0.64973   0.00000  Uiso   1.00
C1309  C     0.34726   0.61921   0.66500   0.00000  Uiso   1.00
C1310  C     0.35483   0.64780   0.70184   0.00000  Uiso   1.00
C1311  C     0.39467   0.65067   0.72414   0.00000  Uiso   1.00
H1312  H     0.44443   0.58365   0.65582   0.00000  Uiso   1.00
H1313  H     0.37415   0.57311   0.62058   0.00000  Uiso   1.00
H1314  H     0.64968   0.61651   0.64808   0.00000  Uiso   1.00
H1315  H     0.66328   0.33462   0.71297   0.00000  Uiso   1.00
H1316  H     0.40000   0.34048   0.75213   0.00000  Uiso   1.00
C1317  C     0.75422   0.49991   0.75053   0.00000  Uiso   1.00
C1318  C     0.91233   0.49971   0.74854   0.00000  Uiso   1.00
C1319  C     0.83455   0.50011   0.66525   0.00000  Uiso   1.00
C1320  C     0.83107   0.50010   0.83457   0.00000  Uiso   1.00
C1321  C     0.80977   0.35778   0.71814   0.00000  Uiso   1.00
C1322  C     0.86253   0.64239   0.77640   0.00000  Uiso   1.00
C1323  C     0.85737   0.35744   0.78167   0.00000  Uiso   1.00
C1324  C     0.80394   0.64310   0.72403   0.00000  Uiso   1.00
C1325  C     0.68832   0.45733   0.75109   0.00000  Uiso   1.00
C1326  C     0.97798   0.54008   0.74386   0.00000  Uiso   1.00
C1327  C     0.97886   0.45715   0.74800   0.00000  Uiso   1.00
C1328  C     0.68732   0.54033   0.74811   0.00000  Uiso   1.00
C1329  C     0.82104   0.54012   0.54684   0.00000  Uiso   1.00
C1330  C     0.81814   0.46031   0.95069   0.00000  Uiso   1.00
C1331  C     0.83368   0.54159   0.95208   0.00000  Uiso   1.00
C1332  C     0.84655   0.46168   0.54854   0.00000  Uiso   1.00
C1333  C     0.82507   0.54079   0.59271   0.00000  Uiso   1.00
C1334  C     0.81723   0.46055   0.90460   0.00000  Uiso   1.00
C1335  C     0.83111   0.54189   0.90624   0.00000  Uiso   1.00
C1336  C     0.84887   0.46192   0.59476   0.00000  Uiso   1.00
C1337  C     0.83628   0.50085   0.61706   0.00000  Uiso   1.00
C1338  C     0.82656   0.50072   0.88232   0.00000  Uiso   1.00
C1339  C     0.83147   0.50048   0.52403   0.00000  Uiso   1.00
C1340  C     0.82800   0.50059   0.97506   0.00000  Uiso   1.00
C1341  C     0.95684   0.49884   0.74637   0.00000  Uiso   1.00
C1342  C     0.70949   0.49917   0.75055   0.00000  Uiso   1.00
Cu1343 Cu    0.83333   0.54689   0.75000   0.00000  Uiso   1.00
Cu1344 Cu    0.83333   0.45311   0.75000   0.00000  Uiso   1.00
H1345  H     0.80931   0.57083   0.52954   0.00000  Uiso   1.00
H1346  H     0.81112   0.42870   0.96710   0.00000  Uiso   1.00
H1347  H     0.84075   0.57365   0.96920   0.00000  Uiso   1.00
H1348  H     0.85671   0.43125   0.53214   0.00000  Uiso   1.00
H1349  H     0.81911   0.57285   0.60856   0.00000  Uiso   1.00
H1350  H     0.80891   0.42952   0.88637   0.00000  Uiso   1.00
H1351  H     0.83267   0.57463   0.89003   0.00000  Uiso   1.00
H1352  H     0.86073   0.43186   0.61306   0.00000  Uiso   1.00
H1353  H     0.70455   0.42474   0.75422   0.00000  Uiso   1.00
H1354  H     0.96151   0.57206   0.73837   0.00000  Uiso   1.00
H1355  H     0.96339   0.42439   0.74648   0.00000  Uiso   1.00
H1356  H     0.70304   0.57259   0.74960   0.00000  Uiso   1.00
N1357  N     0.83333   0.61736   0.75000   0.00000  Uiso   1.00
N1358  N     0.83333   0.38264   0.75000   0.00000  Uiso   1.00
O1359  O     0.77321   0.53958   0.74999   0.00000  Uiso   1.00
O1360  O     0.89345   0.46042   0.75000   0.00000  Uiso   1.00
O1361  O     0.89345   0.53958   0.75000   0.00000  Uiso   1.00
O1362  O     0.77321   0.46042   0.74999   0.00000  Uiso   1.00
O1363  O     0.83333   0.53959   0.68573   0.00000  Uiso   1.00
O1364  O     0.83334   0.46041   0.81427   0.00000  Uiso   1.00
O1365  O     0.83334   0.53959   0.81427   0.00000  Uiso   1.00
O1366  O     0.83333   0.46041   0.68573   0.00000  Uiso   1.00
C1367  C     0.79309   0.37734   0.67452   0.00000  Uiso   1.00
C1368  C     0.75587   0.40234   0.66877   0.00000  Uiso   1.00
C1369  C     0.73812   0.41482   0.62638   0.00000  Uiso   1.00
C1370  C     0.75634   0.40057   0.58907   0.00000  Uiso   1.00
C1371  C     0.79222   0.37366   0.59417   0.00000  Uiso   1.00
C1372  C     0.81070   0.36241   0.63663   0.00000  Uiso   1.00
H1373  H     0.73928   0.40998   0.69650   0.00000  Uiso   1.00
H1374  H     0.70953   0.43435   0.62243   0.00000  Uiso   1.00
H1375  H     0.74232   0.40972   0.55621   0.00000  Uiso   1.00
H1376  H     0.80597   0.36186   0.56525   0.00000  Uiso   1.00
H1377  H     0.83830   0.34111   0.64000   0.00000  Uiso   1.00
C1378  C     0.90289   0.62321   0.79620   0.00000  Uiso   1.00
C1379  C     0.90661   0.59887   0.83626   0.00000  Uiso   1.00
C1380  C     0.94530   0.58856   0.85883   0.00000  Uiso   1.00
C1381  C     0.98100   0.60526   0.84305   0.00000  Uiso   1.00
C1382  C     0.97783   0.63237   0.80489   0.00000  Uiso   1.00
C1383  C     0.93911   0.64083   0.78128   0.00000  Uiso   1.00
H1384  H     0.87985   0.59097   0.85176   0.00000  Uiso   1.00
H1385  H     0.94746   0.56938   0.88959   0.00000  Uiso   1.00
H1386  H     0.67763   0.59827   0.86102   0.00000  Uiso   1.00
H1387  H     0.67203   0.64677   0.79366   0.00000  Uiso   1.00
H1388  H     0.93708   0.66262   0.75215   0.00000  Uiso   1.00
C1389  C     0.87507   0.37721   0.82467   0.00000  Uiso   1.00
C1390  C     0.91281   0.40053   0.82905   0.00000  Uiso   1.00
C1391  C     0.93185   0.41295   0.87083   0.00000  Uiso   1.00
C1392  C     0.91438   0.40006   0.90897   0.00000  Uiso   1.00
C1393  C     0.87806   0.37445   0.90526   0.00000  Uiso   1.00
C1394  C     0.85833   0.36337   0.86337   0.00000  Uiso   1.00
H1395  H     0.92876   0.40657   0.80065   0.00000  Uiso   1.00
H1396  H     0.96086   0.43125   0.87367   0.00000  Uiso   1.00
H1397  H     0.92940   0.40907   0.94137   0.00000  Uiso   1.00
H1398  H     0.86496   0.36352   0.93481   0.00000  Uiso   1.00
H1399  H     0.83043   0.34301   0.86106   0.00000  Uiso   1.00
C1400  C     0.76146   0.62689   0.70843   0.00000  Uiso   1.00
C1401  C     0.75328   0.59938   0.67065   0.00000  Uiso   1.00
C1402  C     0.71310   0.59457   0.64973   0.00000  Uiso   1.00
C1403  C     0.68059   0.61921   0.66500   0.00000  Uiso   1.00
C1404  C     0.68816   0.64780   0.70184   0.00000  Uiso   1.00
C1405  C     0.72800   0.65067   0.72414   0.00000  Uiso   1.00
H1406  H     0.77776   0.58365   0.65582   0.00000  Uiso   1.00
H1407  H     0.70749   0.57311   0.62058   0.00000  Uiso   1.00
H1408  H     0.98301   0.61651   0.64808   0.00000  Uiso   1.00
H1409  H     0.99662   0.33462   0.71297   0.00000  Uiso   1.00
H1410  H     0.73334   0.34048   0.75213   0.00000  Uiso   1.00
C1411  C     0.08755   0.83324   0.75053   0.00000  Uiso   1.00
C1412  C     0.24567   0.83304   0.74854   0.00000  Uiso   1.00
C1413  C     0.16789   0.83345   0.66525   0.00000  Uiso   1.00
C1414  C     0.16441   0.83343   0.83457   0.00000  Uiso   1.00
C1415  C     0.14310   0.69111   0.71814   0.00000  Uiso   1.00
C1416  C     0.19586   0.97573   0.77640   0.00000  Uiso   1.00
C1417  C     0.19071   0.69077   0.78167   0.00000  Uiso   1.00
C1418  C     0.13727   0.97643   0.72403   0.00000  Uiso   1.00
C1419  C     0.02166   0.79066   0.75109   0.00000  Uiso   1.00
C1420  C     0.31131   0.87341   0.74386   0.00000  Uiso   1.00
C1421  C     0.31220   0.79048   0.74800   0.00000  Uiso   1.00
C1422  C     0.02065   0.87366   0.74811   0.00000  Uiso   1.00
C1423  C     0.15438   0.87345   0.54684   0.00000  Uiso   1.00
C1424  C     0.15147   0.79364   0.95069   0.00000  Uiso   1.00
C1425  C     0.16701   0.87492   0.95208   0.00000  Uiso   1.00
C1426  C     0.17988   0.79501   0.54854   0.00000  Uiso   1.00
C1427  C     0.15840   0.87413   0.59271   0.00000  Uiso   1.00
C1428  C     0.15057   0.79389   0.90460   0.00000  Uiso   1.00
C1429  C     0.16445   0.87522   0.90624   0.00000  Uiso   1.00
C1430  C     0.18220   0.79526   0.59476   0.00000  Uiso   1.00
C1431  C     0.16961   0.83418   0.61706   0.00000  Uiso   1.00
C1432  C     0.15989   0.83406   0.88232   0.00000  Uiso   1.00
C1433  C     0.16480   0.83382   0.52403   0.00000  Uiso   1.00
C1434  C     0.16133   0.83392   0.97506   0.00000  Uiso   1.00
C1435  C     0.29017   0.83217   0.74637   0.00000  Uiso   1.00
C1436  C     0.04282   0.83250   0.75055   0.00000  Uiso   1.00
Cu1437 Cu    0.16667   0.88022   0.75000   0.00000  Uiso   1.00
Cu1438 Cu    0.16667   0.78645   0.75000   0.00000  Uiso   1.00
H1439  H     0.14265   0.90416   0.52954   0.00000  Uiso   1.00
H1440  H     0.14445   0.76203   0.96710   0.00000  Uiso   1.00
H1441  H     0.17409   0.90698   0.96920   0.00000  Uiso   1.00
H1442  H     0.19005   0.76459   0.53214   0.00000  Uiso   1.00
H1443  H     0.15244   0.90618   0.60856   0.00000  Uiso   1.00
H1444  H     0.14225   0.76286   0.88637   0.00000  Uiso   1.00
H1445  H     0.16600   0.90796   0.89003   0.00000  Uiso   1.00
H1446  H     0.19406   0.76520   0.61306   0.00000  Uiso   1.00
H1447  H     0.03788   0.75808   0.75422   0.00000  Uiso   1.00
H1448  H     0.29484   0.90539   0.73837   0.00000  Uiso   1.00
H1449  H     0.29672   0.75773   0.74648   0.00000  Uiso   1.00
H1450  H     0.03637   0.90592   0.74960   0.00000  Uiso   1.00
N1451  N     0.16667   0.95069   0.75000   0.00000  Uiso   1.00
N1452  N     0.16667   0.71598   0.75000   0.00000  Uiso   1.00
O1453  O     0.10655   0.87291   0.74999   0.00000  Uiso   1.00
O1454  O     0.22679   0.79375   0.75000   0.00000  Uiso   1.00
O1455  O     0.22679   0.87291   0.75000   0.00000  Uiso   1.00
O1456  O     0.10655   0.79375   0.74999   0.00000  Uiso   1.00
O1457  O     0.16666   0.87293   0.68573   0.00000  Uiso   1.00
O1458  O     0.16667   0.79374   0.81427   0.00000  Uiso   1.00
O1459  O     0.16667   0.87293   0.81427   0.00000  Uiso   1.00
O1460  O     0.16666   0.79374   0.68573   0.00000  Uiso   1.00
C1461  C     0.12643   0.71067   0.67452   0.00000  Uiso   1.00
C1462  C     0.08920   0.73568   0.66877   0.00000  Uiso   1.00
C1463  C     0.07145   0.74815   0.62638   0.00000  Uiso   1.00
C1464  C     0.08968   0.73390   0.58907   0.00000  Uiso   1.00
C1465  C     0.12556   0.70700   0.59417   0.00000  Uiso   1.00
C1466  C     0.14403   0.69574   0.63663   0.00000  Uiso   1.00
H1467  H     0.07262   0.74331   0.69650   0.00000  Uiso   1.00
H1468  H     0.04287   0.76769   0.62243   0.00000  Uiso   1.00
H1469  H     0.07566   0.74305   0.55621   0.00000  Uiso   1.00
H1470  H     0.13931   0.69520   0.56525   0.00000  Uiso   1.00
H1471  H     0.17163   0.67444   0.64000   0.00000  Uiso   1.00
C1472  C     0.23623   0.95654   0.79620   0.00000  Uiso   1.00
C1473  C     0.23994   0.93220   0.83626   0.00000  Uiso   1.00
C1474  C     0.27864   0.92190   0.85883   0.00000  Uiso   1.00
C1475  C     0.31433   0.93859   0.84305   0.00000  Uiso   1.00
C1476  C     0.31116   0.96570   0.80489   0.00000  Uiso   1.00
C1477  C     0.27245   0.97417   0.78128   0.00000  Uiso   1.00
H1478  H     0.21319   0.92431   0.85176   0.00000  Uiso   1.00
H1479  H     0.28079   0.90272   0.88959   0.00000  Uiso   1.00
H1480  H     0.01096   0.93161   0.86102   0.00000  Uiso   1.00
H1481  H     0.00536   0.98010   0.79366   0.00000  Uiso   1.00
H1482  H     0.27041   0.99595   0.75215   0.00000  Uiso   1.00
C1483  C     0.20840   0.71055   0.82467   0.00000  Uiso   1.00
C1484  C     0.24615   0.73386   0.82905   0.00000  Uiso   1.00
C1485  C     0.26519   0.74628   0.87083   0.00000  Uiso   1.00
C1486  C     0.24771   0.73339   0.90897   0.00000  Uiso   1.00
C1487  C     0.21140   0.70779   0.90526   0.00000  Uiso   1.00
C1488  C     0.19167   0.69670   0.86337   0.00000  Uiso   1.00
H1489  H     0.26209   0.73991   0.80065   0.00000  Uiso   1.00
H1490  H     0.29419   0.76458   0.87367   0.00000  Uiso   1.00
H1491  H     0.26273   0.74240   0.94137   0.00000  Uiso   1.00
H1492  H     0.19829   0.69685   0.93481   0.00000  Uiso   1.00
H1493  H     0.16377   0.67634   0.86106   0.00000  Uiso   1.00
C1494  C     0.09479   0.96022   0.70843   0.00000  Uiso   1.00
C1495  C     0.08661   0.93271   0.67065   0.00000  Uiso   1.00
C1496  C     0.04644   0.92790   0.64973   0.00000  Uiso   1.00
C1497  C     0.01393   0.95254   0.66500   0.00000  Uiso   1.00
C1498  C     0.02150   0.98113   0.70184   0.00000  Uiso   1.00
C1499  C     0.06134   0.98400   0.72414   0.00000  Uiso   1.00
H1500  H     0.11110   0.91698   0.65582   0.00000  Uiso   1.00
H1501  H     0.04082   0.90644   0.62058   0.00000  Uiso   1.00
H1502  H     0.31634   0.94985   0.64808   0.00000  Uiso   1.00
H1503  H     0.32995   0.66795   0.71297   0.00000  Uiso   1.00
H1504  H     0.06667   0.67381   0.75213   0.00000  Uiso   1.00
C1505  C     0.42089   0.83324   0.75053   0.00000  Uiso   1.00
C1506  C     0.57900   0.83304   0.74854   0.00000  Uiso   1.00
C1507  C     0.50122   0.83345   0.66525   0.00000  Uiso   1.00
C1508  C     0.49774   0.83343   0.83457   0.00000  Uiso   1.00
C1509  C     0.47643   0.69111   0.71814   0.00000  Uiso   1.00
C1510  C     0.52919   0.97573   0.77640   0.00000  Uiso   1.00
C1511  C     0.52404   0.69077   0.78167   0.00000  Uiso   1.00
C1512  C     0.47060   0.97643   0.72403   0.00000  Uiso   1.00
C1513  C     0.35499   0.79066   0.75109   0.00000  Uiso   1.00
C1514  C     0.64465   0.87341   0.74386   0.00000  Uiso   1.00
C1515  C     0.64553   0.79048   0.74800   0.00000  Uiso   1.00
C1516  C     0.35398   0.87366   0.74811   0.00000  Uiso   1.00
C1517  C     0.48771   0.87345   0.54684   0.00000  Uiso   1.00
C1518  C     0.48481   0.79364   0.95069   0.00000  Uiso   1.00
C1519  C     0.50034   0.87492   0.95208   0.00000  Uiso   1.00
C1520  C     0.51322   0.79501   0.54854   0.00000  Uiso   1.00
C1521  C     0.49174   0.87413   0.59271   0.00000  Uiso   1.00
C1522  C     0.48390   0.79389   0.90460   0.00000  Uiso   1.00
C1523  C     0.49778   0.87522   0.90624   0.00000  Uiso   1.00
C1524  C     0.51554   0.79526   0.59476   0.00000  Uiso   1.00
C1525  C     0.50294   0.83418   0.61706   0.00000  Uiso   1.00
C1526  C     0.49322   0.83406   0.88232   0.00000  Uiso   1.00
C1527  C     0.49814   0.83382   0.52403   0.00000  Uiso   1.00
C1528  C     0.49467   0.83392   0.97506   0.00000  Uiso   1.00
C1529  C     0.62351   0.83217   0.74637   0.00000  Uiso   1.00
C1530  C     0.37615   0.83250   0.75055   0.00000  Uiso   1.00
Cu1531 Cu    0.50000   0.88022   0.75000   0.00000  Uiso   1.00
Cu1532 Cu    0.50000   0.78645   0.75000   0.00000  Uiso   1.00
H1533  H     0.47598   0.90416   0.52954   0.00000  Uiso   1.00
H1534  H     0.47779   0.76203   0.96710   0.00000  Uiso   1.00
H1535  H     0.50742   0.90698   0.96920   0.00000  Uiso   1.00
H1536  H     0.52338   0.76459   0.53214   0.00000  Uiso   1.00
H1537  H     0.48577   0.90618   0.60856   0.00000  Uiso   1.00
H1538  H     0.47558   0.76286   0.88637   0.00000  Uiso   1.00
H1539  H     0.49934   0.90796   0.89003   0.00000  Uiso   1.00
H1540  H     0.52739   0.76520   0.61306   0.00000  Uiso   1.00
H1541  H     0.37122   0.75808   0.75422   0.00000  Uiso   1.00
H1542  H     0.62817   0.90539   0.73837   0.00000  Uiso   1.00
H1543  H     0.63005   0.75773   0.74648   0.00000  Uiso   1.00
H1544  H     0.36971   0.90592   0.74960   0.00000  Uiso   1.00
N1545  N     0.50000   0.95069   0.75000   0.00000  Uiso   1.00
N1546  N     0.50000   0.71598   0.75000   0.00000  Uiso   1.00
O1547  O     0.43988   0.87291   0.74999   0.00000  Uiso   1.00
O1548  O     0.56012   0.79375   0.75000   0.00000  Uiso   1.00
O1549  O     0.56012   0.87291   0.75000   0.00000  Uiso   1.00
O1550  O     0.43988   0.79375   0.74999   0.00000  Uiso   1.00
O1551  O     0.50000   0.87293   0.68573   0.00000  Uiso   1.00
O1552  O     0.50000   0.79374   0.81427   0.00000  Uiso   1.00
O1553  O     0.50000   0.87293   0.81427   0.00000  Uiso   1.00
O1554  O     0.50000   0.79374   0.68573   0.00000  Uiso   1.00
C1555  C     0.45976   0.71067   0.67452   0.00000  Uiso   1.00
C1556  C     0.42254   0.73568   0.66877   0.00000  Uiso   1.00
C1557  C     0.40478   0.74815   0.62638   0.00000  Uiso   1.00
C1558  C     0.42301   0.73390   0.58907   0.00000  Uiso   1.00
C1559  C     0.45889   0.70700   0.59417   0.00000  Uiso   1.00
C1560  C     0.47737   0.69574   0.63663   0.00000  Uiso   1.00
H1561  H     0.40595   0.74331   0.69650   0.00000  Uiso   1.00
H1562  H     0.37620   0.76769   0.62243   0.00000  Uiso   1.00
H1563  H     0.40899   0.74305   0.55621   0.00000  Uiso   1.00
H1564  H     0.47264   0.69520   0.56525   0.00000  Uiso   1.00
H1565  H     0.50497   0.67444   0.64000   0.00000  Uiso   1.00
C1566  C     0.56956   0.95654   0.79620   0.00000  Uiso   1.00
C1567  C     0.57327   0.93220   0.83626   0.00000  Uiso   1.00
C1568  C     0.61197   0.92190   0.85883   0.00000  Uiso   1.00
C1569  C     0.64766   0.93859   0.84305   0.00000  Uiso   1.00
C1570  C     0.64449   0.96570   0.80489   0.00000  Uiso   1.00
C1571  C     0.60578   0.97417   0.78128   0.00000  Uiso   1.00
H1572  H     0.54652   0.92431   0.85176   0.00000  Uiso   1.00
H1573  H     0.61413   0.90272   0.88959   0.00000  Uiso   1.00
H1574  H     0.34429   0.93161   0.86102   0.00000  Uiso   1.00
H1575  H     0.33870   0.98010   0.79366   0.00000  Uiso   1.00
H1576  H     0.60375   0.99595   0.75215   0.00000  Uiso   1.00
C1577  C     0.54173   0.71055   0.82467   0.00000  Uiso   1.00
C1578  C     0.57948   0.73386   0.82905   0.00000  Uiso   1.00
C1579  C     0.59852   0.74628   0.87083   0.00000  Uiso   1.00
C1580  C     0.58105   0.73339   0.90897   0.00000  Uiso   1.00
C1581  C     0.54473   0.70779   0.90526   0.00000  Uiso   1.00
C1582  C     0.52500   0.69670   0.86337   0.00000  Uiso   1.00
H1583  H     0.59543   0.73991   0.80065   0.00000  Uiso   1.00
H1584  H     0.62753   0.76458   0.87367   0.00000  Uiso   1.00
H1585  H     0.59607   0.74240   0.94137   0.00000  Uiso   1.00
H1586  H     0.53162   0.69685   0.93481   0.00000  Uiso   1.00
H1587  H     0.49710   0.67634   0.86106   0.00000  Uiso   1.00
C1588  C     0.42812   0.96022   0.70843   0.00000  Uiso   1.00
C1589  C     0.41995   0.93271   0.67065   0.00000  Uiso   1.00
C1590  C     0.37977   0.92790   0.64973   0.00000  Uiso   1.00
C1591  C     0.34726   0.95254   0.66500   0.00000  Uiso   1.00
C1592  C     0.35483   0.98113   0.70184   0.00000  Uiso   1.00
C1593  C     0.39467   0.98400   0.72414   0.00000  Uiso   1.00
H1594  H     0.44443   0.91698   0.65582   0.00000  Uiso   1.00
H1595  H     0.37415   0.90644   0.62058   0.00000  Uiso   1.00
H1596  H     0.64968   0.94985   0.64808   0.00000  Uiso   1.00
H1597  H     0.66328   0.66795   0.71297   0.00000  Uiso   1.00
H1598  H     0.40000   0.67381   0.75213   0.00000  Uiso   1.00
C1599  C     0.75422   0.83324   0.75053   0.00000  Uiso   1.00
C1600  C     0.91233   0.83304   0.74854   0.00000  Uiso   1.00
C1601  C     0.83455   0.83345   0.66525   0.00000  Uiso   1.00
C1602  C     0.83107   0.83343   0.83457   0.00000  Uiso   1.00
C1603  C     0.80977   0.69111   0.71814   0.00000  Uiso   1.00
C1604  C     0.86253   0.97573   0.77640   0.00000  Uiso   1.00
C1605  C     0.85737   0.69077   0.78167   0.00000  Uiso   1.00
C1606  C     0.80394   0.97643   0.72403   0.00000  Uiso   1.00
C1607  C     0.68832   0.79066   0.75109   0.00000  Uiso   1.00
C1608  C     0.97798   0.87341   0.74386   0.00000  Uiso   1.00
C1609  C     0.97886   0.79048   0.74800   0.00000  Uiso   1.00
C1610  C     0.68732   0.87366   0.74811   0.00000  Uiso   1.00
C1611  C     0.82104   0.87345   0.54684   0.00000  Uiso   1.00
C1612  C     0.81814   0.79364   0.95069   0.00000  Uiso   1.00
C1613  C     0.83368   0.87492   0.95208   0.00000  Uiso   1.00
C1614  C     0.84655   0.79501   0.54854   0.00000  Uiso   1.00
C1615  C     0.82507   0.87413   0.59271   0.00000  Uiso   1.00
C1616  C     0.81723   0.79389   0.90460   0.00000  Uiso   1.00
C1617  C     0.83111   0.87522   0.90624   0.00000  Uiso   1.00
C1618  C     0.84887   0.79526   0.59476   0.00000  Uiso   1.00
C1619  C     0.83628   0.83418   0.61706   0.00000  Uiso   1.00
C1620  C     0.82656   0.83406   0.88232   0.00000  Uiso   1.00
C1621  C     0.83147   0.83382   0.52403   0.00000  Uiso   1.00
C1622  C     0.82800   0.83392   0.97506   0.00000  Uiso   1.00
C1623  C     0.95684   0.83217   0.74637   0.00000  Uiso   1.00
C1624  C     0.70949   0.83250   0.75055   0.00000  Uiso   1.00
Cu1625 Cu    0.83333   0.88022   0.75000   0.00000  Uiso   1.00
Cu1626 Cu    0.83333   0.78645   0.75000   0.00000  Uiso   1.00
H1627  H     0.80931   0.90416   0.52954   0.00000  Uiso   1.00
H1628  H     0.81112   0.76203   0.96710   0.00000  Uiso   1.00
H1629  H     0.84075   0.90698   0.96920   0.00000  Uiso   1.00
H1630  H     0.85671   0.76459   0.53214   0.00000  Uiso   1.00
H1631  H     0.81911   0.90618   0.60856   0.00000  Uiso   1.00
H1632  H     0.80891   0.76286   0.88637   0.00000  Uiso   1.00
H1633  H     0.83267   0.90796   0.89003   0.00000  Uiso   1.00
H1634  H     0.86073   0.76520   0.61306   0.00000  Uiso   1.00
H1635  H     0.70455   0.75808   0.75422   0.00000  Uiso   1.00
H1636  H     0.96151   0.90539   0.73837   0.00000  Uiso   1.00
H1637  H     0.96339   0.75773   0.74648   0.00000  Uiso   1.00
H1638  H     0.70304   0.90592   0.74960   0.00000  Uiso   1.00
N1639  N     0.83333   0.95069   0.75000   0.00000  Uiso   1.00
N1640  N     0.83333   0.71598   0.75000   0.00000  Uiso   1.00
O1641  O     0.77321   0.87291   0.74999   0.00000  Uiso   1.00
O1642  O     0.89345   0.79375   0.75000   0.00000  Uiso   1.00
O1643  O     0.89345   0.87291   0.75000   0.00000  Uiso   1.00
O1644  O     0.77321   0.79375   0.74999   0.00000  Uiso   1.00
O1645  O     0.83333   0.87293   0.68573   0.00000  Uiso   1.00
O1646  O     0.83334   0.79374   0.81427   0.00000  Uiso   1.00
O1647  O     0.83334   0.87293   0.81427   0.00000  Uiso   1.00
O1648  O     0.83333   0.79374   0.68573   0.00000  Uiso   1.00
C1649  C     0.79309   0.71067   0.67452   0.00000  Uiso   1.00
C1650  C     0.75587   0.73568   0.66877   0.00000  Uiso   1.00
C1651  C     0.73812   0.74815   0.62638   0.00000  Uiso   1.00
C1652  C     0.75634   0.73390   0.58907   0.00000  Uiso   1.00
C1653  C     0.79222   0.70700   0.59417   0.00000  Uiso   1.00
C1654  C     0.81070   0.69574   0.63663   0.00000  Uiso   1.00
H1655  H     0.73928   0.74331   0.69650   0.00000  Uiso   1.00
H1656  H     0.70953   0.76769   0.62243   0.00000  Uiso   1.00
H1657  H     0.74232   0.74305   0.55621   0.00000  Uiso   1.00
H1658  H     0.80597   0.69520   0.56525   0.00000  Uiso   1.00
H1659  H     0.83830   0.67444   0.64000   0.00000  Uiso   1.00
C1660  C     0.90289   0.95654   0.79620   0.00000  Uiso   1.00
C1661  C     0.90661   0.93220   0.83626   0.00000  Uiso   1.00
C1662  C     0.94530   0.92190   0.85883   0.00000  Uiso   1.00
C1663  C     0.98100   0.93859   0.84305   0.00000  Uiso   1.00
C1664  C     0.97783   0.96570   0.80489   0.00000  Uiso   1.00
C1665  C     0.93911   0.97417   0.78128   0.00000  Uiso   1.00
H1666  H     0.87985   0.92431   0.85176   0.00000  Uiso   1.00
H1667  H     0.94746   0.90272   0.88959   0.00000  Uiso   1.00
H1668  H     0.67763   0.93161   0.86102   0.00000  Uiso   1.00
H1669  H     0.67203   0.98010   0.79366   0.00000  Uiso   1.00
H1670  H     0.93708   0.99595   0.75215   0.00000  Uiso   1.00
C1671  C     0.87507   0.71055   0.82467   0.00000  Uiso   1.00
C1672  C     0.91281   0.73386   0.82905   0.00000  Uiso   1.00
C1673  C     0.93185   0.74628   0.87083   0.00000  Uiso   1.00
C1674  C     0.91438   0.73339   0.90897   0.00000  Uiso   1.00
C1675  C     0.87806   0.70779   0.90526   0.00000  Uiso   1.00
C1676  C     0.85833   0.69670   0.86337   0.00000  Uiso   1.00
H1677  H     0.92876   0.73991   0.80065   0.00000  Uiso   1.00
H1678  H     0.96086   0.76458   0.87367   0.00000  Uiso   1.00
H1679  H     0.92940   0.74240   0.94137   0.00000  Uiso   1.00
H1680  H     0.86496   0.69685   0.93481   0.00000  Uiso   1.00
H1681  H     0.83043   0.67634   0.86106   0.00000  Uiso   1.00
C1682  C     0.76146   0.96022   0.70843   0.00000  Uiso   1.00
C1683  C     0.75328   0.93271   0.67065   0.00000  Uiso   1.00
C1684  C     0.71310   0.92790   0.64973   0.00000  Uiso   1.00
C1685  C     0.68059   0.95254   0.66500   0.00000  Uiso   1.00
C1686  C     0.68816   0.98113   0.70184   0.00000  Uiso   1.00
C1687  C     0.72800   0.98400   0.72414   0.00000  Uiso   1.00
H1688  H     0.77776   0.91698   0.65582   0.00000  Uiso   1.00
H1689  H     0.70749   0.90644   0.62058   0.00000  Uiso   1.00
H1690  H     0.98301   0.94985   0.64808   0.00000  Uiso   1.00
H1691  H     0.99662   0.66795   0.71297   0.00000  Uiso   1.00
H1692  H     0.73334   0.67381   0.75213   0.00000  Uiso   1.00
loop_
_geom_bond_atom_site_label_1
_geom_bond_atom_site_label_2
_geom_bond_distance
_geom_bond_site_symmetry_2
_ccdc_geom_bond_type
C1     O46     1.301   .     A
C1     O43     1.313   .     A
C1     C26     1.457   .     S
C2     O44     1.304   .     A
C2     O45     1.311   .     A
C2     C25     1.458   .     S
C3     O47     1.308   .     A
C3     O50     1.314   .     A
C3     C21     1.469   .     S
C4     C22     1.472   .     S
C4     O48     1.314   .     A
C4     O49     1.309   .     A
C5     N42     1.376   .     A
C5     C51     1.486   .     S
C5     C572    1.424   1_545 S
C6     N41     1.385   .     A
C6     C62     1.489   .     S
C6     C289    1.427   .     S
C7     C73     1.485   .     S
C7     N42     1.378   .     A
C7     C570    1.427   1_545 S
C8     N41     1.386   .     A
C8     C84     1.492   .     S
C8     C287    1.424   .     S
C9     C26     1.403   .     A
C9     H37     1.081   .     S
C9     C199    1.386   1_455 S
C10    C25     1.393   .     A
C10    H38     1.074   .     S
C10    C106    1.381   .     S
C11    C25     1.402   .     A
C11    H39     1.079   .     S
C11    C103    1.386   .     S
C12    C26     1.391   .     A
C12    H40     1.070   .     S
C12    C198    1.381   1_455 S
C13    H29     1.081   .     S
C13    C23     1.403   .     A
C13    C17     1.383   .     A
C14    C18     1.395   .     A
C14    C24     1.406   .     A
C14    H30     1.083   .     S
C15    C19     1.384   .     A
C15    C24     1.404   .     A
C15    H31     1.081   .     S
C16    C20     1.396   .     A
C16    C23     1.407   .     A
C16    H32     1.082   .     S
C17    H33     1.075   .     S
C17    C21     1.401   .     A
C18    H34     1.079   .     S
C18    C22     1.400   .     A
C19    C22     1.401   .     A
C19    H35     1.075   .     S
C20    C21     1.401   .     A
C20    H36     1.081   .     S
C23    C870    1.477   1_554 S
C24    C869    1.477   .     S
Cu27   O45     1.967   .     S
Cu27   N41     2.049   .     S
Cu27   O47     1.961   .     S
Cu27   O43     1.970   .     S
Cu27   Cu28    2.727   .     S
Cu27   O49     1.961   .     S
Cu28   O46     1.967   .     S
Cu28   O50     1.961   .     S
Cu28   O44     1.970   .     S
Cu28   O48     1.961   .     S
Cu28   N42     2.049   .     S
C51    C56     1.407   .     A
C51    C52     1.403   .     A
C52    C53     1.398   .     A
C52    H57     1.071   .     S
C53    C54     1.396   .     A
C53    H58     1.082   .     S
C54    C55     1.396   .     A
C54    H59     1.082   .     S
C55    C56     1.398   .     A
C55    H60     1.082   .     S
C56    H61     1.083   .     S
C62    C67     1.408   .     A
C62    C63     1.399   .     A
C63    H68     1.060   .     S
C63    C64     1.397   .     A
C64    H69     1.082   .     S
C64    C65     1.394   .     A
C65    C66     1.394   .     A
C65    H164    1.082   .     S
C66    C67     1.400   .     A
C66    H165    1.080   .     S
C67    H72     1.083   .     S
H70    C253    1.082   1_455 S
H71    C254    1.080   1_455 S
C73    C74     1.401   .     A
C73    C78     1.407   .     A
C74    C75     1.398   .     A
C74    H79     1.068   .     S
C75    H80     1.082   .     S
C75    C76     1.396   .     A
C76    C77     1.396   .     A
C76    H81     1.082   .     S
C77    C78     1.399   .     A
C77    H82     1.082   .     S
C78    H83     1.083   .     S
C84    C85     1.401   .     A
C84    C89     1.412   .     A
C85    H90     1.059   .     S
C85    C86     1.398   .     A
C86    H91     1.082   .     S
C86    C87     1.395   .     A
C87    C88     1.394   .     A
C87    H280    1.082   1_455 S
C88    C89     1.399   .     A
C88    H563    1.080   1_455 S
C89    H376    1.083   .     S
H92    C181    1.082   .     S
H93    C746    1.080   1_545 S
H94    C653    1.083   1_545 S
C95    O140    1.301   .     A
C95    O137    1.313   .     A
C95    C120    1.457   .     S
C96    O138    1.304   .     A
C96    O139    1.311   .     A
C96    C119    1.458   .     S
C97    O141    1.308   .     A
C97    O144    1.314   .     A
C97    C115    1.469   .     S
C98    C116    1.472   .     S
C98    O142    1.314   .     A
C98    O143    1.309   .     A
C99    N136    1.376   .     A
C99    C145    1.486   .     S
C99    C666    1.424   1_545 S
C100   N135    1.385   .     A
C100   C156    1.489   .     S
C100   C383    1.427   .     S
C101   C167    1.485   .     S
C101   N136    1.378   .     A
C101   C664    1.427   1_545 S
C102   N135    1.386   .     A
C102   C178    1.492   .     S
C102   C381    1.424   .     S
C103   C120    1.403   .     A
C103   H131    1.081   .     S
C104   C119    1.393   .     A
C104   H132    1.074   .     S
C104   C200    1.381   .     S
C105   C119    1.402   .     A
C105   H133    1.079   .     S
C105   C197    1.386   .     S
C106   C120    1.391   .     A
C106   H134    1.070   .     S
C107   H123    1.081   .     S
C107   C117    1.403   .     A
C107   C111    1.383   .     A
C108   C112    1.395   .     A
C108   C118    1.406   .     A
C108   H124    1.083   .     S
C109   C113    1.384   .     A
C109   C118    1.404   .     A
C109   H125    1.081   .     S
C110   C114    1.396   .     A
C110   C117    1.407   .     A
C110   H126    1.082   .     S
C111   H127    1.075   .     S
C111   C115    1.401   .     A
C112   H128    1.079   .     S
C112   C116    1.400   .     A
C113   C116    1.401   .     A
C113   H129    1.075   .     S
C114   C115    1.401   .     A
C114   H130    1.081   .     S
C117   C964    1.477   1_554 S
C118   C963    1.477   .     S
Cu121  O139    1.967   .     S
Cu121  N135    2.049   .     S
Cu121  O141    1.961   .     S
Cu121  O137    1.970   .     S
Cu121  Cu122   2.727   .     S
Cu121  O143    1.961   .     S
Cu122  O140    1.967   .     S
Cu122  O144    1.961   .     S
Cu122  O138    1.970   .     S
Cu122  O142    1.961   .     S
Cu122  N136    2.049   .     S
C145   C150    1.407   .     A
C145   C146    1.403   .     A
C146   C147    1.398   .     A
C146   H151    1.071   .     S
C147   C148    1.396   .     A
C147   H152    1.082   .     S
C148   C149    1.396   .     A
C148   H153    1.082   .     S
C149   C150    1.398   .     A
C149   H154    1.082   .     S
C150   H155    1.083   .     S
C156   C161    1.408   .     A
C156   C157    1.399   .     A
C157   H162    1.060   .     S
C157   C158    1.397   .     A
C158   H163    1.082   .     S
C158   C159    1.394   .     A
C159   C160    1.394   .     A
C159   H258    1.082   .     S
C160   C161    1.400   .     A
C160   H259    1.080   .     S
C161   H166    1.083   .     S
C167   C168    1.401   .     A
C167   C172    1.407   .     A
C168   C169    1.398   .     A
C168   H173    1.068   .     S
C169   H174    1.082   .     S
C169   C170    1.396   .     A
C170   C171    1.396   .     A
C170   H175    1.082   .     S
C171   C172    1.399   .     A
C171   H176    1.082   .     S
C172   H177    1.083   .     S
C178   C179    1.401   .     A
C178   C183    1.412   .     A
C179   H184    1.059   .     S
C179   C180    1.398   .     A
C180   H185    1.082   .     S
C180   C181    1.395   .     A
C181   C182    1.394   .     A
C182   C183    1.399   .     A
C182   H375    1.080   .     S
C183   H470    1.083   .     S
H186   C275    1.082   .     S
H187   C840    1.080   1_545 S
H188   C747    1.083   1_545 S
C189   O234    1.301   .     A
C189   O231    1.313   .     A
C189   C214    1.457   .     S
C190   O232    1.304   .     A
C190   O233    1.311   .     A
C190   C213    1.458   .     S
C191   O235    1.308   .     A
C191   O238    1.314   .     A
C191   C209    1.469   .     S
C192   C210    1.472   .     S
C192   O236    1.314   .     A
C192   O237    1.309   .     A
C193   N230    1.376   .     A
C193   C239    1.486   .     S
C193   C760    1.424   1_545 S
C194   N229    1.385   .     A
C194   C250    1.489   .     S
C194   C477    1.427   .     S
C195   C261    1.485   .     S
C195   N230    1.378   .     A
C195   C758    1.427   1_545 S
C196   N229    1.386   .     A
C196   C272    1.492   .     S
C196   C475    1.424   .     S
C197   C214    1.403   .     A
C197   H225    1.081   .     S
C198   C213    1.393   .     A
C198   H226    1.074   .     S
C198   C12     1.381   1_655 S
C199   C213    1.402   .     A
C199   H227    1.079   .     S
C199   C9      1.386   1_655 S
C200   C214    1.391   .     A
C200   H228    1.070   .     S
C201   H217    1.081   .     S
C201   C211    1.403   .     A
C201   C205    1.383   .     A
C202   C206    1.395   .     A
C202   C212    1.406   .     A
C202   H218    1.083   .     S
C203   C207    1.384   .     A
C203   C212    1.404   .     A
C203   H219    1.081   .     S
C204   C208    1.396   .     A
C204   C211    1.407   .     A
C204   H220    1.082   .     S
C205   H221    1.075   .     S
C205   C209    1.401   .     A
C206   H222    1.079   .     S
C206   C210    1.400   .     A
C207   C210    1.401   .     A
C207   H223    1.075   .     S
C208   C209    1.401   .     A
C208   H224    1.081   .     S
C211   C1058   1.477   1_554 S
C212   C1057   1.477   .     S
Cu215  O233    1.967   .     S
Cu215  N229    2.049   .     S
Cu215  O235    1.961   .     S
Cu215  O231    1.970   .     S
Cu215  Cu216   2.727   .     S
Cu215  O237    1.961   .     S
Cu216  O234    1.967   .     S
Cu216  O238    1.961   .     S
Cu216  O232    1.970   .     S
Cu216  O236    1.961   .     S
Cu216  N230    2.049   .     S
C239   C244    1.407   .     A
C239   C240    1.403   .     A
C240   C241    1.398   .     A
C240   H245    1.071   .     S
C241   C242    1.396   .     A
C241   H246    1.082   .     S
C242   C243    1.396   .     A
C242   H247    1.082   .     S
C243   C244    1.398   .     A
C243   H248    1.082   .     S
C244   H249    1.083   .     S
C250   C255    1.408   .     A
C250   C251    1.399   .     A
C251   H256    1.060   .     S
C251   C252    1.397   .     A
C252   H257    1.082   .     S
C252   C253    1.394   .     A
C253   C254    1.394   .     A
C253   H70     1.082   1_655 S
C254   C255    1.400   .     A
C254   H71     1.080   1_655 S
C255   H260    1.083   .     S
C261   C262    1.401   .     A
C261   C266    1.407   .     A
C262   C263    1.398   .     A
C262   H267    1.068   .     S
C263   H268    1.082   .     S
C263   C264    1.396   .     A
C264   C265    1.396   .     A
C264   H269    1.082   .     S
C265   C266    1.399   .     A
C265   H270    1.082   .     S
C266   H271    1.083   .     S
C272   C273    1.401   .     A
C272   C277    1.412   .     A
C273   H278    1.059   .     S
C273   C274    1.398   .     A
C274   H279    1.082   .     S
C274   C275    1.395   .     A
C275   C276    1.394   .     A
C276   C277    1.399   .     A
C276   H469    1.080   .     S
C277   H564    1.083   .     S
H280   C87     1.082   1_655 S
H281   C652    1.080   1_645 S
H282   C841    1.083   1_545 S
C283   O328    1.301   .     A
C283   O325    1.313   .     A
C283   C308    1.457   .     S
C284   O326    1.304   .     A
C284   O327    1.311   .     A
C284   C307    1.458   .     S
C285   O329    1.308   .     A
C285   O332    1.314   .     A
C285   C303    1.469   .     S
C286   C304    1.472   .     S
C286   O330    1.314   .     A
C286   O331    1.309   .     A
C287   N324    1.376   .     A
C287   C333    1.486   .     S
C288   N323    1.385   .     A
C288   C344    1.489   .     S
C288   C571    1.427   .     S
C289   C355    1.485   .     S
C289   N324    1.378   .     A
C290   N323    1.386   .     A
C290   C366    1.492   .     S
C290   C569    1.424   .     S
C291   C308    1.403   .     A
C291   H319    1.081   .     S
C291   C481    1.386   1_455 S
C292   C307    1.393   .     A
C292   H320    1.074   .     S
C292   C388    1.381   .     S
C293   C307    1.402   .     A
C293   H321    1.079   .     S
C293   C385    1.386   .     S
C294   C308    1.391   .     A
C294   H322    1.070   .     S
C294   C480    1.381   1_455 S
C295   H311    1.081   .     S
C295   C305    1.403   .     A
C295   C299    1.383   .     A
C296   C300    1.395   .     A
C296   C306    1.406   .     A
C296   H312    1.083   .     S
C297   C301    1.384   .     A
C297   C306    1.404   .     A
C297   H313    1.081   .     S
C298   C302    1.396   .     A
C298   C305    1.407   .     A
C298   H314    1.082   .     S
C299   H315    1.075   .     S
C299   C303    1.401   .     A
C300   H316    1.079   .     S
C300   C304    1.400   .     A
C301   C304    1.401   .     A
C301   H317    1.075   .     S
C302   C303    1.401   .     A
C302   H318    1.081   .     S
C305   C1152   1.477   1_554 S
C306   C1151   1.477   .     S
Cu309  O327    1.967   .     S
Cu309  N323    2.049   .     S
Cu309  O329    1.961   .     S
Cu309  O325    1.970   .     S
Cu309  Cu310   2.727   .     S
Cu309  O331    1.961   .     S
Cu310  O328    1.967   .     S
Cu310  O332    1.961   .     S
Cu310  O326    1.970   .     S
Cu310  O330    1.961   .     S
Cu310  N324    2.049   .     S
C333   C338    1.407   .     A
C333   C334    1.403   .     A
C334   C335    1.398   .     A
C334   H339    1.071   .     S
C335   C336    1.396   .     A
C335   H340    1.082   .     S
C336   C337    1.396   .     A
C336   H341    1.082   .     S
C337   C338    1.398   .     A
C337   H342    1.082   .     S
C338   H343    1.083   .     S
C344   C349    1.408   .     A
C344   C345    1.399   .     A
C345   H350    1.060   .     S
C345   C346    1.397   .     A
C346   H351    1.082   .     S
C346   C347    1.394   .     A
C347   C348    1.394   .     A
C347   H446    1.082   .     S
C348   C349    1.400   .     A
C348   H447    1.080   .     S
C349   H354    1.083   .     S
H352   C535    1.082   1_455 S
H353   C536    1.080   1_455 S
C355   C356    1.401   .     A
C355   C360    1.407   .     A
C356   C357    1.398   .     A
C356   H361    1.068   .     S
C357   H362    1.082   .     S
C357   C358    1.396   .     A
C358   C359    1.396   .     A
C358   H363    1.082   .     S
C359   C360    1.399   .     A
C359   H364    1.082   .     S
C360   H365    1.083   .     S
C366   C367    1.401   .     A
C366   C371    1.412   .     A
C367   H372    1.059   .     S
C367   C368    1.398   .     A
C368   H373    1.082   .     S
C368   C369    1.395   .     A
C369   C370    1.394   .     A
C369   H562    1.082   1_455 S
C370   C371    1.399   .     A
C370   H845    1.080   1_455 S
C371   H658    1.083   .     S
H374   C463    1.082   .     S
C377   O422    1.301   .     A
C377   O419    1.313   .     A
C377   C402    1.457   .     S
C378   O420    1.304   .     A
C378   O421    1.311   .     A
C378   C401    1.458   .     S
C379   O423    1.308   .     A
C379   O426    1.314   .     A
C379   C397    1.469   .     S
C380   C398    1.472   .     S
C380   O424    1.314   .     A
C380   O425    1.309   .     A
C381   N418    1.376   .     A
C381   C427    1.486   .     S
C382   N417    1.385   .     A
C382   C438    1.489   .     S
C382   C665    1.427   .     S
C383   C449    1.485   .     S
C383   N418    1.378   .     A
C384   N417    1.386   .     A
C384   C460    1.492   .     S
C384   C663    1.424   .     S
C385   C402    1.403   .     A
C385   H413    1.081   .     S
C386   C401    1.393   .     A
C386   H414    1.074   .     S
C386   C482    1.381   .     S
C387   C401    1.402   .     A
C387   H415    1.079   .     S
C387   C479    1.386   .     S
C388   C402    1.391   .     A
C388   H416    1.070   .     S
C389   H405    1.081   .     S
C389   C399    1.403   .     A
C389   C393    1.383   .     A
C390   C394    1.395   .     A
C390   C400    1.406   .     A
C390   H406    1.083   .     S
C391   C395    1.384   .     A
C391   C400    1.404   .     A
C391   H407    1.081   .     S
C392   C396    1.396   .     A
C392   C399    1.407   .     A
C392   H408    1.082   .     S
C393   H409    1.075   .     S
C393   C397    1.401   .     A
C394   H410    1.079   .     S
C394   C398    1.400   .     A
C395   C398    1.401   .     A
C395   H411    1.075   .     S
C396   C397    1.401   .     A
C396   H412    1.081   .     S
C399   C1246   1.477   1_554 S
C400   C1245   1.477   .     S
Cu403  O421    1.967   .     S
Cu403  N417    2.049   .     S
Cu403  O423    1.961   .     S
Cu403  O419    1.970   .     S
Cu403  Cu404   2.727   .     S
Cu403  O425    1.961   .     S
Cu404  O422    1.967   .     S
Cu404  O426    1.961   .     S
Cu404  O420    1.970   .     S
Cu404  O424    1.961   .     S
Cu404  N418    2.049   .     S
C427   C432    1.407   .     A
C427   C428    1.403   .     A
C428   C429    1.398   .     A
C428   H433    1.071   .     S
C429   C430    1.396   .     A
C429   H434    1.082   .     S
C430   C431    1.396   .     A
C430   H435    1.082   .     S
C431   C432    1.398   .     A
C431   H436    1.082   .     S
C432   H437    1.083   .     S
C438   C443    1.408   .     A
C438   C439    1.399   .     A
C439   H444    1.060   .     S
C439   C440    1.397   .     A
C440   H445    1.082   .     S
C440   C441    1.394   .     A
C441   C442    1.394   .     A
C441   H540    1.082   .     S
C442   C443    1.400   .     A
C442   H541    1.080   .     S
C443   H448    1.083   .     S
C449   C450    1.401   .     A
C449   C454    1.407   .     A
C450   C451    1.398   .     A
C450   H455    1.068   .     S
C451   H456    1.082   .     S
C451   C452    1.396   .     A
C452   C453    1.396   .     A
C452   H457    1.082   .     S
C453   C454    1.399   .     A
C453   H458    1.082   .     S
C454   H459    1.083   .     S
C460   C461    1.401   .     A
C460   C465    1.412   .     A
C461   H466    1.059   .     S
C461   C462    1.398   .     A
C462   H467    1.082   .     S
C462   C463    1.395   .     A
C463   C464    1.394   .     A
C464   C465    1.399   .     A
C464   H657    1.080   .     S
C465   H752    1.083   .     S
H468   C557    1.082   .     S
C471   O516    1.301   .     A
C471   O513    1.313   .     A
C471   C496    1.457   .     S
C472   O514    1.304   .     A
C472   O515    1.311   .     A
C472   C495    1.458   .     S
C473   O517    1.308   .     A
C473   O520    1.314   .     A
C473   C491    1.469   .     S
C474   C492    1.472   .     S
C474   O518    1.314   .     A
C474   O519    1.309   .     A
C475   N512    1.376   .     A
C475   C521    1.486   .     S
C476   N511    1.385   .     A
C476   C532    1.489   .     S
C476   C759    1.427   .     S
C477   C543    1.485   .     S
C477   N512    1.378   .     A
C478   N511    1.386   .     A
C478   C554    1.492   .     S
C478   C757    1.424   .     S
C479   C496    1.403   .     A
C479   H507    1.081   .     S
C480   C495    1.393   .     A
C480   H508    1.074   .     S
C480   C294    1.381   1_655 S
C481   C495    1.402   .     A
C481   H509    1.079   .     S
C481   C291    1.386   1_655 S
C482   C496    1.391   .     A
C482   H510    1.070   .     S
C483   H499    1.081   .     S
C483   C493    1.403   .     A
C483   C487    1.383   .     A
C484   C488    1.395   .     A
C484   C494    1.406   .     A
C484   H500    1.083   .     S
C485   C489    1.384   .     A
C485   C494    1.404   .     A
C485   H501    1.081   .     S
C486   C490    1.396   .     A
C486   C493    1.407   .     A
C486   H502    1.082   .     S
C487   H503    1.075   .     S
C487   C491    1.401   .     A
C488   H504    1.079   .     S
C488   C492    1.400   .     A
C489   C492    1.401   .     A
C489   H505    1.075   .     S
C490   C491    1.401   .     A
C490   H506    1.081   .     S
C493   C1340   1.477   1_554 S
C494   C1339   1.477   .     S
Cu497  O515    1.967   .     S
Cu497  N511    2.049   .     S
Cu497  O517    1.961   .     S
Cu497  O513    1.970   .     S
Cu497  Cu498   2.727   .     S
Cu497  O519    1.961   .     S
Cu498  O516    1.967   .     S
Cu498  O520    1.961   .     S
Cu498  O514    1.970   .     S
Cu498  O518    1.961   .     S
Cu498  N512    2.049   .     S
C521   C526    1.407   .     A
C521   C522    1.403   .     A
C522   C523    1.398   .     A
C522   H527    1.071   .     S
C523   C524    1.396   .     A
C523   H528    1.082   .     S
C524   C525    1.396   .     A
C524   H529    1.082   .     S
C525   C526    1.398   .     A
C525   H530    1.082   .     S
C526   H531    1.083   .     S
C532   C537    1.408   .     A
C532   C533    1.399   .     A
C533   H538    1.060   .     S
C533   C534    1.397   .     A
C534   H539    1.082   .     S
C534   C535    1.394   .     A
C535   C536    1.394   .     A
C535   H352    1.082   1_655 S
C536   C537    1.400   .     A
C536   H353    1.080   1_655 S
C537   H542    1.083   .     S
C543   C544    1.401   .     A
C543   C548    1.407   .     A
C544   C545    1.398   .     A
C544   H549    1.068   .     S
C545   H550    1.082   .     S
C545   C546    1.396   .     A
C546   C547    1.396   .     A
C546   H551    1.082   .     S
C547   C548    1.399   .     A
C547   H552    1.082   .     S
C548   H553    1.083   .     S
C554   C555    1.401   .     A
C554   C559    1.412   .     A
C555   H560    1.059   .     S
C555   C556    1.398   .     A
C556   H561    1.082   .     S
C556   C557    1.395   .     A
C557   C558    1.394   .     A
C558   C559    1.399   .     A
C558   H751    1.080   .     S
C559   H846    1.083   .     S
H562   C369    1.082   1_655 S
H563   C88     1.080   1_655 S
C565   O610    1.301   .     A
C565   O607    1.313   .     A
C565   C590    1.457   .     S
C566   O608    1.304   .     A
C566   O609    1.311   .     A
C566   C589    1.458   .     S
C567   O611    1.308   .     A
C567   O614    1.314   .     A
C567   C585    1.469   .     S
C568   C586    1.472   .     S
C568   O612    1.314   .     A
C568   O613    1.309   .     A
C569   N606    1.376   .     A
C569   C615    1.486   .     S
C570   N605    1.385   .     A
C570   C626    1.489   .     S
C570   C7      1.427   1_565 S
C571   C637    1.485   .     S
C571   N606    1.378   .     A
C572   N605    1.386   .     A
C572   C648    1.492   .     S
C572   C5      1.424   1_565 S
C573   C590    1.403   .     A
C573   H601    1.081   .     S
C573   C763    1.386   1_455 S
C574   C589    1.393   .     A
C574   H602    1.074   .     S
C574   C670    1.381   .     S
C575   C589    1.402   .     A
C575   H603    1.079   .     S
C575   C667    1.386   .     S
C576   C590    1.391   .     A
C576   H604    1.070   .     S
C576   C762    1.381   1_455 S
C577   H593    1.081   .     S
C577   C587    1.403   .     A
C577   C581    1.383   .     A
C578   C582    1.395   .     A
C578   C588    1.406   .     A
C578   H594    1.083   .     S
C579   C583    1.384   .     A
C579   C588    1.404   .     A
C579   H595    1.081   .     S
C580   C584    1.396   .     A
C580   C587    1.407   .     A
C580   H596    1.082   .     S
C581   H597    1.075   .     S
C581   C585    1.401   .     A
C582   H598    1.079   .     S
C582   C586    1.400   .     A
C583   C586    1.401   .     A
C583   H599    1.075   .     S
C584   C585    1.401   .     A
C584   H600    1.081   .     S
C587   C1434   1.477   1_554 S
C588   C1433   1.477   .     S
Cu591  O609    1.967   .     S
Cu591  N605    2.049   .     S
Cu591  O611    1.961   .     S
Cu591  O607    1.970   .     S
Cu591  Cu592   2.727   .     S
Cu591  O613    1.961   .     S
Cu592  O610    1.967   .     S
Cu592  O614    1.961   .     S
Cu592  O608    1.970   .     S
Cu592  O612    1.961   .     S
Cu592  N606    2.049   .     S
C615   C620    1.407   .     A
C615   C616    1.403   .     A
C616   C617    1.398   .     A
C616   H621    1.071   .     S
C617   C618    1.396   .     A
C617   H622    1.082   .     S
C618   C619    1.396   .     A
C618   H623    1.082   .     S
C619   C620    1.398   .     A
C619   H624    1.082   .     S
C620   H625    1.083   .     S
C626   C631    1.408   .     A
C626   C627    1.399   .     A
C627   H632    1.060   .     S
C627   C628    1.397   .     A
C628   H633    1.082   .     S
C628   C629    1.394   .     A
C629   C630    1.394   .     A
C629   H728    1.082   .     S
C630   C631    1.400   .     A
C630   H729    1.080   .     S
C631   H636    1.083   .     S
H634   C817    1.082   1_455 S
H635   C818    1.080   1_455 S
C637   C638    1.401   .     A
C637   C642    1.407   .     A
C638   C639    1.398   .     A
C638   H643    1.068   .     S
C639   H644    1.082   .     S
C639   C640    1.396   .     A
C640   C641    1.396   .     A
C640   H645    1.082   .     S
C641   C642    1.399   .     A
C641   H646    1.082   .     S
C642   H647    1.083   .     S
C648   C649    1.401   .     A
C648   C653    1.412   .     A
C649   H654    1.059   .     S
C649   C650    1.398   .     A
C650   H655    1.082   .     S
C650   C651    1.395   .     A
C651   C652    1.394   .     A
C651   H844    1.082   1_455 S
C652   C653    1.399   .     A
C652   H281    1.080   1_465 S
C653   H94     1.083   1_565 S
H656   C745    1.082   .     S
C659   O704    1.301   .     A
C659   O701    1.313   .     A
C659   C684    1.457   .     S
C660   O702    1.304   .     A
C660   O703    1.311   .     A
C660   C683    1.458   .     S
C661   O705    1.308   .     A
C661   O708    1.314   .     A
C661   C679    1.469   .     S
C662   C680    1.472   .     S
C662   O706    1.314   .     A
C662   O707    1.309   .     A
C663   N700    1.376   .     A
C663   C709    1.486   .     S
C664   N699    1.385   .     A
C664   C720    1.489   .     S
C664   C101    1.427   1_565 S
C665   C731    1.485   .     S
C665   N700    1.378   .     A
C666   N699    1.386   .     A
C666   C742    1.492   .     S
C666   C99     1.424   1_565 S
C667   C684    1.403   .     A
C667   H695    1.081   .     S
C668   C683    1.393   .     A
C668   H696    1.074   .     S
C668   C764    1.381   .     S
C669   C683    1.402   .     A
C669   H697    1.079   .     S
C669   C761    1.386   .     S
C670   C684    1.391   .     A
C670   H698    1.070   .     S
C671   H687    1.081   .     S
C671   C681    1.403   .     A
C671   C675    1.383   .     A
C672   C676    1.395   .     A
C672   C682    1.406   .     A
C672   H688    1.083   .     S
C673   C677    1.384   .     A
C673   C682    1.404   .     A
C673   H689    1.081   .     S
C674   C678    1.396   .     A
C674   C681    1.407   .     A
C674   H690    1.082   .     S
C675   H691    1.075   .     S
C675   C679    1.401   .     A
C676   H692    1.079   .     S
C676   C680    1.400   .     A
C677   C680    1.401   .     A
C677   H693    1.075   .     S
C678   C679    1.401   .     A
C678   H694    1.081   .     S
C681   C1528   1.477   1_554 S
C682   C1527   1.477   .     S
Cu685  O703    1.967   .     S
Cu685  N699    2.049   .     S
Cu685  O705    1.961   .     S
Cu685  O701    1.970   .     S
Cu685  Cu686   2.727   .     S
Cu685  O707    1.961   .     S
Cu686  O704    1.967   .     S
Cu686  O708    1.961   .     S
Cu686  O702    1.970   .     S
Cu686  O706    1.961   .     S
Cu686  N700    2.049   .     S
C709   C714    1.407   .     A
C709   C710    1.403   .     A
C710   C711    1.398   .     A
C710   H715    1.071   .     S
C711   C712    1.396   .     A
C711   H716    1.082   .     S
C712   C713    1.396   .     A
C712   H717    1.082   .     S
C713   C714    1.398   .     A
C713   H718    1.082   .     S
C714   H719    1.083   .     S
C720   C725    1.408   .     A
C720   C721    1.399   .     A
C721   H726    1.060   .     S
C721   C722    1.397   .     A
C722   H727    1.082   .     S
C722   C723    1.394   .     A
C723   C724    1.394   .     A
C723   H822    1.082   .     S
C724   C725    1.400   .     A
C724   H823    1.080   .     S
C725   H730    1.083   .     S
C731   C732    1.401   .     A
C731   C736    1.407   .     A
C732   C733    1.398   .     A
C732   H737    1.068   .     S
C733   H738    1.082   .     S
C733   C734    1.396   .     A
C734   C735    1.396   .     A
C734   H739    1.082   .     S
C735   C736    1.399   .     A
C735   H740    1.082   .     S
C736   H741    1.083   .     S
C742   C743    1.401   .     A
C742   C747    1.412   .     A
C743   H748    1.059   .     S
C743   C744    1.398   .     A
C744   H749    1.082   .     S
C744   C745    1.395   .     A
C745   C746    1.394   .     A
C746   C747    1.399   .     A
C746   H93     1.080   1_565 S
C747   H188    1.083   1_565 S
H750   C839    1.082   .     S
C753   O798    1.301   .     A
C753   O795    1.313   .     A
C753   C778    1.457   .     S
C754   O796    1.304   .     A
C754   O797    1.311   .     A
C754   C777    1.458   .     S
C755   O799    1.308   .     A
C755   O802    1.314   .     A
C755   C773    1.469   .     S
C756   C774    1.472   .     S
C756   O800    1.314   .     A
C756   O801    1.309   .     A
C757   N794    1.376   .     A
C757   C803    1.486   .     S
C758   N793    1.385   .     A
C758   C814    1.489   .     S
C758   C195    1.427   1_565 S
C759   C825    1.485   .     S
C759   N794    1.378   .     A
C760   N793    1.386   .     A
C760   C836    1.492   .     S
C760   C193    1.424   1_565 S
C761   C778    1.403   .     A
C761   H789    1.081   .     S
C762   C777    1.393   .     A
C762   H790    1.074   .     S
C762   C576    1.381   1_655 S
C763   C777    1.402   .     A
C763   H791    1.079   .     S
C763   C573    1.386   1_655 S
C764   C778    1.391   .     A
C764   H792    1.070   .     S
C765   H781    1.081   .     S
C765   C775    1.403   .     A
C765   C769    1.383   .     A
C766   C770    1.395   .     A
C766   C776    1.406   .     A
C766   H782    1.083   .     S
C767   C771    1.384   .     A
C767   C776    1.404   .     A
C767   H783    1.081   .     S
C768   C772    1.396   .     A
C768   C775    1.407   .     A
C768   H784    1.082   .     S
C769   H785    1.075   .     S
C769   C773    1.401   .     A
C770   H786    1.079   .     S
C770   C774    1.400   .     A
C771   C774    1.401   .     A
C771   H787    1.075   .     S
C772   C773    1.401   .     A
C772   H788    1.081   .     S
C775   C1622   1.477   1_554 S
C776   C1621   1.477   .     S
Cu779  O797    1.967   .     S
Cu779  N793    2.049   .     S
Cu779  O799    1.961   .     S
Cu779  O795    1.970   .     S
Cu779  Cu780   2.727   .     S
Cu779  O801    1.961   .     S
Cu780  O798    1.967   .     S
Cu780  O802    1.961   .     S
Cu780  O796    1.970   .     S
Cu780  O800    1.961   .     S
Cu780  N794    2.049   .     S
C803   C808    1.407   .     A
C803   C804    1.403   .     A
C804   C805    1.398   .     A
C804   H809    1.071   .     S
C805   C806    1.396   .     A
C805   H810    1.082   .     S
C806   C807    1.396   .     A
C806   H811    1.082   .     S
C807   C808    1.398   .     A
C807   H812    1.082   .     S
C808   H813    1.083   .     S
C814   C819    1.408   .     A
C814   C815    1.399   .     A
C815   H820    1.060   .     S
C815   C816    1.397   .     A
C816   H821    1.082   .     S
C816   C817    1.394   .     A
C817   C818    1.394   .     A
C817   H634    1.082   1_655 S
C818   C819    1.400   .     A
C818   H635    1.080   1_655 S
C819   H824    1.083   .     S
C825   C826    1.401   .     A
C825   C830    1.407   .     A
C826   C827    1.398   .     A
C826   H831    1.068   .     S
C827   H832    1.082   .     S
C827   C828    1.396   .     A
C828   C829    1.396   .     A
C828   H833    1.082   .     S
C829   C830    1.399   .     A
C829   H834    1.082   .     S
C830   H835    1.083   .     S
C836   C837    1.401   .     A
C836   C841    1.412   .     A
C837   H842    1.059   .     S
C837   C838    1.398   .     A
C838   H843    1.082   .     S
C838   C839    1.395   .     A
C839   C840    1.394   .     A
C840   C841    1.399   .     A
C840   H187    1.080   1_565 S
C841   H282    1.083   1_565 S
H844   C651    1.082   1_655 S
H845   C370    1.080   1_655 S
C847   O892    1.301   .     A
C847   O889    1.313   .     A
C847   C872    1.457   .     S
C848   O890    1.304   .     A
C848   O891    1.311   .     A
C848   C871    1.458   .     S
C849   O893    1.308   .     A
C849   O896    1.314   .     A
C849   C867    1.469   .     S
C850   C868    1.472   .     S
C850   O894    1.314   .     A
C850   O895    1.309   .     A
C851   N888    1.376   .     A
C851   C897    1.486   .     S
C851   C1418   1.424   1_545 S
C852   N887    1.385   .     A
C852   C908    1.489   .     S
C852   C1135   1.427   .     S
C853   C919    1.485   .     S
C853   N888    1.378   .     A
C853   C1416   1.427   1_545 S
C854   N887    1.386   .     A
C854   C930    1.492   .     S
C854   C1133   1.424   .     S
C855   C872    1.403   .     A
C855   H883    1.081   .     S
C855   C1045   1.386   1_455 S
C856   C871    1.393   .     A
C856   H884    1.074   .     S
C856   C952    1.381   .     S
C857   C871    1.402   .     A
C857   H885    1.079   .     S
C857   C949    1.386   .     S
C858   C872    1.391   .     A
C858   H886    1.070   .     S
C858   C1044   1.381   1_455 S
C859   H875    1.081   .     S
C859   C869    1.403   .     A
C859   C863    1.383   .     A
C860   C864    1.395   .     A
C860   C870    1.406   .     A
C860   H876    1.083   .     S
C861   C865    1.384   .     A
C861   C870    1.404   .     A
C861   H877    1.081   .     S
C862   C866    1.396   .     A
C862   C869    1.407   .     A
C862   H878    1.082   .     S
C863   H879    1.075   .     S
C863   C867    1.401   .     A
C864   H880    1.079   .     S
C864   C868    1.400   .     A
C865   C868    1.401   .     A
C865   H881    1.075   .     S
C866   C867    1.401   .     A
C866   H882    1.081   .     S
C870   C23     1.477   1_556 S
Cu873  O891    1.967   .     S
Cu873  N887    2.049   .     S
Cu873  O893    1.961   .     S
Cu873  O889    1.970   .     S
Cu873  Cu874   2.727   .     S
Cu873  O895    1.961   .     S
Cu874  O892    1.967   .     S
Cu874  O896    1.961   .     S
Cu874  O890    1.970   .     S
Cu874  O894    1.961   .     S
Cu874  N888    2.049   .     S
C897   C902    1.407   .     A
C897   C898    1.403   .     A
C898   C899    1.398   .     A
C898   H903    1.071   .     S
C899   C900    1.396   .     A
C899   H904    1.082   .     S
C900   C901    1.396   .     A
C900   H905    1.082   .     S
C901   C902    1.398   .     A
C901   H906    1.082   .     S
C902   H907    1.083   .     S
C908   C913    1.408   .     A
C908   C909    1.399   .     A
C909   H914    1.060   .     S
C909   C910    1.397   .     A
C910   H915    1.082   .     S
C910   C911    1.394   .     A
C911   C912    1.394   .     A
C911   H1010   1.082   .     S
C912   C913    1.400   .     A
C912   H1011   1.080   .     S
C913   H918    1.083   .     S
H916   C1099   1.082   1_455 S
H917   C1100   1.080   1_455 S
C919   C920    1.401   .     A
C919   C924    1.407   .     A
C920   C921    1.398   .     A
C920   H925    1.068   .     S
C921   H926    1.082   .     S
C921   C922    1.396   .     A
C922   C923    1.396   .     A
C922   H927    1.082   .     S
C923   C924    1.399   .     A
C923   H928    1.082   .     S
C924   H929    1.083   .     S
C930   C931    1.401   .     A
C930   C935    1.412   .     A
C931   H936    1.059   .     S
C931   C932    1.398   .     A
C932   H937    1.082   .     S
C932   C933    1.395   .     A
C933   C934    1.394   .     A
C933   H1126   1.082   1_455 S
C934   C935    1.399   .     A
C934   H1409   1.080   1_455 S
C935   H1222   1.083   .     S
H938   C1027   1.082   .     S
H939   C1592   1.080   1_545 S
H940   C1499   1.083   1_545 S
C941   O986    1.301   .     A
C941   O983    1.313   .     A
C941   C966    1.457   .     S
C942   O984    1.304   .     A
C942   O985    1.311   .     A
C942   C965    1.458   .     S
C943   O987    1.308   .     A
C943   O990    1.314   .     A
C943   C961    1.469   .     S
C944   C962    1.472   .     S
C944   O988    1.314   .     A
C944   O989    1.309   .     A
C945   N982    1.376   .     A
C945   C991    1.486   .     S
C945   C1512   1.424   1_545 S
C946   N981    1.385   .     A
C946   C1002   1.489   .     S
C946   C1229   1.427   .     S
C947   C1013   1.485   .     S
C947   N982    1.378   .     A
C947   C1510   1.427   1_545 S
C948   N981    1.386   .     A
C948   C1024   1.492   .     S
C948   C1227   1.424   .     S
C949   C966    1.403   .     A
C949   H977    1.081   .     S
C950   C965    1.393   .     A
C950   H978    1.074   .     S
C950   C1046   1.381   .     S
C951   C965    1.402   .     A
C951   H979    1.079   .     S
C951   C1043   1.386   .     S
C952   C966    1.391   .     A
C952   H980    1.070   .     S
C953   H969    1.081   .     S
C953   C963    1.403   .     A
C953   C957    1.383   .     A
C954   C958    1.395   .     A
C954   C964    1.406   .     A
C954   H970    1.083   .     S
C955   C959    1.384   .     A
C955   C964    1.404   .     A
C955   H971    1.081   .     S
C956   C960    1.396   .     A
C956   C963    1.407   .     A
C956   H972    1.082   .     S
C957   H973    1.075   .     S
C957   C961    1.401   .     A
C958   H974    1.079   .     S
C958   C962    1.400   .     A
C959   C962    1.401   .     A
C959   H975    1.075   .     S
C960   C961    1.401   .     A
C960   H976    1.081   .     S
C964   C117    1.477   1_556 S
Cu967  O985    1.967   .     S
Cu967  N981    2.049   .     S
Cu967  O987    1.961   .     S
Cu967  O983    1.970   .     S
Cu967  Cu968   2.727   .     S
Cu967  O989    1.961   .     S
Cu968  O986    1.967   .     S
Cu968  O990    1.961   .     S
Cu968  O984    1.970   .     S
Cu968  O988    1.961   .     S
Cu968  N982    2.049   .     S
C991   C996    1.407   .     A
C991   C992    1.403   .     A
C992   C993    1.398   .     A
C992   H997    1.071   .     S
C993   C994    1.396   .     A
C993   H998    1.082   .     S
C994   C995    1.396   .     A
C994   H999    1.082   .     S
C995   C996    1.398   .     A
C995   H1000   1.082   .     S
C996   H1001   1.083   .     S
C1002  C1007   1.408   .     A
C1002  C1003   1.399   .     A
C1003  H1008   1.060   .     S
C1003  C1004   1.397   .     A
C1004  H1009   1.082   .     S
C1004  C1005   1.394   .     A
C1005  C1006   1.394   .     A
C1005  H1104   1.082   .     S
C1006  C1007   1.400   .     A
C1006  H1105   1.080   .     S
C1007  H1012   1.083   .     S
C1013  C1014   1.401   .     A
C1013  C1018   1.407   .     A
C1014  C1015   1.398   .     A
C1014  H1019   1.068   .     S
C1015  H1020   1.082   .     S
C1015  C1016   1.396   .     A
C1016  C1017   1.396   .     A
C1016  H1021   1.082   .     S
C1017  C1018   1.399   .     A
C1017  H1022   1.082   .     S
C1018  H1023   1.083   .     S
C1024  C1025   1.401   .     A
C1024  C1029   1.412   .     A
C1025  H1030   1.059   .     S
C1025  C1026   1.398   .     A
C1026  H1031   1.082   .     S
C1026  C1027   1.395   .     A
C1027  C1028   1.394   .     A
C1028  C1029   1.399   .     A
C1028  H1221   1.080   .     S
C1029  H1316   1.083   .     S
H1032  C1121   1.082   .     S
H1033  C1686   1.080   1_545 S
H1034  C1593   1.083   1_545 S
C1035  O1080   1.301   .     A
C1035  O1077   1.313   .     A
C1035  C1060   1.457   .     S
C1036  O1078   1.304   .     A
C1036  O1079   1.311   .     A
C1036  C1059   1.458   .     S
C1037  O1081   1.308   .     A
C1037  O1084   1.314   .     A
C1037  C1055   1.469   .     S
C1038  C1056   1.472   .     S
C1038  O1082   1.314   .     A
C1038  O1083   1.309   .     A
C1039  N1076   1.376   .     A
C1039  C1085   1.486   .     S
C1039  C1606   1.424   1_545 S
C1040  N1075   1.385   .     A
C1040  C1096   1.489   .     S
C1040  C1323   1.427   .     S
C1041  C1107   1.485   .     S
C1041  N1076   1.378   .     A
C1041  C1604   1.427   1_545 S
C1042  N1075   1.386   .     A
C1042  C1118   1.492   .     S
C1042  C1321   1.424   .     S
C1043  C1060   1.403   .     A
C1043  H1071   1.081   .     S
C1044  C1059   1.393   .     A
C1044  H1072   1.074   .     S
C1044  C858    1.381   1_655 S
C1045  C1059   1.402   .     A
C1045  H1073   1.079   .     S
C1045  C855    1.386   1_655 S
C1046  C1060   1.391   .     A
C1046  H1074   1.070   .     S
C1047  H1063   1.081   .     S
C1047  C1057   1.403   .     A
C1047  C1051   1.383   .     A
C1048  C1052   1.395   .     A
C1048  C1058   1.406   .     A
C1048  H1064   1.083   .     S
C1049  C1053   1.384   .     A
C1049  C1058   1.404   .     A
C1049  H1065   1.081   .     S
C1050  C1054   1.396   .     A
C1050  C1057   1.407   .     A
C1050  H1066   1.082   .     S
C1051  H1067   1.075   .     S
C1051  C1055   1.401   .     A
C1052  H1068   1.079   .     S
C1052  C1056   1.400   .     A
C1053  C1056   1.401   .     A
C1053  H1069   1.075   .     S
C1054  C1055   1.401   .     A
C1054  H1070   1.081   .     S
C1058  C211    1.477   1_556 S
Cu1061 O1079   1.967   .     S
Cu1061 N1075   2.049   .     S
Cu1061 O1081   1.961   .     S
Cu1061 O1077   1.970   .     S
Cu1061 Cu1062  2.727   .     S
Cu1061 O1083   1.961   .     S
Cu1062 O1080   1.967   .     S
Cu1062 O1084   1.961   .     S
Cu1062 O1078   1.970   .     S
Cu1062 O1082   1.961   .     S
Cu1062 N1076   2.049   .     S
C1085  C1090   1.407   .     A
C1085  C1086   1.403   .     A
C1086  C1087   1.398   .     A
C1086  H1091   1.071   .     S
C1087  C1088   1.396   .     A
C1087  H1092   1.082   .     S
C1088  C1089   1.396   .     A
C1088  H1093   1.082   .     S
C1089  C1090   1.398   .     A
C1089  H1094   1.082   .     S
C1090  H1095   1.083   .     S
C1096  C1101   1.408   .     A
C1096  C1097   1.399   .     A
C1097  H1102   1.060   .     S
C1097  C1098   1.397   .     A
C1098  H1103   1.082   .     S
C1098  C1099   1.394   .     A
C1099  C1100   1.394   .     A
C1099  H916    1.082   1_655 S
C1100  C1101   1.400   .     A
C1100  H917    1.080   1_655 S
C1101  H1106   1.083   .     S
C1107  C1108   1.401   .     A
C1107  C1112   1.407   .     A
C1108  C1109   1.398   .     A
C1108  H1113   1.068   .     S
C1109  H1114   1.082   .     S
C1109  C1110   1.396   .     A
C1110  C1111   1.396   .     A
C1110  H1115   1.082   .     S
C1111  C1112   1.399   .     A
C1111  H1116   1.082   .     S
C1112  H1117   1.083   .     S
C1118  C1119   1.401   .     A
C1118  C1123   1.412   .     A
C1119  H1124   1.059   .     S
C1119  C1120   1.398   .     A
C1120  H1125   1.082   .     S
C1120  C1121   1.395   .     A
C1121  C1122   1.394   .     A
C1122  C1123   1.399   .     A
C1122  H1315   1.080   .     S
C1123  H1410   1.083   .     S
H1126  C933    1.082   1_655 S
H1127  C1498   1.080   1_645 S
H1128  C1687   1.083   1_545 S
C1129  O1174   1.301   .     A
C1129  O1171   1.313   .     A
C1129  C1154   1.457   .     S
C1130  O1172   1.304   .     A
C1130  O1173   1.311   .     A
C1130  C1153   1.458   .     S
C1131  O1175   1.308   .     A
C1131  O1178   1.314   .     A
C1131  C1149   1.469   .     S
C1132  C1150   1.472   .     S
C1132  O1176   1.314   .     A
C1132  O1177   1.309   .     A
C1133  N1170   1.376   .     A
C1133  C1179   1.486   .     S
C1134  N1169   1.385   .     A
C1134  C1190   1.489   .     S
C1134  C1417   1.427   .     S
C1135  C1201   1.485   .     S
C1135  N1170   1.378   .     A
C1136  N1169   1.386   .     A
C1136  C1212   1.492   .     S
C1136  C1415   1.424   .     S
C1137  C1154   1.403   .     A
C1137  H1165   1.081   .     S
C1137  C1327   1.386   1_455 S
C1138  C1153   1.393   .     A
C1138  H1166   1.074   .     S
C1138  C1234   1.381   .     S
C1139  C1153   1.402   .     A
C1139  H1167   1.079   .     S
C1139  C1231   1.386   .     S
C1140  C1154   1.391   .     A
C1140  H1168   1.070   .     S
C1140  C1326   1.381   1_455 S
C1141  H1157   1.081   .     S
C1141  C1151   1.403   .     A
C1141  C1145   1.383   .     A
C1142  C1146   1.395   .     A
C1142  C1152   1.406   .     A
C1142  H1158   1.083   .     S
C1143  C1147   1.384   .     A
C1143  C1152   1.404   .     A
C1143  H1159   1.081   .     S
C1144  C1148   1.396   .     A
C1144  C1151   1.407   .     A
C1144  H1160   1.082   .     S
C1145  H1161   1.075   .     S
C1145  C1149   1.401   .     A
C1146  H1162   1.079   .     S
C1146  C1150   1.400   .     A
C1147  C1150   1.401   .     A
C1147  H1163   1.075   .     S
C1148  C1149   1.401   .     A
C1148  H1164   1.081   .     S
C1152  C305    1.477   1_556 S
Cu1155 O1173   1.967   .     S
Cu1155 N1169   2.049   .     S
Cu1155 O1175   1.961   .     S
Cu1155 O1171   1.970   .     S
Cu1155 Cu1156  2.727   .     S
Cu1155 O1177   1.961   .     S
Cu1156 O1174   1.967   .     S
Cu1156 O1178   1.961   .     S
Cu1156 O1172   1.970   .     S
Cu1156 O1176   1.961   .     S
Cu1156 N1170   2.049   .     S
C1179  C1184   1.407   .     A
C1179  C1180   1.403   .     A
C1180  C1181   1.398   .     A
C1180  H1185   1.071   .     S
C1181  C1182   1.396   .     A
C1181  H1186   1.082   .     S
C1182  C1183   1.396   .     A
C1182  H1187   1.082   .     S
C1183  C1184   1.398   .     A
C1183  H1188   1.082   .     S
C1184  H1189   1.083   .     S
C1190  C1195   1.408   .     A
C1190  C1191   1.399   .     A
C1191  H1196   1.060   .     S
C1191  C1192   1.397   .     A
C1192  H1197   1.082   .     S
C1192  C1193   1.394   .     A
C1193  C1194   1.394   .     A
C1193  H1292   1.082   .     S
C1194  C1195   1.400   .     A
C1194  H1293   1.080   .     S
C1195  H1200   1.083   .     S
H1198  C1381   1.082   1_455 S
H1199  C1382   1.080   1_455 S
C1201  C1202   1.401   .     A
C1201  C1206   1.407   .     A
C1202  C1203   1.398   .     A
C1202  H1207   1.068   .     S
C1203  H1208   1.082   .     S
C1203  C1204   1.396   .     A
C1204  C1205   1.396   .     A
C1204  H1209   1.082   .     S
C1205  C1206   1.399   .     A
C1205  H1210   1.082   .     S
C1206  H1211   1.083   .     S
C1212  C1213   1.401   .     A
C1212  C1217   1.412   .     A
C1213  H1218   1.059   .     S
C1213  C1214   1.398   .     A
C1214  H1219   1.082   .     S
C1214  C1215   1.395   .     A
C1215  C1216   1.394   .     A
C1215  H1408   1.082   1_455 S
C1216  C1217   1.399   .     A
C1216  H1691   1.080   1_455 S
C1217  H1504   1.083   .     S
H1220  C1309   1.082   .     S
C1223  O1268   1.301   .     A
C1223  O1265   1.313   .     A
C1223  C1248   1.457   .     S
C1224  O1266   1.304   .     A
C1224  O1267   1.311   .     A
C1224  C1247   1.458   .     S
C1225  O1269   1.308   .     A
C1225  O1272   1.314   .     A
C1225  C1243   1.469   .     S
C1226  C1244   1.472   .     S
C1226  O1270   1.314   .     A
C1226  O1271   1.309   .     A
C1227  N1264   1.376   .     A
C1227  C1273   1.486   .     S
C1228  N1263   1.385   .     A
C1228  C1284   1.489   .     S
C1228  C1511   1.427   .     S
C1229  C1295   1.485   .     S
C1229  N1264   1.378   .     A
C1230  N1263   1.386   .     A
C1230  C1306   1.492   .     S
C1230  C1509   1.424   .     S
C1231  C1248   1.403   .     A
C1231  H1259   1.081   .     S
C1232  C1247   1.393   .     A
C1232  H1260   1.074   .     S
C1232  C1328   1.381   .     S
C1233  C1247   1.402   .     A
C1233  H1261   1.079   .     S
C1233  C1325   1.386   .     S
C1234  C1248   1.391   .     A
C1234  H1262   1.070   .     S
C1235  H1251   1.081   .     S
C1235  C1245   1.403   .     A
C1235  C1239   1.383   .     A
C1236  C1240   1.395   .     A
C1236  C1246   1.406   .     A
C1236  H1252   1.083   .     S
C1237  C1241   1.384   .     A
C1237  C1246   1.404   .     A
C1237  H1253   1.081   .     S
C1238  C1242   1.396   .     A
C1238  C1245   1.407   .     A
C1238  H1254   1.082   .     S
C1239  H1255   1.075   .     S
C1239  C1243   1.401   .     A
C1240  H1256   1.079   .     S
C1240  C1244   1.400   .     A
C1241  C1244   1.401   .     A
C1241  H1257   1.075   .     S
C1242  C1243   1.401   .     A
C1242  H1258   1.081   .     S
C1246  C399    1.477   1_556 S
Cu1249 O1267   1.967   .     S
Cu1249 N1263   2.049   .     S
Cu1249 O1269   1.961   .     S
Cu1249 O1265   1.970   .     S
Cu1249 Cu1250  2.727   .     S
Cu1249 O1271   1.961   .     S
Cu1250 O1268   1.967   .     S
Cu1250 O1272   1.961   .     S
Cu1250 O1266   1.970   .     S
Cu1250 O1270   1.961   .     S
Cu1250 N1264   2.049   .     S
C1273  C1278   1.407   .     A
C1273  C1274   1.403   .     A
C1274  C1275   1.398   .     A
C1274  H1279   1.071   .     S
C1275  C1276   1.396   .     A
C1275  H1280   1.082   .     S
C1276  C1277   1.396   .     A
C1276  H1281   1.082   .     S
C1277  C1278   1.398   .     A
C1277  H1282   1.082   .     S
C1278  H1283   1.083   .     S
C1284  C1289   1.408   .     A
C1284  C1285   1.399   .     A
C1285  H1290   1.060   .     S
C1285  C1286   1.397   .     A
C1286  H1291   1.082   .     S
C1286  C1287   1.394   .     A
C1287  C1288   1.394   .     A
C1287  H1386   1.082   .     S
C1288  C1289   1.400   .     A
C1288  H1387   1.080   .     S
C1289  H1294   1.083   .     S
C1295  C1296   1.401   .     A
C1295  C1300   1.407   .     A
C1296  C1297   1.398   .     A
C1296  H1301   1.068   .     S
C1297  H1302   1.082   .     S
C1297  C1298   1.396   .     A
C1298  C1299   1.396   .     A
C1298  H1303   1.082   .     S
C1299  C1300   1.399   .     A
C1299  H1304   1.082   .     S
C1300  H1305   1.083   .     S
C1306  C1307   1.401   .     A
C1306  C1311   1.412   .     A
C1307  H1312   1.059   .     S
C1307  C1308   1.398   .     A
C1308  H1313   1.082   .     S
C1308  C1309   1.395   .     A
C1309  C1310   1.394   .     A
C1310  C1311   1.399   .     A
C1310  H1503   1.080   .     S
C1311  H1598   1.083   .     S
H1314  C1403   1.082   .     S
C1317  O1362   1.301   .     A
C1317  O1359   1.313   .     A
C1317  C1342   1.457   .     S
C1318  O1360   1.304   .     A
C1318  O1361   1.311   .     A
C1318  C1341   1.458   .     S
C1319  O1363   1.308   .     A
C1319  O1366   1.314   .     A
C1319  C1337   1.469   .     S
C1320  C1338   1.472   .     S
C1320  O1364   1.314   .     A
C1320  O1365   1.309   .     A
C1321  N1358   1.376   .     A
C1321  C1367   1.486   .     S
C1322  N1357   1.385   .     A
C1322  C1378   1.489   .     S
C1322  C1605   1.427   .     S
C1323  C1389   1.485   .     S
C1323  N1358   1.378   .     A
C1324  N1357   1.386   .     A
C1324  C1400   1.492   .     S
C1324  C1603   1.424   .     S
C1325  C1342   1.403   .     A
C1325  H1353   1.081   .     S
C1326  C1341   1.393   .     A
C1326  H1354   1.074   .     S
C1326  C1140   1.381   1_655 S
C1327  C1341   1.402   .     A
C1327  H1355   1.079   .     S
C1327  C1137   1.386   1_655 S
C1328  C1342   1.391   .     A
C1328  H1356   1.070   .     S
C1329  H1345   1.081   .     S
C1329  C1339   1.403   .     A
C1329  C1333   1.383   .     A
C1330  C1334   1.395   .     A
C1330  C1340   1.406   .     A
C1330  H1346   1.083   .     S
C1331  C1335   1.384   .     A
C1331  C1340   1.404   .     A
C1331  H1347   1.081   .     S
C1332  C1336   1.396   .     A
C1332  C1339   1.407   .     A
C1332  H1348   1.082   .     S
C1333  H1349   1.075   .     S
C1333  C1337   1.401   .     A
C1334  H1350   1.079   .     S
C1334  C1338   1.400   .     A
C1335  C1338   1.401   .     A
C1335  H1351   1.075   .     S
C1336  C1337   1.401   .     A
C1336  H1352   1.081   .     S
C1340  C493    1.477   1_556 S
Cu1343 O1361   1.967   .     S
Cu1343 N1357   2.049   .     S
Cu1343 O1363   1.961   .     S
Cu1343 O1359   1.970   .     S
Cu1343 Cu1344  2.727   .     S
Cu1343 O1365   1.961   .     S
Cu1344 O1362   1.967   .     S
Cu1344 O1366   1.961   .     S
Cu1344 O1360   1.970   .     S
Cu1344 O1364   1.961   .     S
Cu1344 N1358   2.049   .     S
C1367  C1372   1.407   .     A
C1367  C1368   1.403   .     A
C1368  C1369   1.398   .     A
C1368  H1373   1.071   .     S
C1369  C1370   1.396   .     A
C1369  H1374   1.082   .     S
C1370  C1371   1.396   .     A
C1370  H1375   1.082   .     S
C1371  C1372   1.398   .     A
C1371  H1376   1.082   .     S
C1372  H1377   1.083   .     S
C1378  C1383   1.408   .     A
C1378  C1379   1.399   .     A
C1379  H1384   1.060   .     S
C1379  C1380   1.397   .     A
C1380  H1385   1.082   .     S
C1380  C1381   1.394   .     A
C1381  C1382   1.394   .     A
C1381  H1198   1.082   1_655 S
C1382  C1383   1.400   .     A
C1382  H1199   1.080   1_655 S
C1383  H1388   1.083   .     S
C1389  C1390   1.401   .     A
C1389  C1394   1.407   .     A
C1390  C1391   1.398   .     A
C1390  H1395   1.068   .     S
C1391  H1396   1.082   .     S
C1391  C1392   1.396   .     A
C1392  C1393   1.396   .     A
C1392  H1397   1.082   .     S
C1393  C1394   1.399   .     A
C1393  H1398   1.082   .     S
C1394  H1399   1.083   .     S
C1400  C1401   1.401   .     A
C1400  C1405   1.412   .     A
C1401  H1406   1.059   .     S
C1401  C1402   1.398   .     A
C1402  H1407   1.082   .     S
C1402  C1403   1.395   .     A
C1403  C1404   1.394   .     A
C1404  C1405   1.399   .     A
C1404  H1597   1.080   .     S
C1405  H1692   1.083   .     S
H1408  C1215   1.082   1_655 S
H1409  C934    1.080   1_655 S
C1411  O1456   1.301   .     A
C1411  O1453   1.313   .     A
C1411  C1436   1.457   .     S
C1412  O1454   1.304   .     A
C1412  O1455   1.311   .     A
C1412  C1435   1.458   .     S
C1413  O1457   1.308   .     A
C1413  O1460   1.314   .     A
C1413  C1431   1.469   .     S
C1414  C1432   1.472   .     S
C1414  O1458   1.314   .     A
C1414  O1459   1.309   .     A
C1415  N1452   1.376   .     A
C1415  C1461   1.486   .     S
C1416  N1451   1.385   .     A
C1416  C1472   1.489   .     S
C1416  C853    1.427   1_565 S
C1417  C1483   1.485   .     S
C1417  N1452   1.378   .     A
C1418  N1451   1.386   .     A
C1418  C1494   1.492   .     S
C1418  C851    1.424   1_565 S
C1419  C1436   1.403   .     A
C1419  H1447   1.081   .     S
C1419  C1609   1.386   1_455 S
C1420  C1435   1.393   .     A
C1420  H1448   1.074   .     S
C1420  C1516   1.381   .     S
C1421  C1435   1.402   .     A
C1421  H1449   1.079   .     S
C1421  C1513   1.386   .     S
C1422  C1436   1.391   .     A
C1422  H1450   1.070   .     S
C1422  C1608   1.381   1_455 S
C1423  H1439   1.081   .     S
C1423  C1433   1.403   .     A
C1423  C1427   1.383   .     A
C1424  C1428   1.395   .     A
C1424  C1434   1.406   .     A
C1424  H1440   1.083   .     S
C1425  C1429   1.384   .     A
C1425  C1434   1.404   .     A
C1425  H1441   1.081   .     S
C1426  C1430   1.396   .     A
C1426  C1433   1.407   .     A
C1426  H1442   1.082   .     S
C1427  H1443   1.075   .     S
C1427  C1431   1.401   .     A
C1428  H1444   1.079   .     S
C1428  C1432   1.400   .     A
C1429  C1432   1.401   .     A
C1429  H1445   1.075   .     S
C1430  C1431   1.401   .     A
C1430  H1446   1.081   .     S
C1434  C587    1.477   1_556 S
Cu1437 O1455   1.967   .     S
Cu1437 N1451   2.049   .     S
Cu1437 O1457   1.961   .     S
Cu1437 O1453   1.970   .     S
Cu1437 Cu1438  2.727   .     S
Cu1437 O1459   1.961   .     S
Cu1438 O1456   1.967   .     S
Cu1438 O1460   1.961   .     S
Cu1438 O1454   1.970   .     S
Cu1438 O1458   1.961   .     S
Cu1438 N1452   2.049   .     S
C1461  C1466   1.407   .     A
C1461  C1462   1.403   .     A
C1462  C1463   1.398   .     A
C1462  H1467   1.071   .     S
C1463  C1464   1.396   .     A
C1463  H1468   1.082   .     S
C1464  C1465   1.396   .     A
C1464  H1469   1.082   .     S
C1465  C1466   1.398   .     A
C1465  H1470   1.082   .     S
C1466  H1471   1.083   .     S
C1472  C1477   1.408   .     A
C1472  C1473   1.399   .     A
C1473  H1478   1.060   .     S
C1473  C1474   1.397   .     A
C1474  H1479   1.082   .     S
C1474  C1475   1.394   .     A
C1475  C1476   1.394   .     A
C1475  H1574   1.082   .     S
C1476  C1477   1.400   .     A
C1476  H1575   1.080   .     S
C1477  H1482   1.083   .     S
H1480  C1663   1.082   1_455 S
H1481  C1664   1.080   1_455 S
C1483  C1484   1.401   .     A
C1483  C1488   1.407   .     A
C1484  C1485   1.398   .     A
C1484  H1489   1.068   .     S
C1485  H1490   1.082   .     S
C1485  C1486   1.396   .     A
C1486  C1487   1.396   .     A
C1486  H1491   1.082   .     S
C1487  C1488   1.399   .     A
C1487  H1492   1.082   .     S
C1488  H1493   1.083   .     S
C1494  C1495   1.401   .     A
C1494  C1499   1.412   .     A
C1495  H1500   1.059   .     S
C1495  C1496   1.398   .     A
C1496  H1501   1.082   .     S
C1496  C1497   1.395   .     A
C1497  C1498   1.394   .     A
C1497  H1690   1.082   1_455 S
C1498  C1499   1.399   .     A
C1498  H1127   1.080   1_465 S
C1499  H940    1.083   1_565 S
H1502  C1591   1.082   .     S
C1505  O1550   1.301   .     A
C1505  O1547   1.313   .     A
C1505  C1530   1.457   .     S
C1506  O1548   1.304   .     A
C1506  O1549   1.311   .     A
C1506  C1529   1.458   .     S
C1507  O1551   1.308   .     A
C1507  O1554   1.314   .     A
C1507  C1525   1.469   .     S
C1508  C1526   1.472   .     S
C1508  O1552   1.314   .     A
C1508  O1553   1.309   .     A
C1509  N1546   1.376   .     A
C1509  C1555   1.486   .     S
C1510  N1545   1.385   .     A
C1510  C1566   1.489   .     S
C1510  C947    1.427   1_565 S
C1511  C1577   1.485   .     S
C1511  N1546   1.378   .     A
C1512  N1545   1.386   .     A
C1512  C1588   1.492   .     S
C1512  C945    1.424   1_565 S
C1513  C1530   1.403   .     A
C1513  H1541   1.081   .     S
C1514  C1529   1.393   .     A
C1514  H1542   1.074   .     S
C1514  C1610   1.381   .     S
C1515  C1529   1.402   .     A
C1515  H1543   1.079   .     S
C1515  C1607   1.386   .     S
C1516  C1530   1.391   .     A
C1516  H1544   1.070   .     S
C1517  H1533   1.081   .     S
C1517  C1527   1.403   .     A
C1517  C1521   1.383   .     A
C1518  C1522   1.395   .     A
C1518  C1528   1.406   .     A
C1518  H1534   1.083   .     S
C1519  C1523   1.384   .     A
C1519  C1528   1.404   .     A
C1519  H1535   1.081   .     S
C1520  C1524   1.396   .     A
C1520  C1527   1.407   .     A
C1520  H1536   1.082   .     S
C1521  H1537   1.075   .     S
C1521  C1525   1.401   .     A
C1522  H1538   1.079   .     S
C1522  C1526   1.400   .     A
C1523  C1526   1.401   .     A
C1523  H1539   1.075   .     S
C1524  C1525   1.401   .     A
C1524  H1540   1.081   .     S
C1528  C681    1.477   1_556 S
Cu1531 O1549   1.967   .     S
Cu1531 N1545   2.049   .     S
Cu1531 O1551   1.961   .     S
Cu1531 O1547   1.970   .     S
Cu1531 Cu1532  2.727   .     S
Cu1531 O1553   1.961   .     S
Cu1532 O1550   1.967   .     S
Cu1532 O1554   1.961   .     S
Cu1532 O1548   1.970   .     S
Cu1532 O1552   1.961   .     S
Cu1532 N1546   2.049   .     S
C1555  C1560   1.407   .     A
C1555  C1556   1.403   .     A
C1556  C1557   1.398   .     A
C1556  H1561   1.071   .     S
C1557  C1558   1.396   .     A
C1557  H1562   1.082   .     S
C1558  C1559   1.396   .     A
C1558  H1563   1.082   .     S
C1559  C1560   1.398   .     A
C1559  H1564   1.082   .     S
C1560  H1565   1.083   .     S
C1566  C1571   1.408   .     A
C1566  C1567   1.399   .     A
C1567  H1572   1.060   .     S
C1567  C1568   1.397   .     A
C1568  H1573   1.082   .     S
C1568  C1569   1.394   .     A
C1569  C1570   1.394   .     A
C1569  H1668   1.082   .     S
C1570  C1571   1.400   .     A
C1570  H1669   1.080   .     S
C1571  H1576   1.083   .     S
C1577  C1578   1.401   .     A
C1577  C1582   1.407   .     A
C1578  C1579   1.398   .     A
C1578  H1583   1.068   .     S
C1579  H1584   1.082   .     S
C1579  C1580   1.396   .     A
C1580  C1581   1.396   .     A
C1580  H1585   1.082   .     S
C1581  C1582   1.399   .     A
C1581  H1586   1.082   .     S
C1582  H1587   1.083   .     S
C1588  C1589   1.401   .     A
C1588  C1593   1.412   .     A
C1589  H1594   1.059   .     S
C1589  C1590   1.398   .     A
C1590  H1595   1.082   .     S
C1590  C1591   1.395   .     A
C1591  C1592   1.394   .     A
C1592  C1593   1.399   .     A
C1592  H939    1.080   1_565 S
C1593  H1034   1.083   1_565 S
H1596  C1685   1.082   .     S
C1599  O1644   1.301   .     A
C1599  O1641   1.313   .     A
C1599  C1624   1.457   .     S
C1600  O1642   1.304   .     A
C1600  O1643   1.311   .     A
C1600  C1623   1.458   .     S
C1601  O1645   1.308   .     A
C1601  O1648   1.314   .     A
C1601  C1619   1.469   .     S
C1602  C1620   1.472   .     S
C1602  O1646   1.314   .     A
C1602  O1647   1.309   .     A
C1603  N1640   1.376   .     A
C1603  C1649   1.486   .     S
C1604  N1639   1.385   .     A
C1604  C1660   1.489   .     S
C1604  C1041   1.427   1_565 S
C1605  C1671   1.485   .     S
C1605  N1640   1.378   .     A
C1606  N1639   1.386   .     A
C1606  C1682   1.492   .     S
C1606  C1039   1.424   1_565 S
C1607  C1624   1.403   .     A
C1607  H1635   1.081   .     S
C1608  C1623   1.393   .     A
C1608  H1636   1.074   .     S
C1608  C1422   1.381   1_655 S
C1609  C1623   1.402   .     A
C1609  H1637   1.079   .     S
C1609  C1419   1.386   1_655 S
C1610  C1624   1.391   .     A
C1610  H1638   1.070   .     S
C1611  H1627   1.081   .     S
C1611  C1621   1.403   .     A
C1611  C1615   1.383   .     A
C1612  C1616   1.395   .     A
C1612  C1622   1.406   .     A
C1612  H1628   1.083   .     S
C1613  C1617   1.384   .     A
C1613  C1622   1.404   .     A
C1613  H1629   1.081   .     S
C1614  C1618   1.396   .     A
C1614  C1621   1.407   .     A
C1614  H1630   1.082   .     S
C1615  H1631   1.075   .     S
C1615  C1619   1.401   .     A
C1616  H1632   1.079   .     S
C1616  C1620   1.400   .     A
C1617  C1620   1.401   .     A
C1617  H1633   1.075   .     S
C1618  C1619   1.401   .     A
C1618  H1634   1.081   .     S
C1622  C775    1.477   1_556 S
Cu1625 O1643   1.967   .     S
Cu1625 N1639   2.049   .     S
Cu1625 O1645   1.961   .     S
Cu1625 O1641   1.970   .     S
Cu1625 Cu1626  2.727   .     S
Cu1625 O1647   1.961   .     S
Cu1626 O1644   1.967   .     S
Cu1626 O1648   1.961   .     S
Cu1626 O1642   1.970   .     S
Cu1626 O1646   1.961   .     S
Cu1626 N1640   2.049   .     S
C1649  C1654   1.407   .     A
C1649  C1650   1.403   .     A
C1650  C1651   1.398   .     A
C1650  H1655   1.071   .     S
C1651  C1652   1.396   .     A
C1651  H1656   1.082   .     S
C1652  C1653   1.396   .     A
C1652  H1657   1.082   .     S
C1653  C1654   1.398   .     A
C1653  H1658   1.082   .     S
C1654  H1659   1.083   .     S
C1660  C1665   1.408   .     A
C1660  C1661   1.399   .     A
C1661  H1666   1.060   .     S
C1661  C1662   1.397   .     A
C1662  H1667   1.082   .     S
C1662  C1663   1.394   .     A
C1663  C1664   1.394   .     A
C1663  H1480   1.082   1_655 S
C1664  C1665   1.400   .     A
C1664  H1481   1.080   1_655 S
C1665  H1670   1.083   .     S
C1671  C1672   1.401   .     A
C1671  C1676   1.407   .     A
C1672  C1673   1.398   .     A
C1672  H1677   1.068   .     S
C1673  H1678   1.082   .     S
C1673  C1674   1.396   .     A
C1674  C1675   1.396   .     A
C1674  H1679   1.082   .     S
C1675  C1676   1.399   .     A
C1675  H1680   1.082   .     S
C1676  H1681   1.083   .     S
C1682  C1683   1.401   .     A
C1682  C1687   1.412   .     A
C1683  H1688   1.059   .     S
C1683  C1684   1.398   .     A
C1684  H1689   1.082   .     S
C1684  C1685   1.395   .     A
C1685  C1686   1.394   .     A
C1686  C1687   1.399   .     A
C1686  H1033   1.080   1_565 S
C1687  H1128   1.083   1_565 S
H1690  C1497   1.082   1_655 S
H1691  C1216   1.080   1_655 S
