data_str_m2_o1_o10_pcu_sym.94
_audit_creation_date              2020-01-03
_audit_creation_method            'Materials Studio'
_symmetry_space_group_name_H-M    'P1'
_symmetry_Int_Tables_number       1
_symmetry_cell_setting            triclinic
loop_
_symmetry_equiv_pos_as_xyz
  x,y,z
_cell_length_a                    26.2649
_cell_length_b                    32.3486
_cell_length_c                    28.6956
_cell_angle_alpha                 89.1689
_cell_angle_beta                  97.0500
_cell_angle_gamma                 90.8963
loop_
_atom_site_label
_atom_site_type_symbol
_atom_site_fract_x
_atom_site_fract_y
_atom_site_fract_z
_atom_site_U_iso_or_equiv
_atom_site_adp_type
_atom_site_occupancy
C1     C     0.16695   0.08753   0.16700   0.00000  Uiso   1.00
C2     C     0.20363   0.02119   0.19779   0.00000  Uiso   1.00
C3     C     0.16676   0.29044   0.16583   0.00000  Uiso   1.00
C4     C     0.16662   0.04289   0.16753   0.00000  Uiso   1.00
C5     C     0.13592   0.13995   0.02221   0.00000  Uiso   1.00
C6     C     0.19730   0.19347   0.31112   0.00000  Uiso   1.00
C7     C     0.13574   0.13973   0.30615   0.00000  Uiso   1.00
C8     C     0.19752   0.19366   0.02719   0.00000  Uiso   1.00
C9     C     0.32637   0.12650   0.11598   0.00000  Uiso   1.00
C10    C     0.00650   0.20738   0.21716   0.00000  Uiso   1.00
C11    C     0.10148   0.10952   0.27997   0.00000  Uiso   1.00
C12    C     0.16643   0.24580   0.16634   0.00000  Uiso   1.00
C13    C     0.23116   0.22429   0.05334   0.00000  Uiso   1.00
C14    C     0.06821   0.16570   0.15502   0.00000  Uiso   1.00
C15    C     0.26512   0.16776   0.17830   0.00000  Uiso   1.00
C16    C     0.01370   0.15867   0.15046   0.00000  Uiso   1.00
C17    C     0.31954   0.17506   0.18270   0.00000  Uiso   1.00
C18    C     0.12965   0.02187   0.13670   0.00000  Uiso   1.00
C19    C     0.20372   0.31145   0.19667   0.00000  Uiso   1.00
C20    C     0.12964   0.31212   0.13570   0.00000  Uiso   1.00
Cu21   Cu    0.16667   0.16667   0.21355   0.00000  Uiso   1.00
Cu22   Cu    0.16667   0.16666   0.11978   0.00000  Uiso   1.00
H23    H     0.11138   0.11864   0.03891   0.00000  Uiso   1.00
H24    H     0.10803   0.27527   0.07978   0.00000  Uiso   1.00
H25    H     0.26156   0.06365   0.20961   0.00000  Uiso   1.00
H26    H     0.22455   0.05781   0.25404   0.00000  Uiso   1.00
H27    H     0.03052   0.09636   0.24795   0.00000  Uiso   1.00
H28    H     0.24081   0.28322   0.07502   0.00000  Uiso   1.00
H29    H     0.22169   0.21490   0.29441   0.00000  Uiso   1.00
H30    H     0.28328   0.07471   0.10327   0.00000  Uiso   1.00
H31    H     0.00727   0.23047   0.28221   0.00000  Uiso   1.00
H32    H     0.05519   0.03512   0.11527   0.00000  Uiso   1.00
H33    H     0.09404   0.03724   0.07224   0.00000  Uiso   1.00
H34    H     0.27818   0.29831   0.21823   0.00000  Uiso   1.00
H35    H     0.23921   0.29595   0.26115   0.00000  Uiso   1.00
H36    H     0.07148   0.26982   0.12462   0.00000  Uiso   1.00
N37    N     0.16668   0.16668   0.28403   0.00000  Uiso   1.00
N38    N     0.16665   0.16666   0.04931   0.00000  Uiso   1.00
N39    N     0.09138   0.04459   0.10721   0.00000  Uiso   1.00
N40    N     0.24199   0.28872   0.22616   0.00000  Uiso   1.00
N41    N     0.09066   0.29109   0.10496   0.00000  Uiso   1.00
N42    N     0.24227   0.04220   0.22893   0.00000  Uiso   1.00
O43    O     0.16666   0.10655   0.20625   0.00000  Uiso   1.00
O44    O     0.29454   0.09463   0.12963   0.00000  Uiso   1.00
O45    O     0.03459   0.23520   0.20552   0.00000  Uiso   1.00
O46    O     0.32504   0.20673   0.26234   0.00000  Uiso   1.00
O47    O     0.11623   0.07433   0.27529   0.00000  Uiso   1.00
O48    O     0.05073   0.11995   0.26460   0.00000  Uiso   1.00
O49    O     0.27517   0.21530   0.06847   0.00000  Uiso   1.00
O50    O     0.21404   0.26466   0.05702   0.00000  Uiso   1.00
O51    O     0.16667   0.22678   0.12709   0.00000  Uiso   1.00
O52    O     0.16666   0.10654   0.12706   0.00000  Uiso   1.00
O53    O     0.16667   0.22679   0.20628   0.00000  Uiso   1.00
O54    O     0.09161   0.16667   0.19712   0.00000  Uiso   1.00
O55    O     0.24172   0.16666   0.13621   0.00000  Uiso   1.00
O56    O     0.09161   0.16666   0.11793   0.00000  Uiso   1.00
O57    O     0.24172   0.16667   0.21540   0.00000  Uiso   1.00
O58    O     0.00510   0.12732   0.07613   0.00000  Uiso   1.00
C59    C     0.50028   0.08753   0.16700   0.00000  Uiso   1.00
C60    C     0.53697   0.02119   0.19779   0.00000  Uiso   1.00
C61    C     0.50009   0.29044   0.16583   0.00000  Uiso   1.00
C62    C     0.49996   0.04289   0.16753   0.00000  Uiso   1.00
C63    C     0.46925   0.13995   0.02221   0.00000  Uiso   1.00
C64    C     0.53063   0.19347   0.31112   0.00000  Uiso   1.00
C65    C     0.46907   0.13973   0.30615   0.00000  Uiso   1.00
C66    C     0.53085   0.19366   0.02719   0.00000  Uiso   1.00
C67    C     0.65970   0.12650   0.11598   0.00000  Uiso   1.00
C68    C     0.33984   0.20738   0.21716   0.00000  Uiso   1.00
C69    C     0.43481   0.10952   0.27997   0.00000  Uiso   1.00
C70    C     0.49976   0.24580   0.16634   0.00000  Uiso   1.00
C71    C     0.56449   0.22429   0.05334   0.00000  Uiso   1.00
C72    C     0.40154   0.16570   0.15502   0.00000  Uiso   1.00
C73    C     0.59845   0.16776   0.17830   0.00000  Uiso   1.00
C74    C     0.34704   0.15867   0.15046   0.00000  Uiso   1.00
C75    C     0.65287   0.17506   0.18270   0.00000  Uiso   1.00
C76    C     0.46299   0.02187   0.13670   0.00000  Uiso   1.00
C77    C     0.53705   0.31145   0.19667   0.00000  Uiso   1.00
C78    C     0.46297   0.31212   0.13570   0.00000  Uiso   1.00
Cu79   Cu    0.50000   0.16667   0.21355   0.00000  Uiso   1.00
Cu80   Cu    0.50000   0.16666   0.11978   0.00000  Uiso   1.00
H81    H     0.44471   0.11864   0.03891   0.00000  Uiso   1.00
H82    H     0.44136   0.27527   0.07978   0.00000  Uiso   1.00
H83    H     0.59489   0.06365   0.20961   0.00000  Uiso   1.00
H84    H     0.55788   0.05781   0.25404   0.00000  Uiso   1.00
H85    H     0.36385   0.09636   0.24795   0.00000  Uiso   1.00
H86    H     0.57414   0.28322   0.07502   0.00000  Uiso   1.00
H87    H     0.55502   0.21490   0.29441   0.00000  Uiso   1.00
H88    H     0.61661   0.07471   0.10327   0.00000  Uiso   1.00
H89    H     0.34061   0.23047   0.28221   0.00000  Uiso   1.00
H90    H     0.38853   0.03512   0.11527   0.00000  Uiso   1.00
H91    H     0.42737   0.03724   0.07224   0.00000  Uiso   1.00
H92    H     0.61151   0.29831   0.21823   0.00000  Uiso   1.00
H93    H     0.57254   0.29595   0.26115   0.00000  Uiso   1.00
H94    H     0.40482   0.26982   0.12462   0.00000  Uiso   1.00
N95    N     0.50001   0.16668   0.28403   0.00000  Uiso   1.00
N96    N     0.49999   0.16666   0.04931   0.00000  Uiso   1.00
N97    N     0.42471   0.04459   0.10721   0.00000  Uiso   1.00
N98    N     0.57532   0.28872   0.22616   0.00000  Uiso   1.00
N99    N     0.42399   0.29109   0.10496   0.00000  Uiso   1.00
N100   N     0.57560   0.04220   0.22893   0.00000  Uiso   1.00
O101   O     0.50000   0.10655   0.20625   0.00000  Uiso   1.00
O102   O     0.62787   0.09463   0.12963   0.00000  Uiso   1.00
O103   O     0.36793   0.23520   0.20552   0.00000  Uiso   1.00
O104   O     0.65837   0.20673   0.26234   0.00000  Uiso   1.00
O105   O     0.44957   0.07433   0.27529   0.00000  Uiso   1.00
O106   O     0.38407   0.11995   0.26460   0.00000  Uiso   1.00
O107   O     0.60850   0.21530   0.06847   0.00000  Uiso   1.00
O108   O     0.54737   0.26466   0.05702   0.00000  Uiso   1.00
O109   O     0.50000   0.22678   0.12709   0.00000  Uiso   1.00
O110   O     0.50000   0.10654   0.12706   0.00000  Uiso   1.00
O111   O     0.50000   0.22679   0.20628   0.00000  Uiso   1.00
O112   O     0.42495   0.16667   0.19712   0.00000  Uiso   1.00
O113   O     0.57505   0.16666   0.13621   0.00000  Uiso   1.00
O114   O     0.42494   0.16666   0.11793   0.00000  Uiso   1.00
O115   O     0.57506   0.16667   0.21540   0.00000  Uiso   1.00
O116   O     0.33843   0.12732   0.07613   0.00000  Uiso   1.00
C117   C     0.83361   0.08753   0.16700   0.00000  Uiso   1.00
C118   C     0.87030   0.02119   0.19779   0.00000  Uiso   1.00
C119   C     0.83342   0.29044   0.16583   0.00000  Uiso   1.00
C120   C     0.83329   0.04289   0.16753   0.00000  Uiso   1.00
C121   C     0.80259   0.13995   0.02221   0.00000  Uiso   1.00
C122   C     0.86397   0.19347   0.31112   0.00000  Uiso   1.00
C123   C     0.80240   0.13973   0.30615   0.00000  Uiso   1.00
C124   C     0.86419   0.19366   0.02719   0.00000  Uiso   1.00
C125   C     0.99303   0.12650   0.11598   0.00000  Uiso   1.00
C126   C     0.67317   0.20738   0.21716   0.00000  Uiso   1.00
C127   C     0.76815   0.10952   0.27997   0.00000  Uiso   1.00
C128   C     0.83309   0.24580   0.16634   0.00000  Uiso   1.00
C129   C     0.89782   0.22429   0.05334   0.00000  Uiso   1.00
C130   C     0.73488   0.16570   0.15502   0.00000  Uiso   1.00
C131   C     0.93178   0.16776   0.17830   0.00000  Uiso   1.00
C132   C     0.68037   0.15867   0.15046   0.00000  Uiso   1.00
C133   C     0.98621   0.17506   0.18270   0.00000  Uiso   1.00
C134   C     0.79632   0.02187   0.13670   0.00000  Uiso   1.00
C135   C     0.87038   0.31145   0.19667   0.00000  Uiso   1.00
C136   C     0.79630   0.31212   0.13570   0.00000  Uiso   1.00
Cu137  Cu    0.83333   0.16667   0.21355   0.00000  Uiso   1.00
Cu138  Cu    0.83333   0.16666   0.11978   0.00000  Uiso   1.00
H139   H     0.77805   0.11864   0.03891   0.00000  Uiso   1.00
H140   H     0.77470   0.27527   0.07978   0.00000  Uiso   1.00
H141   H     0.92822   0.06365   0.20961   0.00000  Uiso   1.00
H142   H     0.89121   0.05781   0.25404   0.00000  Uiso   1.00
H143   H     0.69719   0.09636   0.24795   0.00000  Uiso   1.00
H144   H     0.90747   0.28322   0.07502   0.00000  Uiso   1.00
H145   H     0.88836   0.21490   0.29441   0.00000  Uiso   1.00
H146   H     0.94995   0.07471   0.10327   0.00000  Uiso   1.00
H147   H     0.67394   0.23047   0.28221   0.00000  Uiso   1.00
H148   H     0.72186   0.03512   0.11527   0.00000  Uiso   1.00
H149   H     0.76071   0.03724   0.07224   0.00000  Uiso   1.00
H150   H     0.94484   0.29831   0.21823   0.00000  Uiso   1.00
H151   H     0.90587   0.29595   0.26115   0.00000  Uiso   1.00
H152   H     0.73815   0.26982   0.12462   0.00000  Uiso   1.00
N153   N     0.83335   0.16668   0.28403   0.00000  Uiso   1.00
N154   N     0.83332   0.16666   0.04931   0.00000  Uiso   1.00
N155   N     0.75805   0.04459   0.10721   0.00000  Uiso   1.00
N156   N     0.90866   0.28872   0.22616   0.00000  Uiso   1.00
N157   N     0.75732   0.29109   0.10496   0.00000  Uiso   1.00
N158   N     0.90894   0.04220   0.22893   0.00000  Uiso   1.00
O159   O     0.83333   0.10655   0.20625   0.00000  Uiso   1.00
O160   O     0.96121   0.09463   0.12963   0.00000  Uiso   1.00
O161   O     0.70126   0.23520   0.20552   0.00000  Uiso   1.00
O162   O     0.99170   0.20673   0.26234   0.00000  Uiso   1.00
O163   O     0.78290   0.07433   0.27529   0.00000  Uiso   1.00
O164   O     0.71740   0.11995   0.26460   0.00000  Uiso   1.00
O165   O     0.94183   0.21530   0.06847   0.00000  Uiso   1.00
O166   O     0.88071   0.26466   0.05702   0.00000  Uiso   1.00
O167   O     0.83334   0.22678   0.12709   0.00000  Uiso   1.00
O168   O     0.83333   0.10654   0.12706   0.00000  Uiso   1.00
O169   O     0.83334   0.22679   0.20628   0.00000  Uiso   1.00
O170   O     0.75828   0.16667   0.19712   0.00000  Uiso   1.00
O171   O     0.90839   0.16666   0.13621   0.00000  Uiso   1.00
O172   O     0.75828   0.16666   0.11793   0.00000  Uiso   1.00
O173   O     0.90839   0.16667   0.21540   0.00000  Uiso   1.00
O174   O     0.67177   0.12732   0.07613   0.00000  Uiso   1.00
C175   C     0.16695   0.42086   0.16700   0.00000  Uiso   1.00
C176   C     0.20363   0.35453   0.19779   0.00000  Uiso   1.00
C177   C     0.16676   0.62377   0.16583   0.00000  Uiso   1.00
C178   C     0.16662   0.37622   0.16753   0.00000  Uiso   1.00
C179   C     0.13592   0.47329   0.02221   0.00000  Uiso   1.00
C180   C     0.19730   0.52680   0.31112   0.00000  Uiso   1.00
C181   C     0.13574   0.47306   0.30615   0.00000  Uiso   1.00
C182   C     0.19752   0.52700   0.02719   0.00000  Uiso   1.00
C183   C     0.32637   0.45983   0.11598   0.00000  Uiso   1.00
C184   C     0.00650   0.54072   0.21716   0.00000  Uiso   1.00
C185   C     0.10148   0.44285   0.27997   0.00000  Uiso   1.00
C186   C     0.16643   0.57913   0.16634   0.00000  Uiso   1.00
C187   C     0.23116   0.55762   0.05334   0.00000  Uiso   1.00
C188   C     0.06821   0.49904   0.15502   0.00000  Uiso   1.00
C189   C     0.26512   0.50109   0.17830   0.00000  Uiso   1.00
C190   C     0.01370   0.49200   0.15046   0.00000  Uiso   1.00
C191   C     0.31954   0.50840   0.18270   0.00000  Uiso   1.00
C192   C     0.12965   0.35520   0.13670   0.00000  Uiso   1.00
C193   C     0.20372   0.64478   0.19667   0.00000  Uiso   1.00
C194   C     0.12964   0.64546   0.13570   0.00000  Uiso   1.00
Cu195  Cu    0.16667   0.50001   0.21355   0.00000  Uiso   1.00
Cu196  Cu    0.16667   0.49999   0.11978   0.00000  Uiso   1.00
H197   H     0.11138   0.45197   0.03891   0.00000  Uiso   1.00
H198   H     0.10803   0.60860   0.07978   0.00000  Uiso   1.00
H199   H     0.26156   0.39698   0.20961   0.00000  Uiso   1.00
H200   H     0.22455   0.39114   0.25404   0.00000  Uiso   1.00
H201   H     0.03052   0.42969   0.24795   0.00000  Uiso   1.00
H202   H     0.24081   0.61655   0.07502   0.00000  Uiso   1.00
H203   H     0.22169   0.54823   0.29441   0.00000  Uiso   1.00
H204   H     0.28328   0.40805   0.10327   0.00000  Uiso   1.00
H205   H     0.00727   0.56380   0.28221   0.00000  Uiso   1.00
H206   H     0.05519   0.36845   0.11527   0.00000  Uiso   1.00
H207   H     0.09404   0.37057   0.07224   0.00000  Uiso   1.00
H208   H     0.27818   0.63164   0.21823   0.00000  Uiso   1.00
H209   H     0.23921   0.62928   0.26115   0.00000  Uiso   1.00
H210   H     0.07148   0.60315   0.12462   0.00000  Uiso   1.00
N211   N     0.16668   0.50001   0.28403   0.00000  Uiso   1.00
N212   N     0.16665   0.49999   0.04931   0.00000  Uiso   1.00
N213   N     0.09138   0.37793   0.10721   0.00000  Uiso   1.00
N214   N     0.24199   0.62205   0.22616   0.00000  Uiso   1.00
N215   N     0.09066   0.62442   0.10496   0.00000  Uiso   1.00
N216   N     0.24227   0.37553   0.22893   0.00000  Uiso   1.00
O217   O     0.16666   0.43989   0.20625   0.00000  Uiso   1.00
O218   O     0.29454   0.42796   0.12963   0.00000  Uiso   1.00
O219   O     0.03459   0.56854   0.20552   0.00000  Uiso   1.00
O220   O     0.32504   0.54006   0.26234   0.00000  Uiso   1.00
O221   O     0.11623   0.40767   0.27529   0.00000  Uiso   1.00
O222   O     0.05073   0.45328   0.26460   0.00000  Uiso   1.00
O223   O     0.27517   0.54864   0.06847   0.00000  Uiso   1.00
O224   O     0.21404   0.59799   0.05702   0.00000  Uiso   1.00
O225   O     0.16667   0.56011   0.12709   0.00000  Uiso   1.00
O226   O     0.16666   0.43988   0.12706   0.00000  Uiso   1.00
O227   O     0.16667   0.56012   0.20628   0.00000  Uiso   1.00
O228   O     0.09161   0.50000   0.19712   0.00000  Uiso   1.00
O229   O     0.24172   0.50000   0.13621   0.00000  Uiso   1.00
O230   O     0.09161   0.49999   0.11793   0.00000  Uiso   1.00
O231   O     0.24172   0.50001   0.21540   0.00000  Uiso   1.00
O232   O     0.00510   0.46066   0.07613   0.00000  Uiso   1.00
C233   C     0.50028   0.42086   0.16700   0.00000  Uiso   1.00
C234   C     0.53697   0.35453   0.19779   0.00000  Uiso   1.00
C235   C     0.50009   0.62377   0.16583   0.00000  Uiso   1.00
C236   C     0.49996   0.37622   0.16753   0.00000  Uiso   1.00
C237   C     0.46925   0.47329   0.02221   0.00000  Uiso   1.00
C238   C     0.53063   0.52680   0.31112   0.00000  Uiso   1.00
C239   C     0.46907   0.47306   0.30615   0.00000  Uiso   1.00
C240   C     0.53085   0.52700   0.02719   0.00000  Uiso   1.00
C241   C     0.65970   0.45983   0.11598   0.00000  Uiso   1.00
C242   C     0.33984   0.54072   0.21716   0.00000  Uiso   1.00
C243   C     0.43481   0.44285   0.27997   0.00000  Uiso   1.00
C244   C     0.49976   0.57913   0.16634   0.00000  Uiso   1.00
C245   C     0.56449   0.55762   0.05334   0.00000  Uiso   1.00
C246   C     0.40154   0.49904   0.15502   0.00000  Uiso   1.00
C247   C     0.59845   0.50109   0.17830   0.00000  Uiso   1.00
C248   C     0.34704   0.49200   0.15046   0.00000  Uiso   1.00
C249   C     0.65287   0.50840   0.18270   0.00000  Uiso   1.00
C250   C     0.46299   0.35520   0.13670   0.00000  Uiso   1.00
C251   C     0.53705   0.64478   0.19667   0.00000  Uiso   1.00
C252   C     0.46297   0.64546   0.13570   0.00000  Uiso   1.00
Cu253  Cu    0.50000   0.50001   0.21355   0.00000  Uiso   1.00
Cu254  Cu    0.50000   0.49999   0.11978   0.00000  Uiso   1.00
H255   H     0.44471   0.45197   0.03891   0.00000  Uiso   1.00
H256   H     0.44136   0.60860   0.07978   0.00000  Uiso   1.00
H257   H     0.59489   0.39698   0.20961   0.00000  Uiso   1.00
H258   H     0.55788   0.39114   0.25404   0.00000  Uiso   1.00
H259   H     0.36385   0.42969   0.24795   0.00000  Uiso   1.00
H260   H     0.57414   0.61655   0.07502   0.00000  Uiso   1.00
H261   H     0.55502   0.54823   0.29441   0.00000  Uiso   1.00
H262   H     0.61661   0.40805   0.10327   0.00000  Uiso   1.00
H263   H     0.34061   0.56380   0.28221   0.00000  Uiso   1.00
H264   H     0.38853   0.36845   0.11527   0.00000  Uiso   1.00
H265   H     0.42737   0.37057   0.07224   0.00000  Uiso   1.00
H266   H     0.61151   0.63164   0.21823   0.00000  Uiso   1.00
H267   H     0.57254   0.62928   0.26115   0.00000  Uiso   1.00
H268   H     0.40482   0.60315   0.12462   0.00000  Uiso   1.00
N269   N     0.50001   0.50001   0.28403   0.00000  Uiso   1.00
N270   N     0.49999   0.49999   0.04931   0.00000  Uiso   1.00
N271   N     0.42471   0.37793   0.10721   0.00000  Uiso   1.00
N272   N     0.57532   0.62205   0.22616   0.00000  Uiso   1.00
N273   N     0.42399   0.62442   0.10496   0.00000  Uiso   1.00
N274   N     0.57560   0.37553   0.22893   0.00000  Uiso   1.00
O275   O     0.50000   0.43989   0.20625   0.00000  Uiso   1.00
O276   O     0.62787   0.42796   0.12963   0.00000  Uiso   1.00
O277   O     0.36793   0.56854   0.20552   0.00000  Uiso   1.00
O278   O     0.65837   0.54006   0.26234   0.00000  Uiso   1.00
O279   O     0.44957   0.40767   0.27529   0.00000  Uiso   1.00
O280   O     0.38407   0.45328   0.26460   0.00000  Uiso   1.00
O281   O     0.60850   0.54864   0.06847   0.00000  Uiso   1.00
O282   O     0.54737   0.59799   0.05702   0.00000  Uiso   1.00
O283   O     0.50000   0.56011   0.12709   0.00000  Uiso   1.00
O284   O     0.50000   0.43988   0.12706   0.00000  Uiso   1.00
O285   O     0.50000   0.56012   0.20628   0.00000  Uiso   1.00
O286   O     0.42495   0.50000   0.19712   0.00000  Uiso   1.00
O287   O     0.57505   0.50000   0.13621   0.00000  Uiso   1.00
O288   O     0.42494   0.49999   0.11793   0.00000  Uiso   1.00
O289   O     0.57506   0.50001   0.21540   0.00000  Uiso   1.00
O290   O     0.33843   0.46066   0.07613   0.00000  Uiso   1.00
C291   C     0.83361   0.42086   0.16700   0.00000  Uiso   1.00
C292   C     0.87030   0.35453   0.19779   0.00000  Uiso   1.00
C293   C     0.83342   0.62377   0.16583   0.00000  Uiso   1.00
C294   C     0.83329   0.37622   0.16753   0.00000  Uiso   1.00
C295   C     0.80259   0.47329   0.02221   0.00000  Uiso   1.00
C296   C     0.86397   0.52680   0.31112   0.00000  Uiso   1.00
C297   C     0.80240   0.47306   0.30615   0.00000  Uiso   1.00
C298   C     0.86419   0.52700   0.02719   0.00000  Uiso   1.00
C299   C     0.99303   0.45983   0.11598   0.00000  Uiso   1.00
C300   C     0.67317   0.54072   0.21716   0.00000  Uiso   1.00
C301   C     0.76815   0.44285   0.27997   0.00000  Uiso   1.00
C302   C     0.83309   0.57913   0.16634   0.00000  Uiso   1.00
C303   C     0.89782   0.55762   0.05334   0.00000  Uiso   1.00
C304   C     0.73488   0.49904   0.15502   0.00000  Uiso   1.00
C305   C     0.93178   0.50109   0.17830   0.00000  Uiso   1.00
C306   C     0.68037   0.49200   0.15046   0.00000  Uiso   1.00
C307   C     0.98621   0.50840   0.18270   0.00000  Uiso   1.00
C308   C     0.79632   0.35520   0.13670   0.00000  Uiso   1.00
C309   C     0.87038   0.64478   0.19667   0.00000  Uiso   1.00
C310   C     0.79630   0.64546   0.13570   0.00000  Uiso   1.00
Cu311  Cu    0.83333   0.50001   0.21355   0.00000  Uiso   1.00
Cu312  Cu    0.83333   0.49999   0.11978   0.00000  Uiso   1.00
H313   H     0.77805   0.45197   0.03891   0.00000  Uiso   1.00
H314   H     0.77470   0.60860   0.07978   0.00000  Uiso   1.00
H315   H     0.92822   0.39698   0.20961   0.00000  Uiso   1.00
H316   H     0.89121   0.39114   0.25404   0.00000  Uiso   1.00
H317   H     0.69719   0.42969   0.24795   0.00000  Uiso   1.00
H318   H     0.90747   0.61655   0.07502   0.00000  Uiso   1.00
H319   H     0.88836   0.54823   0.29441   0.00000  Uiso   1.00
H320   H     0.94995   0.40805   0.10327   0.00000  Uiso   1.00
H321   H     0.67394   0.56380   0.28221   0.00000  Uiso   1.00
H322   H     0.72186   0.36845   0.11527   0.00000  Uiso   1.00
H323   H     0.76071   0.37057   0.07224   0.00000  Uiso   1.00
H324   H     0.94484   0.63164   0.21823   0.00000  Uiso   1.00
H325   H     0.90587   0.62928   0.26115   0.00000  Uiso   1.00
H326   H     0.73815   0.60315   0.12462   0.00000  Uiso   1.00
N327   N     0.83335   0.50001   0.28403   0.00000  Uiso   1.00
N328   N     0.83332   0.49999   0.04931   0.00000  Uiso   1.00
N329   N     0.75805   0.37793   0.10721   0.00000  Uiso   1.00
N330   N     0.90866   0.62205   0.22616   0.00000  Uiso   1.00
N331   N     0.75732   0.62442   0.10496   0.00000  Uiso   1.00
N332   N     0.90894   0.37553   0.22893   0.00000  Uiso   1.00
O333   O     0.83333   0.43989   0.20625   0.00000  Uiso   1.00
O334   O     0.96121   0.42796   0.12963   0.00000  Uiso   1.00
O335   O     0.70126   0.56854   0.20552   0.00000  Uiso   1.00
O336   O     0.99170   0.54006   0.26234   0.00000  Uiso   1.00
O337   O     0.78290   0.40767   0.27529   0.00000  Uiso   1.00
O338   O     0.71740   0.45328   0.26460   0.00000  Uiso   1.00
O339   O     0.94183   0.54864   0.06847   0.00000  Uiso   1.00
O340   O     0.88071   0.59799   0.05702   0.00000  Uiso   1.00
O341   O     0.83334   0.56011   0.12709   0.00000  Uiso   1.00
O342   O     0.83333   0.43988   0.12706   0.00000  Uiso   1.00
O343   O     0.83334   0.56012   0.20628   0.00000  Uiso   1.00
O344   O     0.75828   0.50000   0.19712   0.00000  Uiso   1.00
O345   O     0.90839   0.50000   0.13621   0.00000  Uiso   1.00
O346   O     0.75828   0.49999   0.11793   0.00000  Uiso   1.00
O347   O     0.90839   0.50001   0.21540   0.00000  Uiso   1.00
O348   O     0.67177   0.46066   0.07613   0.00000  Uiso   1.00
C349   C     0.16695   0.75420   0.16700   0.00000  Uiso   1.00
C350   C     0.20363   0.68786   0.19779   0.00000  Uiso   1.00
C351   C     0.16676   0.95710   0.16583   0.00000  Uiso   1.00
C352   C     0.16662   0.70956   0.16753   0.00000  Uiso   1.00
C353   C     0.13592   0.80662   0.02221   0.00000  Uiso   1.00
C354   C     0.19730   0.86013   0.31112   0.00000  Uiso   1.00
C355   C     0.13574   0.80639   0.30615   0.00000  Uiso   1.00
C356   C     0.19752   0.86033   0.02719   0.00000  Uiso   1.00
C357   C     0.32637   0.79316   0.11598   0.00000  Uiso   1.00
C358   C     0.00650   0.87405   0.21716   0.00000  Uiso   1.00
C359   C     0.10148   0.77618   0.27997   0.00000  Uiso   1.00
C360   C     0.16643   0.91247   0.16634   0.00000  Uiso   1.00
C361   C     0.23116   0.89095   0.05334   0.00000  Uiso   1.00
C362   C     0.06821   0.83237   0.15502   0.00000  Uiso   1.00
C363   C     0.26512   0.83443   0.17830   0.00000  Uiso   1.00
C364   C     0.01370   0.82534   0.15046   0.00000  Uiso   1.00
C365   C     0.31954   0.84173   0.18270   0.00000  Uiso   1.00
C366   C     0.12965   0.68854   0.13670   0.00000  Uiso   1.00
C367   C     0.20372   0.97812   0.19667   0.00000  Uiso   1.00
C368   C     0.12964   0.97879   0.13570   0.00000  Uiso   1.00
Cu369  Cu    0.16667   0.83334   0.21355   0.00000  Uiso   1.00
Cu370  Cu    0.16667   0.83333   0.11978   0.00000  Uiso   1.00
H371   H     0.11138   0.78530   0.03891   0.00000  Uiso   1.00
H372   H     0.10803   0.94193   0.07978   0.00000  Uiso   1.00
H373   H     0.26156   0.73031   0.20961   0.00000  Uiso   1.00
H374   H     0.22455   0.72448   0.25404   0.00000  Uiso   1.00
H375   H     0.03052   0.76302   0.24795   0.00000  Uiso   1.00
H376   H     0.24081   0.94988   0.07502   0.00000  Uiso   1.00
H377   H     0.22169   0.88157   0.29441   0.00000  Uiso   1.00
H378   H     0.28328   0.74138   0.10327   0.00000  Uiso   1.00
H379   H     0.00727   0.89714   0.28221   0.00000  Uiso   1.00
H380   H     0.05519   0.70179   0.11527   0.00000  Uiso   1.00
H381   H     0.09404   0.70391   0.07224   0.00000  Uiso   1.00
H382   H     0.27818   0.96498   0.21823   0.00000  Uiso   1.00
H383   H     0.23921   0.96261   0.26115   0.00000  Uiso   1.00
H384   H     0.07148   0.93648   0.12462   0.00000  Uiso   1.00
N385   N     0.16668   0.83334   0.28403   0.00000  Uiso   1.00
N386   N     0.16665   0.83332   0.04931   0.00000  Uiso   1.00
N387   N     0.09138   0.71126   0.10721   0.00000  Uiso   1.00
N388   N     0.24199   0.95539   0.22616   0.00000  Uiso   1.00
N389   N     0.09066   0.95775   0.10496   0.00000  Uiso   1.00
N390   N     0.24227   0.70886   0.22893   0.00000  Uiso   1.00
O391   O     0.16666   0.77322   0.20625   0.00000  Uiso   1.00
O392   O     0.29454   0.76129   0.12963   0.00000  Uiso   1.00
O393   O     0.03459   0.90187   0.20552   0.00000  Uiso   1.00
O394   O     0.32504   0.87340   0.26234   0.00000  Uiso   1.00
O395   O     0.11623   0.74100   0.27529   0.00000  Uiso   1.00
O396   O     0.05073   0.78662   0.26460   0.00000  Uiso   1.00
O397   O     0.27517   0.88197   0.06847   0.00000  Uiso   1.00
O398   O     0.21404   0.93132   0.05702   0.00000  Uiso   1.00
O399   O     0.16667   0.89345   0.12709   0.00000  Uiso   1.00
O400   O     0.16666   0.77321   0.12706   0.00000  Uiso   1.00
O401   O     0.16667   0.89346   0.20628   0.00000  Uiso   1.00
O402   O     0.09161   0.83334   0.19712   0.00000  Uiso   1.00
O403   O     0.24172   0.83333   0.13621   0.00000  Uiso   1.00
O404   O     0.09161   0.83333   0.11793   0.00000  Uiso   1.00
O405   O     0.24172   0.83334   0.21540   0.00000  Uiso   1.00
O406   O     0.00510   0.79399   0.07613   0.00000  Uiso   1.00
C407   C     0.50028   0.75420   0.16700   0.00000  Uiso   1.00
C408   C     0.53697   0.68786   0.19779   0.00000  Uiso   1.00
C409   C     0.50009   0.95710   0.16583   0.00000  Uiso   1.00
C410   C     0.49996   0.70956   0.16753   0.00000  Uiso   1.00
C411   C     0.46925   0.80662   0.02221   0.00000  Uiso   1.00
C412   C     0.53063   0.86013   0.31112   0.00000  Uiso   1.00
C413   C     0.46907   0.80639   0.30615   0.00000  Uiso   1.00
C414   C     0.53085   0.86033   0.02719   0.00000  Uiso   1.00
C415   C     0.65970   0.79316   0.11598   0.00000  Uiso   1.00
C416   C     0.33984   0.87405   0.21716   0.00000  Uiso   1.00
C417   C     0.43481   0.77618   0.27997   0.00000  Uiso   1.00
C418   C     0.49976   0.91247   0.16634   0.00000  Uiso   1.00
C419   C     0.56449   0.89095   0.05334   0.00000  Uiso   1.00
C420   C     0.40154   0.83237   0.15502   0.00000  Uiso   1.00
C421   C     0.59845   0.83443   0.17830   0.00000  Uiso   1.00
C422   C     0.34704   0.82534   0.15046   0.00000  Uiso   1.00
C423   C     0.65287   0.84173   0.18270   0.00000  Uiso   1.00
C424   C     0.46299   0.68854   0.13670   0.00000  Uiso   1.00
C425   C     0.53705   0.97812   0.19667   0.00000  Uiso   1.00
C426   C     0.46297   0.97879   0.13570   0.00000  Uiso   1.00
Cu427  Cu    0.50000   0.83334   0.21355   0.00000  Uiso   1.00
Cu428  Cu    0.50000   0.83333   0.11978   0.00000  Uiso   1.00
H429   H     0.44471   0.78530   0.03891   0.00000  Uiso   1.00
H430   H     0.44136   0.94193   0.07978   0.00000  Uiso   1.00
H431   H     0.59489   0.73031   0.20961   0.00000  Uiso   1.00
H432   H     0.55788   0.72448   0.25404   0.00000  Uiso   1.00
H433   H     0.36385   0.76302   0.24795   0.00000  Uiso   1.00
H434   H     0.57414   0.94988   0.07502   0.00000  Uiso   1.00
H435   H     0.55502   0.88157   0.29441   0.00000  Uiso   1.00
H436   H     0.61661   0.74138   0.10327   0.00000  Uiso   1.00
H437   H     0.34061   0.89714   0.28221   0.00000  Uiso   1.00
H438   H     0.38853   0.70179   0.11527   0.00000  Uiso   1.00
H439   H     0.42737   0.70391   0.07224   0.00000  Uiso   1.00
H440   H     0.61151   0.96498   0.21823   0.00000  Uiso   1.00
H441   H     0.57254   0.96261   0.26115   0.00000  Uiso   1.00
H442   H     0.40482   0.93648   0.12462   0.00000  Uiso   1.00
N443   N     0.50001   0.83334   0.28403   0.00000  Uiso   1.00
N444   N     0.49999   0.83332   0.04931   0.00000  Uiso   1.00
N445   N     0.42471   0.71126   0.10721   0.00000  Uiso   1.00
N446   N     0.57532   0.95539   0.22616   0.00000  Uiso   1.00
N447   N     0.42399   0.95775   0.10496   0.00000  Uiso   1.00
N448   N     0.57560   0.70886   0.22893   0.00000  Uiso   1.00
O449   O     0.50000   0.77322   0.20625   0.00000  Uiso   1.00
O450   O     0.62787   0.76129   0.12963   0.00000  Uiso   1.00
O451   O     0.36793   0.90187   0.20552   0.00000  Uiso   1.00
O452   O     0.65837   0.87340   0.26234   0.00000  Uiso   1.00
O453   O     0.44957   0.74100   0.27529   0.00000  Uiso   1.00
O454   O     0.38407   0.78662   0.26460   0.00000  Uiso   1.00
O455   O     0.60850   0.88197   0.06847   0.00000  Uiso   1.00
O456   O     0.54737   0.93132   0.05702   0.00000  Uiso   1.00
O457   O     0.50000   0.89345   0.12709   0.00000  Uiso   1.00
O458   O     0.50000   0.77321   0.12706   0.00000  Uiso   1.00
O459   O     0.50000   0.89346   0.20628   0.00000  Uiso   1.00
O460   O     0.42495   0.83334   0.19712   0.00000  Uiso   1.00
O461   O     0.57505   0.83333   0.13621   0.00000  Uiso   1.00
O462   O     0.42494   0.83333   0.11793   0.00000  Uiso   1.00
O463   O     0.57506   0.83334   0.21540   0.00000  Uiso   1.00
O464   O     0.33843   0.79399   0.07613   0.00000  Uiso   1.00
C465   C     0.83361   0.75420   0.16700   0.00000  Uiso   1.00
C466   C     0.87030   0.68786   0.19779   0.00000  Uiso   1.00
C467   C     0.83342   0.95710   0.16583   0.00000  Uiso   1.00
C468   C     0.83329   0.70956   0.16753   0.00000  Uiso   1.00
C469   C     0.80259   0.80662   0.02221   0.00000  Uiso   1.00
C470   C     0.86397   0.86013   0.31112   0.00000  Uiso   1.00
C471   C     0.80240   0.80639   0.30615   0.00000  Uiso   1.00
C472   C     0.86419   0.86033   0.02719   0.00000  Uiso   1.00
C473   C     0.99303   0.79316   0.11598   0.00000  Uiso   1.00
C474   C     0.67317   0.87405   0.21716   0.00000  Uiso   1.00
C475   C     0.76815   0.77618   0.27997   0.00000  Uiso   1.00
C476   C     0.83309   0.91247   0.16634   0.00000  Uiso   1.00
C477   C     0.89782   0.89095   0.05334   0.00000  Uiso   1.00
C478   C     0.73488   0.83237   0.15502   0.00000  Uiso   1.00
C479   C     0.93178   0.83443   0.17830   0.00000  Uiso   1.00
C480   C     0.68037   0.82534   0.15046   0.00000  Uiso   1.00
C481   C     0.98621   0.84173   0.18270   0.00000  Uiso   1.00
C482   C     0.79632   0.68854   0.13670   0.00000  Uiso   1.00
C483   C     0.87038   0.97812   0.19667   0.00000  Uiso   1.00
C484   C     0.79630   0.97879   0.13570   0.00000  Uiso   1.00
Cu485  Cu    0.83333   0.83334   0.21355   0.00000  Uiso   1.00
Cu486  Cu    0.83333   0.83333   0.11978   0.00000  Uiso   1.00
H487   H     0.77805   0.78530   0.03891   0.00000  Uiso   1.00
H488   H     0.77470   0.94193   0.07978   0.00000  Uiso   1.00
H489   H     0.92822   0.73031   0.20961   0.00000  Uiso   1.00
H490   H     0.89121   0.72448   0.25404   0.00000  Uiso   1.00
H491   H     0.69719   0.76302   0.24795   0.00000  Uiso   1.00
H492   H     0.90747   0.94988   0.07502   0.00000  Uiso   1.00
H493   H     0.88836   0.88157   0.29441   0.00000  Uiso   1.00
H494   H     0.94995   0.74138   0.10327   0.00000  Uiso   1.00
H495   H     0.67394   0.89714   0.28221   0.00000  Uiso   1.00
H496   H     0.72186   0.70179   0.11527   0.00000  Uiso   1.00
H497   H     0.76071   0.70391   0.07224   0.00000  Uiso   1.00
H498   H     0.94484   0.96498   0.21823   0.00000  Uiso   1.00
H499   H     0.90587   0.96261   0.26115   0.00000  Uiso   1.00
H500   H     0.73815   0.93648   0.12462   0.00000  Uiso   1.00
N501   N     0.83335   0.83334   0.28403   0.00000  Uiso   1.00
N502   N     0.83332   0.83332   0.04931   0.00000  Uiso   1.00
N503   N     0.75805   0.71126   0.10721   0.00000  Uiso   1.00
N504   N     0.90866   0.95539   0.22616   0.00000  Uiso   1.00
N505   N     0.75732   0.95775   0.10496   0.00000  Uiso   1.00
N506   N     0.90894   0.70886   0.22893   0.00000  Uiso   1.00
O507   O     0.83333   0.77322   0.20625   0.00000  Uiso   1.00
O508   O     0.96121   0.76129   0.12963   0.00000  Uiso   1.00
O509   O     0.70126   0.90187   0.20552   0.00000  Uiso   1.00
O510   O     0.99170   0.87340   0.26234   0.00000  Uiso   1.00
O511   O     0.78290   0.74100   0.27529   0.00000  Uiso   1.00
O512   O     0.71740   0.78662   0.26460   0.00000  Uiso   1.00
O513   O     0.94183   0.88197   0.06847   0.00000  Uiso   1.00
O514   O     0.88071   0.93132   0.05702   0.00000  Uiso   1.00
O515   O     0.83334   0.89345   0.12709   0.00000  Uiso   1.00
O516   O     0.83333   0.77321   0.12706   0.00000  Uiso   1.00
O517   O     0.83334   0.89346   0.20628   0.00000  Uiso   1.00
O518   O     0.75828   0.83334   0.19712   0.00000  Uiso   1.00
O519   O     0.90839   0.83333   0.13621   0.00000  Uiso   1.00
O520   O     0.75828   0.83333   0.11793   0.00000  Uiso   1.00
O521   O     0.90839   0.83334   0.21540   0.00000  Uiso   1.00
O522   O     0.67177   0.79399   0.07613   0.00000  Uiso   1.00
C523   C     0.16695   0.08753   0.50034   0.00000  Uiso   1.00
C524   C     0.20363   0.02119   0.53112   0.00000  Uiso   1.00
C525   C     0.16676   0.29044   0.49917   0.00000  Uiso   1.00
C526   C     0.16662   0.04289   0.50086   0.00000  Uiso   1.00
C527   C     0.13592   0.13995   0.35554   0.00000  Uiso   1.00
C528   C     0.19730   0.19347   0.64445   0.00000  Uiso   1.00
C529   C     0.13574   0.13973   0.63948   0.00000  Uiso   1.00
C530   C     0.19752   0.19366   0.36052   0.00000  Uiso   1.00
C531   C     0.32637   0.12650   0.44931   0.00000  Uiso   1.00
C532   C     0.00650   0.20738   0.55049   0.00000  Uiso   1.00
C533   C     0.10148   0.10952   0.61330   0.00000  Uiso   1.00
C534   C     0.16643   0.24580   0.49967   0.00000  Uiso   1.00
C535   C     0.23116   0.22429   0.38668   0.00000  Uiso   1.00
C536   C     0.06821   0.16570   0.48835   0.00000  Uiso   1.00
C537   C     0.26512   0.16776   0.51163   0.00000  Uiso   1.00
C538   C     0.01370   0.15867   0.48379   0.00000  Uiso   1.00
C539   C     0.31954   0.17506   0.51604   0.00000  Uiso   1.00
C540   C     0.12965   0.02187   0.47003   0.00000  Uiso   1.00
C541   C     0.20372   0.31145   0.53001   0.00000  Uiso   1.00
C542   C     0.12964   0.31212   0.46903   0.00000  Uiso   1.00
Cu543  Cu    0.16667   0.16667   0.54689   0.00000  Uiso   1.00
Cu544  Cu    0.16667   0.16666   0.45311   0.00000  Uiso   1.00
H545   H     0.11138   0.11864   0.37224   0.00000  Uiso   1.00
H546   H     0.10803   0.27527   0.41312   0.00000  Uiso   1.00
H547   H     0.26156   0.06365   0.54294   0.00000  Uiso   1.00
H548   H     0.22455   0.05781   0.58737   0.00000  Uiso   1.00
H549   H     0.03052   0.09636   0.58129   0.00000  Uiso   1.00
H550   H     0.24081   0.28322   0.40836   0.00000  Uiso   1.00
H551   H     0.22169   0.21490   0.62775   0.00000  Uiso   1.00
H552   H     0.28328   0.07471   0.43660   0.00000  Uiso   1.00
H553   H     0.00727   0.23047   0.61554   0.00000  Uiso   1.00
H554   H     0.05519   0.03512   0.44860   0.00000  Uiso   1.00
H555   H     0.09404   0.03724   0.40557   0.00000  Uiso   1.00
H556   H     0.27818   0.29831   0.55156   0.00000  Uiso   1.00
H557   H     0.23921   0.29595   0.59448   0.00000  Uiso   1.00
H558   H     0.07148   0.26982   0.45795   0.00000  Uiso   1.00
N559   N     0.16668   0.16668   0.61736   0.00000  Uiso   1.00
N560   N     0.16665   0.16666   0.38264   0.00000  Uiso   1.00
N561   N     0.09138   0.04459   0.44055   0.00000  Uiso   1.00
N562   N     0.24199   0.28872   0.55949   0.00000  Uiso   1.00
N563   N     0.09066   0.29109   0.43829   0.00000  Uiso   1.00
N564   N     0.24227   0.04220   0.56226   0.00000  Uiso   1.00
O565   O     0.16666   0.10655   0.53958   0.00000  Uiso   1.00
O566   O     0.29454   0.09463   0.46296   0.00000  Uiso   1.00
O567   O     0.03459   0.23520   0.53886   0.00000  Uiso   1.00
O568   O     0.32504   0.20673   0.59568   0.00000  Uiso   1.00
O569   O     0.11623   0.07433   0.60863   0.00000  Uiso   1.00
O570   O     0.05073   0.11995   0.59793   0.00000  Uiso   1.00
O571   O     0.27517   0.21530   0.40180   0.00000  Uiso   1.00
O572   O     0.21404   0.26466   0.39035   0.00000  Uiso   1.00
O573   O     0.16667   0.22678   0.46042   0.00000  Uiso   1.00
O574   O     0.16666   0.10654   0.46039   0.00000  Uiso   1.00
O575   O     0.16667   0.22679   0.53961   0.00000  Uiso   1.00
O576   O     0.09161   0.16667   0.53046   0.00000  Uiso   1.00
O577   O     0.24172   0.16666   0.46954   0.00000  Uiso   1.00
O578   O     0.09161   0.16666   0.45127   0.00000  Uiso   1.00
O579   O     0.24172   0.16667   0.54873   0.00000  Uiso   1.00
O580   O     0.00510   0.12732   0.40947   0.00000  Uiso   1.00
C581   C     0.50028   0.08753   0.50034   0.00000  Uiso   1.00
C582   C     0.53697   0.02119   0.53112   0.00000  Uiso   1.00
C583   C     0.50009   0.29044   0.49917   0.00000  Uiso   1.00
C584   C     0.49996   0.04289   0.50086   0.00000  Uiso   1.00
C585   C     0.46925   0.13995   0.35554   0.00000  Uiso   1.00
C586   C     0.53063   0.19347   0.64445   0.00000  Uiso   1.00
C587   C     0.46907   0.13973   0.63948   0.00000  Uiso   1.00
C588   C     0.53085   0.19366   0.36052   0.00000  Uiso   1.00
C589   C     0.65970   0.12650   0.44931   0.00000  Uiso   1.00
C590   C     0.33984   0.20738   0.55049   0.00000  Uiso   1.00
C591   C     0.43481   0.10952   0.61330   0.00000  Uiso   1.00
C592   C     0.49976   0.24580   0.49967   0.00000  Uiso   1.00
C593   C     0.56449   0.22429   0.38668   0.00000  Uiso   1.00
C594   C     0.40154   0.16570   0.48835   0.00000  Uiso   1.00
C595   C     0.59845   0.16776   0.51163   0.00000  Uiso   1.00
C596   C     0.34704   0.15867   0.48379   0.00000  Uiso   1.00
C597   C     0.65287   0.17506   0.51604   0.00000  Uiso   1.00
C598   C     0.46299   0.02187   0.47003   0.00000  Uiso   1.00
C599   C     0.53705   0.31145   0.53001   0.00000  Uiso   1.00
C600   C     0.46297   0.31212   0.46903   0.00000  Uiso   1.00
Cu601  Cu    0.50000   0.16667   0.54689   0.00000  Uiso   1.00
Cu602  Cu    0.50000   0.16666   0.45311   0.00000  Uiso   1.00
H603   H     0.44471   0.11864   0.37224   0.00000  Uiso   1.00
H604   H     0.44136   0.27527   0.41312   0.00000  Uiso   1.00
H605   H     0.59489   0.06365   0.54294   0.00000  Uiso   1.00
H606   H     0.55788   0.05781   0.58737   0.00000  Uiso   1.00
H607   H     0.36385   0.09636   0.58129   0.00000  Uiso   1.00
H608   H     0.57414   0.28322   0.40836   0.00000  Uiso   1.00
H609   H     0.55502   0.21490   0.62775   0.00000  Uiso   1.00
H610   H     0.61661   0.07471   0.43660   0.00000  Uiso   1.00
H611   H     0.34061   0.23047   0.61554   0.00000  Uiso   1.00
H612   H     0.38853   0.03512   0.44860   0.00000  Uiso   1.00
H613   H     0.42737   0.03724   0.40557   0.00000  Uiso   1.00
H614   H     0.61151   0.29831   0.55156   0.00000  Uiso   1.00
H615   H     0.57254   0.29595   0.59448   0.00000  Uiso   1.00
H616   H     0.40482   0.26982   0.45795   0.00000  Uiso   1.00
N617   N     0.50001   0.16668   0.61736   0.00000  Uiso   1.00
N618   N     0.49999   0.16666   0.38264   0.00000  Uiso   1.00
N619   N     0.42471   0.04459   0.44055   0.00000  Uiso   1.00
N620   N     0.57532   0.28872   0.55949   0.00000  Uiso   1.00
N621   N     0.42399   0.29109   0.43829   0.00000  Uiso   1.00
N622   N     0.57560   0.04220   0.56226   0.00000  Uiso   1.00
O623   O     0.50000   0.10655   0.53958   0.00000  Uiso   1.00
O624   O     0.62787   0.09463   0.46296   0.00000  Uiso   1.00
O625   O     0.36793   0.23520   0.53886   0.00000  Uiso   1.00
O626   O     0.65837   0.20673   0.59568   0.00000  Uiso   1.00
O627   O     0.44957   0.07433   0.60863   0.00000  Uiso   1.00
O628   O     0.38407   0.11995   0.59793   0.00000  Uiso   1.00
O629   O     0.60850   0.21530   0.40180   0.00000  Uiso   1.00
O630   O     0.54737   0.26466   0.39035   0.00000  Uiso   1.00
O631   O     0.50000   0.22678   0.46042   0.00000  Uiso   1.00
O632   O     0.50000   0.10654   0.46039   0.00000  Uiso   1.00
O633   O     0.50000   0.22679   0.53961   0.00000  Uiso   1.00
O634   O     0.42495   0.16667   0.53046   0.00000  Uiso   1.00
O635   O     0.57505   0.16666   0.46954   0.00000  Uiso   1.00
O636   O     0.42494   0.16666   0.45127   0.00000  Uiso   1.00
O637   O     0.57506   0.16667   0.54873   0.00000  Uiso   1.00
O638   O     0.33843   0.12732   0.40947   0.00000  Uiso   1.00
C639   C     0.83361   0.08753   0.50034   0.00000  Uiso   1.00
C640   C     0.87030   0.02119   0.53112   0.00000  Uiso   1.00
C641   C     0.83342   0.29044   0.49917   0.00000  Uiso   1.00
C642   C     0.83329   0.04289   0.50086   0.00000  Uiso   1.00
C643   C     0.80259   0.13995   0.35554   0.00000  Uiso   1.00
C644   C     0.86397   0.19347   0.64445   0.00000  Uiso   1.00
C645   C     0.80240   0.13973   0.63948   0.00000  Uiso   1.00
C646   C     0.86419   0.19366   0.36052   0.00000  Uiso   1.00
C647   C     0.99303   0.12650   0.44931   0.00000  Uiso   1.00
C648   C     0.67317   0.20738   0.55049   0.00000  Uiso   1.00
C649   C     0.76815   0.10952   0.61330   0.00000  Uiso   1.00
C650   C     0.83309   0.24580   0.49967   0.00000  Uiso   1.00
C651   C     0.89782   0.22429   0.38668   0.00000  Uiso   1.00
C652   C     0.73488   0.16570   0.48835   0.00000  Uiso   1.00
C653   C     0.93178   0.16776   0.51163   0.00000  Uiso   1.00
C654   C     0.68037   0.15867   0.48379   0.00000  Uiso   1.00
C655   C     0.98621   0.17506   0.51604   0.00000  Uiso   1.00
C656   C     0.79632   0.02187   0.47003   0.00000  Uiso   1.00
C657   C     0.87038   0.31145   0.53001   0.00000  Uiso   1.00
C658   C     0.79630   0.31212   0.46903   0.00000  Uiso   1.00
Cu659  Cu    0.83333   0.16667   0.54689   0.00000  Uiso   1.00
Cu660  Cu    0.83333   0.16666   0.45311   0.00000  Uiso   1.00
H661   H     0.77805   0.11864   0.37224   0.00000  Uiso   1.00
H662   H     0.77470   0.27527   0.41312   0.00000  Uiso   1.00
H663   H     0.92822   0.06365   0.54294   0.00000  Uiso   1.00
H664   H     0.89121   0.05781   0.58737   0.00000  Uiso   1.00
H665   H     0.69719   0.09636   0.58129   0.00000  Uiso   1.00
H666   H     0.90747   0.28322   0.40836   0.00000  Uiso   1.00
H667   H     0.88836   0.21490   0.62775   0.00000  Uiso   1.00
H668   H     0.94995   0.07471   0.43660   0.00000  Uiso   1.00
H669   H     0.67394   0.23047   0.61554   0.00000  Uiso   1.00
H670   H     0.72186   0.03512   0.44860   0.00000  Uiso   1.00
H671   H     0.76071   0.03724   0.40557   0.00000  Uiso   1.00
H672   H     0.94484   0.29831   0.55156   0.00000  Uiso   1.00
H673   H     0.90587   0.29595   0.59448   0.00000  Uiso   1.00
H674   H     0.73815   0.26982   0.45795   0.00000  Uiso   1.00
N675   N     0.83335   0.16668   0.61736   0.00000  Uiso   1.00
N676   N     0.83332   0.16666   0.38264   0.00000  Uiso   1.00
N677   N     0.75805   0.04459   0.44055   0.00000  Uiso   1.00
N678   N     0.90866   0.28872   0.55949   0.00000  Uiso   1.00
N679   N     0.75732   0.29109   0.43829   0.00000  Uiso   1.00
N680   N     0.90894   0.04220   0.56226   0.00000  Uiso   1.00
O681   O     0.83333   0.10655   0.53958   0.00000  Uiso   1.00
O682   O     0.96121   0.09463   0.46296   0.00000  Uiso   1.00
O683   O     0.70126   0.23520   0.53886   0.00000  Uiso   1.00
O684   O     0.99170   0.20673   0.59568   0.00000  Uiso   1.00
O685   O     0.78290   0.07433   0.60863   0.00000  Uiso   1.00
O686   O     0.71740   0.11995   0.59793   0.00000  Uiso   1.00
O687   O     0.94183   0.21530   0.40180   0.00000  Uiso   1.00
O688   O     0.88071   0.26466   0.39035   0.00000  Uiso   1.00
O689   O     0.83334   0.22678   0.46042   0.00000  Uiso   1.00
O690   O     0.83333   0.10654   0.46039   0.00000  Uiso   1.00
O691   O     0.83334   0.22679   0.53961   0.00000  Uiso   1.00
O692   O     0.75828   0.16667   0.53046   0.00000  Uiso   1.00
O693   O     0.90839   0.16666   0.46954   0.00000  Uiso   1.00
O694   O     0.75828   0.16666   0.45127   0.00000  Uiso   1.00
O695   O     0.90839   0.16667   0.54873   0.00000  Uiso   1.00
O696   O     0.67177   0.12732   0.40947   0.00000  Uiso   1.00
C697   C     0.16695   0.42086   0.50034   0.00000  Uiso   1.00
C698   C     0.20363   0.35453   0.53112   0.00000  Uiso   1.00
C699   C     0.16676   0.62377   0.49917   0.00000  Uiso   1.00
C700   C     0.16662   0.37622   0.50086   0.00000  Uiso   1.00
C701   C     0.13592   0.47329   0.35554   0.00000  Uiso   1.00
C702   C     0.19730   0.52680   0.64445   0.00000  Uiso   1.00
C703   C     0.13574   0.47306   0.63948   0.00000  Uiso   1.00
C704   C     0.19752   0.52700   0.36052   0.00000  Uiso   1.00
C705   C     0.32637   0.45983   0.44931   0.00000  Uiso   1.00
C706   C     0.00650   0.54072   0.55049   0.00000  Uiso   1.00
C707   C     0.10148   0.44285   0.61330   0.00000  Uiso   1.00
C708   C     0.16643   0.57913   0.49967   0.00000  Uiso   1.00
C709   C     0.23116   0.55762   0.38668   0.00000  Uiso   1.00
C710   C     0.06821   0.49904   0.48835   0.00000  Uiso   1.00
C711   C     0.26512   0.50109   0.51163   0.00000  Uiso   1.00
C712   C     0.01370   0.49200   0.48379   0.00000  Uiso   1.00
C713   C     0.31954   0.50840   0.51604   0.00000  Uiso   1.00
C714   C     0.12965   0.35520   0.47003   0.00000  Uiso   1.00
C715   C     0.20372   0.64478   0.53001   0.00000  Uiso   1.00
C716   C     0.12964   0.64546   0.46903   0.00000  Uiso   1.00
Cu717  Cu    0.16667   0.50001   0.54689   0.00000  Uiso   1.00
Cu718  Cu    0.16667   0.49999   0.45311   0.00000  Uiso   1.00
H719   H     0.11138   0.45197   0.37224   0.00000  Uiso   1.00
H720   H     0.10803   0.60860   0.41312   0.00000  Uiso   1.00
H721   H     0.26156   0.39698   0.54294   0.00000  Uiso   1.00
H722   H     0.22455   0.39114   0.58737   0.00000  Uiso   1.00
H723   H     0.03052   0.42969   0.58129   0.00000  Uiso   1.00
H724   H     0.24081   0.61655   0.40836   0.00000  Uiso   1.00
H725   H     0.22169   0.54823   0.62775   0.00000  Uiso   1.00
H726   H     0.28328   0.40805   0.43660   0.00000  Uiso   1.00
H727   H     0.00727   0.56380   0.61554   0.00000  Uiso   1.00
H728   H     0.05519   0.36845   0.44860   0.00000  Uiso   1.00
H729   H     0.09404   0.37057   0.40557   0.00000  Uiso   1.00
H730   H     0.27818   0.63164   0.55156   0.00000  Uiso   1.00
H731   H     0.23921   0.62928   0.59448   0.00000  Uiso   1.00
H732   H     0.07148   0.60315   0.45795   0.00000  Uiso   1.00
N733   N     0.16668   0.50001   0.61736   0.00000  Uiso   1.00
N734   N     0.16665   0.49999   0.38264   0.00000  Uiso   1.00
N735   N     0.09138   0.37793   0.44055   0.00000  Uiso   1.00
N736   N     0.24199   0.62205   0.55949   0.00000  Uiso   1.00
N737   N     0.09066   0.62442   0.43829   0.00000  Uiso   1.00
N738   N     0.24227   0.37553   0.56226   0.00000  Uiso   1.00
O739   O     0.16666   0.43989   0.53958   0.00000  Uiso   1.00
O740   O     0.29454   0.42796   0.46296   0.00000  Uiso   1.00
O741   O     0.03459   0.56854   0.53886   0.00000  Uiso   1.00
O742   O     0.32504   0.54006   0.59568   0.00000  Uiso   1.00
O743   O     0.11623   0.40767   0.60863   0.00000  Uiso   1.00
O744   O     0.05073   0.45328   0.59793   0.00000  Uiso   1.00
O745   O     0.27517   0.54864   0.40180   0.00000  Uiso   1.00
O746   O     0.21404   0.59799   0.39035   0.00000  Uiso   1.00
O747   O     0.16667   0.56011   0.46042   0.00000  Uiso   1.00
O748   O     0.16666   0.43988   0.46039   0.00000  Uiso   1.00
O749   O     0.16667   0.56012   0.53961   0.00000  Uiso   1.00
O750   O     0.09161   0.50000   0.53046   0.00000  Uiso   1.00
O751   O     0.24172   0.50000   0.46954   0.00000  Uiso   1.00
O752   O     0.09161   0.49999   0.45127   0.00000  Uiso   1.00
O753   O     0.24172   0.50001   0.54873   0.00000  Uiso   1.00
O754   O     0.00510   0.46066   0.40947   0.00000  Uiso   1.00
C755   C     0.50028   0.42086   0.50034   0.00000  Uiso   1.00
C756   C     0.53697   0.35453   0.53112   0.00000  Uiso   1.00
C757   C     0.50009   0.62377   0.49917   0.00000  Uiso   1.00
C758   C     0.49996   0.37622   0.50086   0.00000  Uiso   1.00
C759   C     0.46925   0.47329   0.35554   0.00000  Uiso   1.00
C760   C     0.53063   0.52680   0.64445   0.00000  Uiso   1.00
C761   C     0.46907   0.47306   0.63948   0.00000  Uiso   1.00
C762   C     0.53085   0.52700   0.36052   0.00000  Uiso   1.00
C763   C     0.65970   0.45983   0.44931   0.00000  Uiso   1.00
C764   C     0.33984   0.54072   0.55049   0.00000  Uiso   1.00
C765   C     0.43481   0.44285   0.61330   0.00000  Uiso   1.00
C766   C     0.49976   0.57913   0.49967   0.00000  Uiso   1.00
C767   C     0.56449   0.55762   0.38668   0.00000  Uiso   1.00
C768   C     0.40154   0.49904   0.48835   0.00000  Uiso   1.00
C769   C     0.59845   0.50109   0.51163   0.00000  Uiso   1.00
C770   C     0.34704   0.49200   0.48379   0.00000  Uiso   1.00
C771   C     0.65287   0.50840   0.51604   0.00000  Uiso   1.00
C772   C     0.46299   0.35520   0.47003   0.00000  Uiso   1.00
C773   C     0.53705   0.64478   0.53001   0.00000  Uiso   1.00
C774   C     0.46297   0.64546   0.46903   0.00000  Uiso   1.00
Cu775  Cu    0.50000   0.50001   0.54689   0.00000  Uiso   1.00
Cu776  Cu    0.50000   0.49999   0.45311   0.00000  Uiso   1.00
H777   H     0.44471   0.45197   0.37224   0.00000  Uiso   1.00
H778   H     0.44136   0.60860   0.41312   0.00000  Uiso   1.00
H779   H     0.59489   0.39698   0.54294   0.00000  Uiso   1.00
H780   H     0.55788   0.39114   0.58737   0.00000  Uiso   1.00
H781   H     0.36385   0.42969   0.58129   0.00000  Uiso   1.00
H782   H     0.57414   0.61655   0.40836   0.00000  Uiso   1.00
H783   H     0.55502   0.54823   0.62775   0.00000  Uiso   1.00
H784   H     0.61661   0.40805   0.43660   0.00000  Uiso   1.00
H785   H     0.34061   0.56380   0.61554   0.00000  Uiso   1.00
H786   H     0.38853   0.36845   0.44860   0.00000  Uiso   1.00
H787   H     0.42737   0.37057   0.40557   0.00000  Uiso   1.00
H788   H     0.61151   0.63164   0.55156   0.00000  Uiso   1.00
H789   H     0.57254   0.62928   0.59448   0.00000  Uiso   1.00
H790   H     0.40482   0.60315   0.45795   0.00000  Uiso   1.00
N791   N     0.50001   0.50001   0.61736   0.00000  Uiso   1.00
N792   N     0.49999   0.49999   0.38264   0.00000  Uiso   1.00
N793   N     0.42471   0.37793   0.44055   0.00000  Uiso   1.00
N794   N     0.57532   0.62205   0.55949   0.00000  Uiso   1.00
N795   N     0.42399   0.62442   0.43829   0.00000  Uiso   1.00
N796   N     0.57560   0.37553   0.56226   0.00000  Uiso   1.00
O797   O     0.50000   0.43989   0.53958   0.00000  Uiso   1.00
O798   O     0.62787   0.42796   0.46296   0.00000  Uiso   1.00
O799   O     0.36793   0.56854   0.53886   0.00000  Uiso   1.00
O800   O     0.65837   0.54006   0.59568   0.00000  Uiso   1.00
O801   O     0.44957   0.40767   0.60863   0.00000  Uiso   1.00
O802   O     0.38407   0.45328   0.59793   0.00000  Uiso   1.00
O803   O     0.60850   0.54864   0.40180   0.00000  Uiso   1.00
O804   O     0.54737   0.59799   0.39035   0.00000  Uiso   1.00
O805   O     0.50000   0.56011   0.46042   0.00000  Uiso   1.00
O806   O     0.50000   0.43988   0.46039   0.00000  Uiso   1.00
O807   O     0.50000   0.56012   0.53961   0.00000  Uiso   1.00
O808   O     0.42495   0.50000   0.53046   0.00000  Uiso   1.00
O809   O     0.57505   0.50000   0.46954   0.00000  Uiso   1.00
O810   O     0.42494   0.49999   0.45127   0.00000  Uiso   1.00
O811   O     0.57506   0.50001   0.54873   0.00000  Uiso   1.00
O812   O     0.33843   0.46066   0.40947   0.00000  Uiso   1.00
C813   C     0.83361   0.42086   0.50034   0.00000  Uiso   1.00
C814   C     0.87030   0.35453   0.53112   0.00000  Uiso   1.00
C815   C     0.83342   0.62377   0.49917   0.00000  Uiso   1.00
C816   C     0.83329   0.37622   0.50086   0.00000  Uiso   1.00
C817   C     0.80259   0.47329   0.35554   0.00000  Uiso   1.00
C818   C     0.86397   0.52680   0.64445   0.00000  Uiso   1.00
C819   C     0.80240   0.47306   0.63948   0.00000  Uiso   1.00
C820   C     0.86419   0.52700   0.36052   0.00000  Uiso   1.00
C821   C     0.99303   0.45983   0.44931   0.00000  Uiso   1.00
C822   C     0.67317   0.54072   0.55049   0.00000  Uiso   1.00
C823   C     0.76815   0.44285   0.61330   0.00000  Uiso   1.00
C824   C     0.83309   0.57913   0.49967   0.00000  Uiso   1.00
C825   C     0.89782   0.55762   0.38668   0.00000  Uiso   1.00
C826   C     0.73488   0.49904   0.48835   0.00000  Uiso   1.00
C827   C     0.93178   0.50109   0.51163   0.00000  Uiso   1.00
C828   C     0.68037   0.49200   0.48379   0.00000  Uiso   1.00
C829   C     0.98621   0.50840   0.51604   0.00000  Uiso   1.00
C830   C     0.79632   0.35520   0.47003   0.00000  Uiso   1.00
C831   C     0.87038   0.64478   0.53001   0.00000  Uiso   1.00
C832   C     0.79630   0.64546   0.46903   0.00000  Uiso   1.00
Cu833  Cu    0.83333   0.50001   0.54689   0.00000  Uiso   1.00
Cu834  Cu    0.83333   0.49999   0.45311   0.00000  Uiso   1.00
H835   H     0.77805   0.45197   0.37224   0.00000  Uiso   1.00
H836   H     0.77470   0.60860   0.41312   0.00000  Uiso   1.00
H837   H     0.92822   0.39698   0.54294   0.00000  Uiso   1.00
H838   H     0.89121   0.39114   0.58737   0.00000  Uiso   1.00
H839   H     0.69719   0.42969   0.58129   0.00000  Uiso   1.00
H840   H     0.90747   0.61655   0.40836   0.00000  Uiso   1.00
H841   H     0.88836   0.54823   0.62775   0.00000  Uiso   1.00
H842   H     0.94995   0.40805   0.43660   0.00000  Uiso   1.00
H843   H     0.67394   0.56380   0.61554   0.00000  Uiso   1.00
H844   H     0.72186   0.36845   0.44860   0.00000  Uiso   1.00
H845   H     0.76071   0.37057   0.40557   0.00000  Uiso   1.00
H846   H     0.94484   0.63164   0.55156   0.00000  Uiso   1.00
H847   H     0.90587   0.62928   0.59448   0.00000  Uiso   1.00
H848   H     0.73815   0.60315   0.45795   0.00000  Uiso   1.00
N849   N     0.83335   0.50001   0.61736   0.00000  Uiso   1.00
N850   N     0.83332   0.49999   0.38264   0.00000  Uiso   1.00
N851   N     0.75805   0.37793   0.44055   0.00000  Uiso   1.00
N852   N     0.90866   0.62205   0.55949   0.00000  Uiso   1.00
N853   N     0.75732   0.62442   0.43829   0.00000  Uiso   1.00
N854   N     0.90894   0.37553   0.56226   0.00000  Uiso   1.00
O855   O     0.83333   0.43989   0.53958   0.00000  Uiso   1.00
O856   O     0.96121   0.42796   0.46296   0.00000  Uiso   1.00
O857   O     0.70126   0.56854   0.53886   0.00000  Uiso   1.00
O858   O     0.99170   0.54006   0.59568   0.00000  Uiso   1.00
O859   O     0.78290   0.40767   0.60863   0.00000  Uiso   1.00
O860   O     0.71740   0.45328   0.59793   0.00000  Uiso   1.00
O861   O     0.94183   0.54864   0.40180   0.00000  Uiso   1.00
O862   O     0.88071   0.59799   0.39035   0.00000  Uiso   1.00
O863   O     0.83334   0.56011   0.46042   0.00000  Uiso   1.00
O864   O     0.83333   0.43988   0.46039   0.00000  Uiso   1.00
O865   O     0.83334   0.56012   0.53961   0.00000  Uiso   1.00
O866   O     0.75828   0.50000   0.53046   0.00000  Uiso   1.00
O867   O     0.90839   0.50000   0.46954   0.00000  Uiso   1.00
O868   O     0.75828   0.49999   0.45127   0.00000  Uiso   1.00
O869   O     0.90839   0.50001   0.54873   0.00000  Uiso   1.00
O870   O     0.67177   0.46066   0.40947   0.00000  Uiso   1.00
C871   C     0.16695   0.75420   0.50034   0.00000  Uiso   1.00
C872   C     0.20363   0.68786   0.53112   0.00000  Uiso   1.00
C873   C     0.16676   0.95710   0.49917   0.00000  Uiso   1.00
C874   C     0.16662   0.70956   0.50086   0.00000  Uiso   1.00
C875   C     0.13592   0.80662   0.35554   0.00000  Uiso   1.00
C876   C     0.19730   0.86013   0.64445   0.00000  Uiso   1.00
C877   C     0.13574   0.80639   0.63948   0.00000  Uiso   1.00
C878   C     0.19752   0.86033   0.36052   0.00000  Uiso   1.00
C879   C     0.32637   0.79316   0.44931   0.00000  Uiso   1.00
C880   C     0.00650   0.87405   0.55049   0.00000  Uiso   1.00
C881   C     0.10148   0.77618   0.61330   0.00000  Uiso   1.00
C882   C     0.16643   0.91247   0.49967   0.00000  Uiso   1.00
C883   C     0.23116   0.89095   0.38668   0.00000  Uiso   1.00
C884   C     0.06821   0.83237   0.48835   0.00000  Uiso   1.00
C885   C     0.26512   0.83443   0.51163   0.00000  Uiso   1.00
C886   C     0.01370   0.82534   0.48379   0.00000  Uiso   1.00
C887   C     0.31954   0.84173   0.51604   0.00000  Uiso   1.00
C888   C     0.12965   0.68854   0.47003   0.00000  Uiso   1.00
C889   C     0.20372   0.97812   0.53001   0.00000  Uiso   1.00
C890   C     0.12964   0.97879   0.46903   0.00000  Uiso   1.00
Cu891  Cu    0.16667   0.83334   0.54689   0.00000  Uiso   1.00
Cu892  Cu    0.16667   0.83333   0.45311   0.00000  Uiso   1.00
H893   H     0.11138   0.78530   0.37224   0.00000  Uiso   1.00
H894   H     0.10803   0.94193   0.41312   0.00000  Uiso   1.00
H895   H     0.26156   0.73031   0.54294   0.00000  Uiso   1.00
H896   H     0.22455   0.72448   0.58737   0.00000  Uiso   1.00
H897   H     0.03052   0.76302   0.58129   0.00000  Uiso   1.00
H898   H     0.24081   0.94988   0.40836   0.00000  Uiso   1.00
H899   H     0.22169   0.88157   0.62775   0.00000  Uiso   1.00
H900   H     0.28328   0.74138   0.43660   0.00000  Uiso   1.00
H901   H     0.00727   0.89714   0.61554   0.00000  Uiso   1.00
H902   H     0.05519   0.70179   0.44860   0.00000  Uiso   1.00
H903   H     0.09404   0.70391   0.40557   0.00000  Uiso   1.00
H904   H     0.27818   0.96498   0.55156   0.00000  Uiso   1.00
H905   H     0.23921   0.96261   0.59448   0.00000  Uiso   1.00
H906   H     0.07148   0.93648   0.45795   0.00000  Uiso   1.00
N907   N     0.16668   0.83334   0.61736   0.00000  Uiso   1.00
N908   N     0.16665   0.83332   0.38264   0.00000  Uiso   1.00
N909   N     0.09138   0.71126   0.44055   0.00000  Uiso   1.00
N910   N     0.24199   0.95539   0.55949   0.00000  Uiso   1.00
N911   N     0.09066   0.95775   0.43829   0.00000  Uiso   1.00
N912   N     0.24227   0.70886   0.56226   0.00000  Uiso   1.00
O913   O     0.16666   0.77322   0.53958   0.00000  Uiso   1.00
O914   O     0.29454   0.76129   0.46296   0.00000  Uiso   1.00
O915   O     0.03459   0.90187   0.53886   0.00000  Uiso   1.00
O916   O     0.32504   0.87340   0.59568   0.00000  Uiso   1.00
O917   O     0.11623   0.74100   0.60863   0.00000  Uiso   1.00
O918   O     0.05073   0.78662   0.59793   0.00000  Uiso   1.00
O919   O     0.27517   0.88197   0.40180   0.00000  Uiso   1.00
O920   O     0.21404   0.93132   0.39035   0.00000  Uiso   1.00
O921   O     0.16667   0.89345   0.46042   0.00000  Uiso   1.00
O922   O     0.16666   0.77321   0.46039   0.00000  Uiso   1.00
O923   O     0.16667   0.89346   0.53961   0.00000  Uiso   1.00
O924   O     0.09161   0.83334   0.53046   0.00000  Uiso   1.00
O925   O     0.24172   0.83333   0.46954   0.00000  Uiso   1.00
O926   O     0.09161   0.83333   0.45127   0.00000  Uiso   1.00
O927   O     0.24172   0.83334   0.54873   0.00000  Uiso   1.00
O928   O     0.00510   0.79399   0.40947   0.00000  Uiso   1.00
C929   C     0.50028   0.75420   0.50034   0.00000  Uiso   1.00
C930   C     0.53697   0.68786   0.53112   0.00000  Uiso   1.00
C931   C     0.50009   0.95710   0.49917   0.00000  Uiso   1.00
C932   C     0.49996   0.70956   0.50086   0.00000  Uiso   1.00
C933   C     0.46925   0.80662   0.35554   0.00000  Uiso   1.00
C934   C     0.53063   0.86013   0.64445   0.00000  Uiso   1.00
C935   C     0.46907   0.80639   0.63948   0.00000  Uiso   1.00
C936   C     0.53085   0.86033   0.36052   0.00000  Uiso   1.00
C937   C     0.65970   0.79316   0.44931   0.00000  Uiso   1.00
C938   C     0.33984   0.87405   0.55049   0.00000  Uiso   1.00
C939   C     0.43481   0.77618   0.61330   0.00000  Uiso   1.00
C940   C     0.49976   0.91247   0.49967   0.00000  Uiso   1.00
C941   C     0.56449   0.89095   0.38668   0.00000  Uiso   1.00
C942   C     0.40154   0.83237   0.48835   0.00000  Uiso   1.00
C943   C     0.59845   0.83443   0.51163   0.00000  Uiso   1.00
C944   C     0.34704   0.82534   0.48379   0.00000  Uiso   1.00
C945   C     0.65287   0.84173   0.51604   0.00000  Uiso   1.00
C946   C     0.46299   0.68854   0.47003   0.00000  Uiso   1.00
C947   C     0.53705   0.97812   0.53001   0.00000  Uiso   1.00
C948   C     0.46297   0.97879   0.46903   0.00000  Uiso   1.00
Cu949  Cu    0.50000   0.83334   0.54689   0.00000  Uiso   1.00
Cu950  Cu    0.50000   0.83333   0.45311   0.00000  Uiso   1.00
H951   H     0.44471   0.78530   0.37224   0.00000  Uiso   1.00
H952   H     0.44136   0.94193   0.41312   0.00000  Uiso   1.00
H953   H     0.59489   0.73031   0.54294   0.00000  Uiso   1.00
H954   H     0.55788   0.72448   0.58737   0.00000  Uiso   1.00
H955   H     0.36385   0.76302   0.58129   0.00000  Uiso   1.00
H956   H     0.57414   0.94988   0.40836   0.00000  Uiso   1.00
H957   H     0.55502   0.88157   0.62775   0.00000  Uiso   1.00
H958   H     0.61661   0.74138   0.43660   0.00000  Uiso   1.00
H959   H     0.34061   0.89714   0.61554   0.00000  Uiso   1.00
H960   H     0.38853   0.70179   0.44860   0.00000  Uiso   1.00
H961   H     0.42737   0.70391   0.40557   0.00000  Uiso   1.00
H962   H     0.61151   0.96498   0.55156   0.00000  Uiso   1.00
H963   H     0.57254   0.96261   0.59448   0.00000  Uiso   1.00
H964   H     0.40482   0.93648   0.45795   0.00000  Uiso   1.00
N965   N     0.50001   0.83334   0.61736   0.00000  Uiso   1.00
N966   N     0.49999   0.83332   0.38264   0.00000  Uiso   1.00
N967   N     0.42471   0.71126   0.44055   0.00000  Uiso   1.00
N968   N     0.57532   0.95539   0.55949   0.00000  Uiso   1.00
N969   N     0.42399   0.95775   0.43829   0.00000  Uiso   1.00
N970   N     0.57560   0.70886   0.56226   0.00000  Uiso   1.00
O971   O     0.50000   0.77322   0.53958   0.00000  Uiso   1.00
O972   O     0.62787   0.76129   0.46296   0.00000  Uiso   1.00
O973   O     0.36793   0.90187   0.53886   0.00000  Uiso   1.00
O974   O     0.65837   0.87340   0.59568   0.00000  Uiso   1.00
O975   O     0.44957   0.74100   0.60863   0.00000  Uiso   1.00
O976   O     0.38407   0.78662   0.59793   0.00000  Uiso   1.00
O977   O     0.60850   0.88197   0.40180   0.00000  Uiso   1.00
O978   O     0.54737   0.93132   0.39035   0.00000  Uiso   1.00
O979   O     0.50000   0.89345   0.46042   0.00000  Uiso   1.00
O980   O     0.50000   0.77321   0.46039   0.00000  Uiso   1.00
O981   O     0.50000   0.89346   0.53961   0.00000  Uiso   1.00
O982   O     0.42495   0.83334   0.53046   0.00000  Uiso   1.00
O983   O     0.57505   0.83333   0.46954   0.00000  Uiso   1.00
O984   O     0.42494   0.83333   0.45127   0.00000  Uiso   1.00
O985   O     0.57506   0.83334   0.54873   0.00000  Uiso   1.00
O986   O     0.33843   0.79399   0.40947   0.00000  Uiso   1.00
C987   C     0.83361   0.75420   0.50034   0.00000  Uiso   1.00
C988   C     0.87030   0.68786   0.53112   0.00000  Uiso   1.00
C989   C     0.83342   0.95710   0.49917   0.00000  Uiso   1.00
C990   C     0.83329   0.70956   0.50086   0.00000  Uiso   1.00
C991   C     0.80259   0.80662   0.35554   0.00000  Uiso   1.00
C992   C     0.86397   0.86013   0.64445   0.00000  Uiso   1.00
C993   C     0.80240   0.80639   0.63948   0.00000  Uiso   1.00
C994   C     0.86419   0.86033   0.36052   0.00000  Uiso   1.00
C995   C     0.99303   0.79316   0.44931   0.00000  Uiso   1.00
C996   C     0.67317   0.87405   0.55049   0.00000  Uiso   1.00
C997   C     0.76815   0.77618   0.61330   0.00000  Uiso   1.00
C998   C     0.83309   0.91247   0.49967   0.00000  Uiso   1.00
C999   C     0.89782   0.89095   0.38668   0.00000  Uiso   1.00
C1000  C     0.73488   0.83237   0.48835   0.00000  Uiso   1.00
C1001  C     0.93178   0.83443   0.51163   0.00000  Uiso   1.00
C1002  C     0.68037   0.82534   0.48379   0.00000  Uiso   1.00
C1003  C     0.98621   0.84173   0.51604   0.00000  Uiso   1.00
C1004  C     0.79632   0.68854   0.47003   0.00000  Uiso   1.00
C1005  C     0.87038   0.97812   0.53001   0.00000  Uiso   1.00
C1006  C     0.79630   0.97879   0.46903   0.00000  Uiso   1.00
Cu1007 Cu    0.83333   0.83334   0.54689   0.00000  Uiso   1.00
Cu1008 Cu    0.83333   0.83333   0.45311   0.00000  Uiso   1.00
H1009  H     0.77805   0.78530   0.37224   0.00000  Uiso   1.00
H1010  H     0.77470   0.94193   0.41312   0.00000  Uiso   1.00
H1011  H     0.92822   0.73031   0.54294   0.00000  Uiso   1.00
H1012  H     0.89121   0.72448   0.58737   0.00000  Uiso   1.00
H1013  H     0.69719   0.76302   0.58129   0.00000  Uiso   1.00
H1014  H     0.90747   0.94988   0.40836   0.00000  Uiso   1.00
H1015  H     0.88836   0.88157   0.62775   0.00000  Uiso   1.00
H1016  H     0.94995   0.74138   0.43660   0.00000  Uiso   1.00
H1017  H     0.67394   0.89714   0.61554   0.00000  Uiso   1.00
H1018  H     0.72186   0.70179   0.44860   0.00000  Uiso   1.00
H1019  H     0.76071   0.70391   0.40557   0.00000  Uiso   1.00
H1020  H     0.94484   0.96498   0.55156   0.00000  Uiso   1.00
H1021  H     0.90587   0.96261   0.59448   0.00000  Uiso   1.00
H1022  H     0.73815   0.93648   0.45795   0.00000  Uiso   1.00
N1023  N     0.83335   0.83334   0.61736   0.00000  Uiso   1.00
N1024  N     0.83332   0.83332   0.38264   0.00000  Uiso   1.00
N1025  N     0.75805   0.71126   0.44055   0.00000  Uiso   1.00
N1026  N     0.90866   0.95539   0.55949   0.00000  Uiso   1.00
N1027  N     0.75732   0.95775   0.43829   0.00000  Uiso   1.00
N1028  N     0.90894   0.70886   0.56226   0.00000  Uiso   1.00
O1029  O     0.83333   0.77322   0.53958   0.00000  Uiso   1.00
O1030  O     0.96121   0.76129   0.46296   0.00000  Uiso   1.00
O1031  O     0.70126   0.90187   0.53886   0.00000  Uiso   1.00
O1032  O     0.99170   0.87340   0.59568   0.00000  Uiso   1.00
O1033  O     0.78290   0.74100   0.60863   0.00000  Uiso   1.00
O1034  O     0.71740   0.78662   0.59793   0.00000  Uiso   1.00
O1035  O     0.94183   0.88197   0.40180   0.00000  Uiso   1.00
O1036  O     0.88071   0.93132   0.39035   0.00000  Uiso   1.00
O1037  O     0.83334   0.89345   0.46042   0.00000  Uiso   1.00
O1038  O     0.83333   0.77321   0.46039   0.00000  Uiso   1.00
O1039  O     0.83334   0.89346   0.53961   0.00000  Uiso   1.00
O1040  O     0.75828   0.83334   0.53046   0.00000  Uiso   1.00
O1041  O     0.90839   0.83333   0.46954   0.00000  Uiso   1.00
O1042  O     0.75828   0.83333   0.45127   0.00000  Uiso   1.00
O1043  O     0.90839   0.83334   0.54873   0.00000  Uiso   1.00
O1044  O     0.67177   0.79399   0.40947   0.00000  Uiso   1.00
C1045  C     0.16695   0.08753   0.83367   0.00000  Uiso   1.00
C1046  C     0.20363   0.02119   0.86446   0.00000  Uiso   1.00
C1047  C     0.16676   0.29044   0.83250   0.00000  Uiso   1.00
C1048  C     0.16662   0.04289   0.83420   0.00000  Uiso   1.00
C1049  C     0.13592   0.13995   0.68887   0.00000  Uiso   1.00
C1050  C     0.19730   0.19347   0.97779   0.00000  Uiso   1.00
C1051  C     0.13574   0.13973   0.97281   0.00000  Uiso   1.00
C1052  C     0.19752   0.19366   0.69385   0.00000  Uiso   1.00
C1053  C     0.32637   0.12650   0.78264   0.00000  Uiso   1.00
C1054  C     0.00650   0.20738   0.88382   0.00000  Uiso   1.00
C1055  C     0.10148   0.10952   0.94663   0.00000  Uiso   1.00
C1056  C     0.16643   0.24580   0.83300   0.00000  Uiso   1.00
C1057  C     0.23116   0.22429   0.72001   0.00000  Uiso   1.00
C1058  C     0.06821   0.16570   0.82168   0.00000  Uiso   1.00
C1059  C     0.26512   0.16776   0.84496   0.00000  Uiso   1.00
C1060  C     0.01370   0.15867   0.81713   0.00000  Uiso   1.00
C1061  C     0.31954   0.17506   0.84937   0.00000  Uiso   1.00
C1062  C     0.12965   0.02187   0.80337   0.00000  Uiso   1.00
C1063  C     0.20372   0.31145   0.86334   0.00000  Uiso   1.00
C1064  C     0.12964   0.31212   0.80236   0.00000  Uiso   1.00
Cu1065 Cu    0.16667   0.16667   0.88022   0.00000  Uiso   1.00
Cu1066 Cu    0.16667   0.16666   0.78645   0.00000  Uiso   1.00
H1067  H     0.11138   0.11864   0.70558   0.00000  Uiso   1.00
H1068  H     0.10803   0.27527   0.74645   0.00000  Uiso   1.00
H1069  H     0.26156   0.06365   0.87628   0.00000  Uiso   1.00
H1070  H     0.22455   0.05781   0.92070   0.00000  Uiso   1.00
H1071  H     0.03052   0.09636   0.91462   0.00000  Uiso   1.00
H1072  H     0.24081   0.28322   0.74169   0.00000  Uiso   1.00
H1073  H     0.22169   0.21490   0.96108   0.00000  Uiso   1.00
H1074  H     0.28328   0.07471   0.76993   0.00000  Uiso   1.00
H1075  H     0.00727   0.23047   0.94888   0.00000  Uiso   1.00
H1076  H     0.05519   0.03512   0.78194   0.00000  Uiso   1.00
H1077  H     0.09404   0.03724   0.73890   0.00000  Uiso   1.00
H1078  H     0.27818   0.29831   0.88489   0.00000  Uiso   1.00
H1079  H     0.23921   0.29595   0.92781   0.00000  Uiso   1.00
H1080  H     0.07148   0.26982   0.79128   0.00000  Uiso   1.00
N1081  N     0.16668   0.16668   0.95069   0.00000  Uiso   1.00
N1082  N     0.16665   0.16666   0.71597   0.00000  Uiso   1.00
N1083  N     0.09138   0.04459   0.77388   0.00000  Uiso   1.00
N1084  N     0.24199   0.28872   0.89283   0.00000  Uiso   1.00
N1085  N     0.09066   0.29109   0.77163   0.00000  Uiso   1.00
N1086  N     0.24227   0.04220   0.89559   0.00000  Uiso   1.00
O1087  O     0.16666   0.10655   0.87291   0.00000  Uiso   1.00
O1088  O     0.29454   0.09463   0.79630   0.00000  Uiso   1.00
O1089  O     0.03459   0.23520   0.87219   0.00000  Uiso   1.00
O1090  O     0.32504   0.20673   0.92901   0.00000  Uiso   1.00
O1091  O     0.11623   0.07433   0.94196   0.00000  Uiso   1.00
O1092  O     0.05073   0.11995   0.93127   0.00000  Uiso   1.00
O1093  O     0.27517   0.21530   0.73513   0.00000  Uiso   1.00
O1094  O     0.21404   0.26466   0.72368   0.00000  Uiso   1.00
O1095  O     0.16667   0.22678   0.79375   0.00000  Uiso   1.00
O1096  O     0.16666   0.10654   0.79372   0.00000  Uiso   1.00
O1097  O     0.16667   0.22679   0.87294   0.00000  Uiso   1.00
O1098  O     0.09161   0.16667   0.86379   0.00000  Uiso   1.00
O1099  O     0.24172   0.16666   0.80288   0.00000  Uiso   1.00
O1100  O     0.09161   0.16666   0.78460   0.00000  Uiso   1.00
O1101  O     0.24172   0.16667   0.88207   0.00000  Uiso   1.00
O1102  O     0.00510   0.12732   0.74280   0.00000  Uiso   1.00
C1103  C     0.50028   0.08753   0.83367   0.00000  Uiso   1.00
C1104  C     0.53697   0.02119   0.86446   0.00000  Uiso   1.00
C1105  C     0.50009   0.29044   0.83250   0.00000  Uiso   1.00
C1106  C     0.49996   0.04289   0.83420   0.00000  Uiso   1.00
C1107  C     0.46925   0.13995   0.68887   0.00000  Uiso   1.00
C1108  C     0.53063   0.19347   0.97779   0.00000  Uiso   1.00
C1109  C     0.46907   0.13973   0.97281   0.00000  Uiso   1.00
C1110  C     0.53085   0.19366   0.69385   0.00000  Uiso   1.00
C1111  C     0.65970   0.12650   0.78264   0.00000  Uiso   1.00
C1112  C     0.33984   0.20738   0.88382   0.00000  Uiso   1.00
C1113  C     0.43481   0.10952   0.94663   0.00000  Uiso   1.00
C1114  C     0.49976   0.24580   0.83300   0.00000  Uiso   1.00
C1115  C     0.56449   0.22429   0.72001   0.00000  Uiso   1.00
C1116  C     0.40154   0.16570   0.82168   0.00000  Uiso   1.00
C1117  C     0.59845   0.16776   0.84496   0.00000  Uiso   1.00
C1118  C     0.34704   0.15867   0.81713   0.00000  Uiso   1.00
C1119  C     0.65287   0.17506   0.84937   0.00000  Uiso   1.00
C1120  C     0.46299   0.02187   0.80337   0.00000  Uiso   1.00
C1121  C     0.53705   0.31145   0.86334   0.00000  Uiso   1.00
C1122  C     0.46297   0.31212   0.80236   0.00000  Uiso   1.00
Cu1123 Cu    0.50000   0.16667   0.88022   0.00000  Uiso   1.00
Cu1124 Cu    0.50000   0.16666   0.78645   0.00000  Uiso   1.00
H1125  H     0.44471   0.11864   0.70558   0.00000  Uiso   1.00
H1126  H     0.44136   0.27527   0.74645   0.00000  Uiso   1.00
H1127  H     0.59489   0.06365   0.87628   0.00000  Uiso   1.00
H1128  H     0.55788   0.05781   0.92070   0.00000  Uiso   1.00
H1129  H     0.36385   0.09636   0.91462   0.00000  Uiso   1.00
H1130  H     0.57414   0.28322   0.74169   0.00000  Uiso   1.00
H1131  H     0.55502   0.21490   0.96108   0.00000  Uiso   1.00
H1132  H     0.61661   0.07471   0.76993   0.00000  Uiso   1.00
H1133  H     0.34061   0.23047   0.94888   0.00000  Uiso   1.00
H1134  H     0.38853   0.03512   0.78194   0.00000  Uiso   1.00
H1135  H     0.42737   0.03724   0.73890   0.00000  Uiso   1.00
H1136  H     0.61151   0.29831   0.88489   0.00000  Uiso   1.00
H1137  H     0.57254   0.29595   0.92781   0.00000  Uiso   1.00
H1138  H     0.40482   0.26982   0.79128   0.00000  Uiso   1.00
N1139  N     0.50001   0.16668   0.95069   0.00000  Uiso   1.00
N1140  N     0.49999   0.16666   0.71597   0.00000  Uiso   1.00
N1141  N     0.42471   0.04459   0.77388   0.00000  Uiso   1.00
N1142  N     0.57532   0.28872   0.89283   0.00000  Uiso   1.00
N1143  N     0.42399   0.29109   0.77163   0.00000  Uiso   1.00
N1144  N     0.57560   0.04220   0.89559   0.00000  Uiso   1.00
O1145  O     0.50000   0.10655   0.87291   0.00000  Uiso   1.00
O1146  O     0.62787   0.09463   0.79630   0.00000  Uiso   1.00
O1147  O     0.36793   0.23520   0.87219   0.00000  Uiso   1.00
O1148  O     0.65837   0.20673   0.92901   0.00000  Uiso   1.00
O1149  O     0.44957   0.07433   0.94196   0.00000  Uiso   1.00
O1150  O     0.38407   0.11995   0.93127   0.00000  Uiso   1.00
O1151  O     0.60850   0.21530   0.73513   0.00000  Uiso   1.00
O1152  O     0.54737   0.26466   0.72368   0.00000  Uiso   1.00
O1153  O     0.50000   0.22678   0.79375   0.00000  Uiso   1.00
O1154  O     0.50000   0.10654   0.79372   0.00000  Uiso   1.00
O1155  O     0.50000   0.22679   0.87294   0.00000  Uiso   1.00
O1156  O     0.42495   0.16667   0.86379   0.00000  Uiso   1.00
O1157  O     0.57505   0.16666   0.80288   0.00000  Uiso   1.00
O1158  O     0.42494   0.16666   0.78460   0.00000  Uiso   1.00
O1159  O     0.57506   0.16667   0.88207   0.00000  Uiso   1.00
O1160  O     0.33843   0.12732   0.74280   0.00000  Uiso   1.00
C1161  C     0.83361   0.08753   0.83367   0.00000  Uiso   1.00
C1162  C     0.87030   0.02119   0.86446   0.00000  Uiso   1.00
C1163  C     0.83342   0.29044   0.83250   0.00000  Uiso   1.00
C1164  C     0.83329   0.04289   0.83420   0.00000  Uiso   1.00
C1165  C     0.80259   0.13995   0.68887   0.00000  Uiso   1.00
C1166  C     0.86397   0.19347   0.97779   0.00000  Uiso   1.00
C1167  C     0.80240   0.13973   0.97281   0.00000  Uiso   1.00
C1168  C     0.86419   0.19366   0.69385   0.00000  Uiso   1.00
C1169  C     0.99303   0.12650   0.78264   0.00000  Uiso   1.00
C1170  C     0.67317   0.20738   0.88382   0.00000  Uiso   1.00
C1171  C     0.76815   0.10952   0.94663   0.00000  Uiso   1.00
C1172  C     0.83309   0.24580   0.83300   0.00000  Uiso   1.00
C1173  C     0.89782   0.22429   0.72001   0.00000  Uiso   1.00
C1174  C     0.73488   0.16570   0.82168   0.00000  Uiso   1.00
C1175  C     0.93178   0.16776   0.84496   0.00000  Uiso   1.00
C1176  C     0.68037   0.15867   0.81713   0.00000  Uiso   1.00
C1177  C     0.98621   0.17506   0.84937   0.00000  Uiso   1.00
C1178  C     0.79632   0.02187   0.80337   0.00000  Uiso   1.00
C1179  C     0.87038   0.31145   0.86334   0.00000  Uiso   1.00
C1180  C     0.79630   0.31212   0.80236   0.00000  Uiso   1.00
Cu1181 Cu    0.83333   0.16667   0.88022   0.00000  Uiso   1.00
Cu1182 Cu    0.83333   0.16666   0.78645   0.00000  Uiso   1.00
H1183  H     0.77805   0.11864   0.70558   0.00000  Uiso   1.00
H1184  H     0.77470   0.27527   0.74645   0.00000  Uiso   1.00
H1185  H     0.92822   0.06365   0.87628   0.00000  Uiso   1.00
H1186  H     0.89121   0.05781   0.92070   0.00000  Uiso   1.00
H1187  H     0.69719   0.09636   0.91462   0.00000  Uiso   1.00
H1188  H     0.90747   0.28322   0.74169   0.00000  Uiso   1.00
H1189  H     0.88836   0.21490   0.96108   0.00000  Uiso   1.00
H1190  H     0.94995   0.07471   0.76993   0.00000  Uiso   1.00
H1191  H     0.67394   0.23047   0.94888   0.00000  Uiso   1.00
H1192  H     0.72186   0.03512   0.78194   0.00000  Uiso   1.00
H1193  H     0.76071   0.03724   0.73890   0.00000  Uiso   1.00
H1194  H     0.94484   0.29831   0.88489   0.00000  Uiso   1.00
H1195  H     0.90587   0.29595   0.92781   0.00000  Uiso   1.00
H1196  H     0.73815   0.26982   0.79128   0.00000  Uiso   1.00
N1197  N     0.83335   0.16668   0.95069   0.00000  Uiso   1.00
N1198  N     0.83332   0.16666   0.71597   0.00000  Uiso   1.00
N1199  N     0.75805   0.04459   0.77388   0.00000  Uiso   1.00
N1200  N     0.90866   0.28872   0.89283   0.00000  Uiso   1.00
N1201  N     0.75732   0.29109   0.77163   0.00000  Uiso   1.00
N1202  N     0.90894   0.04220   0.89559   0.00000  Uiso   1.00
O1203  O     0.83333   0.10655   0.87291   0.00000  Uiso   1.00
O1204  O     0.96121   0.09463   0.79630   0.00000  Uiso   1.00
O1205  O     0.70126   0.23520   0.87219   0.00000  Uiso   1.00
O1206  O     0.99170   0.20673   0.92901   0.00000  Uiso   1.00
O1207  O     0.78290   0.07433   0.94196   0.00000  Uiso   1.00
O1208  O     0.71740   0.11995   0.93127   0.00000  Uiso   1.00
O1209  O     0.94183   0.21530   0.73513   0.00000  Uiso   1.00
O1210  O     0.88071   0.26466   0.72368   0.00000  Uiso   1.00
O1211  O     0.83334   0.22678   0.79375   0.00000  Uiso   1.00
O1212  O     0.83333   0.10654   0.79372   0.00000  Uiso   1.00
O1213  O     0.83334   0.22679   0.87294   0.00000  Uiso   1.00
O1214  O     0.75828   0.16667   0.86379   0.00000  Uiso   1.00
O1215  O     0.90839   0.16666   0.80288   0.00000  Uiso   1.00
O1216  O     0.75828   0.16666   0.78460   0.00000  Uiso   1.00
O1217  O     0.90839   0.16667   0.88207   0.00000  Uiso   1.00
O1218  O     0.67177   0.12732   0.74280   0.00000  Uiso   1.00
C1219  C     0.16695   0.42086   0.83367   0.00000  Uiso   1.00
C1220  C     0.20363   0.35453   0.86446   0.00000  Uiso   1.00
C1221  C     0.16676   0.62377   0.83250   0.00000  Uiso   1.00
C1222  C     0.16662   0.37622   0.83420   0.00000  Uiso   1.00
C1223  C     0.13592   0.47329   0.68887   0.00000  Uiso   1.00
C1224  C     0.19730   0.52680   0.97779   0.00000  Uiso   1.00
C1225  C     0.13574   0.47306   0.97281   0.00000  Uiso   1.00
C1226  C     0.19752   0.52700   0.69385   0.00000  Uiso   1.00
C1227  C     0.32637   0.45983   0.78264   0.00000  Uiso   1.00
C1228  C     0.00650   0.54072   0.88382   0.00000  Uiso   1.00
C1229  C     0.10148   0.44285   0.94663   0.00000  Uiso   1.00
C1230  C     0.16643   0.57913   0.83300   0.00000  Uiso   1.00
C1231  C     0.23116   0.55762   0.72001   0.00000  Uiso   1.00
C1232  C     0.06821   0.49904   0.82168   0.00000  Uiso   1.00
C1233  C     0.26512   0.50109   0.84496   0.00000  Uiso   1.00
C1234  C     0.01370   0.49200   0.81713   0.00000  Uiso   1.00
C1235  C     0.31954   0.50840   0.84937   0.00000  Uiso   1.00
C1236  C     0.12965   0.35520   0.80337   0.00000  Uiso   1.00
C1237  C     0.20372   0.64478   0.86334   0.00000  Uiso   1.00
C1238  C     0.12964   0.64546   0.80236   0.00000  Uiso   1.00
Cu1239 Cu    0.16667   0.50001   0.88022   0.00000  Uiso   1.00
Cu1240 Cu    0.16667   0.49999   0.78645   0.00000  Uiso   1.00
H1241  H     0.11138   0.45197   0.70558   0.00000  Uiso   1.00
H1242  H     0.10803   0.60860   0.74645   0.00000  Uiso   1.00
H1243  H     0.26156   0.39698   0.87628   0.00000  Uiso   1.00
H1244  H     0.22455   0.39114   0.92070   0.00000  Uiso   1.00
H1245  H     0.03052   0.42969   0.91462   0.00000  Uiso   1.00
H1246  H     0.24081   0.61655   0.74169   0.00000  Uiso   1.00
H1247  H     0.22169   0.54823   0.96108   0.00000  Uiso   1.00
H1248  H     0.28328   0.40805   0.76993   0.00000  Uiso   1.00
H1249  H     0.00727   0.56380   0.94888   0.00000  Uiso   1.00
H1250  H     0.05519   0.36845   0.78194   0.00000  Uiso   1.00
H1251  H     0.09404   0.37057   0.73890   0.00000  Uiso   1.00
H1252  H     0.27818   0.63164   0.88489   0.00000  Uiso   1.00
H1253  H     0.23921   0.62928   0.92781   0.00000  Uiso   1.00
H1254  H     0.07148   0.60315   0.79128   0.00000  Uiso   1.00
N1255  N     0.16668   0.50001   0.95069   0.00000  Uiso   1.00
N1256  N     0.16665   0.49999   0.71597   0.00000  Uiso   1.00
N1257  N     0.09138   0.37793   0.77388   0.00000  Uiso   1.00
N1258  N     0.24199   0.62205   0.89283   0.00000  Uiso   1.00
N1259  N     0.09066   0.62442   0.77163   0.00000  Uiso   1.00
N1260  N     0.24227   0.37553   0.89559   0.00000  Uiso   1.00
O1261  O     0.16666   0.43989   0.87291   0.00000  Uiso   1.00
O1262  O     0.29454   0.42796   0.79630   0.00000  Uiso   1.00
O1263  O     0.03459   0.56854   0.87219   0.00000  Uiso   1.00
O1264  O     0.32504   0.54006   0.92901   0.00000  Uiso   1.00
O1265  O     0.11623   0.40767   0.94196   0.00000  Uiso   1.00
O1266  O     0.05073   0.45328   0.93127   0.00000  Uiso   1.00
O1267  O     0.27517   0.54864   0.73513   0.00000  Uiso   1.00
O1268  O     0.21404   0.59799   0.72368   0.00000  Uiso   1.00
O1269  O     0.16667   0.56011   0.79375   0.00000  Uiso   1.00
O1270  O     0.16666   0.43988   0.79372   0.00000  Uiso   1.00
O1271  O     0.16667   0.56012   0.87294   0.00000  Uiso   1.00
O1272  O     0.09161   0.50000   0.86379   0.00000  Uiso   1.00
O1273  O     0.24172   0.50000   0.80288   0.00000  Uiso   1.00
O1274  O     0.09161   0.49999   0.78460   0.00000  Uiso   1.00
O1275  O     0.24172   0.50001   0.88207   0.00000  Uiso   1.00
O1276  O     0.00510   0.46066   0.74280   0.00000  Uiso   1.00
C1277  C     0.50028   0.42086   0.83367   0.00000  Uiso   1.00
C1278  C     0.53697   0.35453   0.86446   0.00000  Uiso   1.00
C1279  C     0.50009   0.62377   0.83250   0.00000  Uiso   1.00
C1280  C     0.49996   0.37622   0.83420   0.00000  Uiso   1.00
C1281  C     0.46925   0.47329   0.68887   0.00000  Uiso   1.00
C1282  C     0.53063   0.52680   0.97779   0.00000  Uiso   1.00
C1283  C     0.46907   0.47306   0.97281   0.00000  Uiso   1.00
C1284  C     0.53085   0.52700   0.69385   0.00000  Uiso   1.00
C1285  C     0.65970   0.45983   0.78264   0.00000  Uiso   1.00
C1286  C     0.33984   0.54072   0.88382   0.00000  Uiso   1.00
C1287  C     0.43481   0.44285   0.94663   0.00000  Uiso   1.00
C1288  C     0.49976   0.57913   0.83300   0.00000  Uiso   1.00
C1289  C     0.56449   0.55762   0.72001   0.00000  Uiso   1.00
C1290  C     0.40154   0.49904   0.82168   0.00000  Uiso   1.00
C1291  C     0.59845   0.50109   0.84496   0.00000  Uiso   1.00
C1292  C     0.34704   0.49200   0.81713   0.00000  Uiso   1.00
C1293  C     0.65287   0.50840   0.84937   0.00000  Uiso   1.00
C1294  C     0.46299   0.35520   0.80337   0.00000  Uiso   1.00
C1295  C     0.53705   0.64478   0.86334   0.00000  Uiso   1.00
C1296  C     0.46297   0.64546   0.80236   0.00000  Uiso   1.00
Cu1297 Cu    0.50000   0.50001   0.88022   0.00000  Uiso   1.00
Cu1298 Cu    0.50000   0.49999   0.78645   0.00000  Uiso   1.00
H1299  H     0.44471   0.45197   0.70558   0.00000  Uiso   1.00
H1300  H     0.44136   0.60860   0.74645   0.00000  Uiso   1.00
H1301  H     0.59489   0.39698   0.87628   0.00000  Uiso   1.00
H1302  H     0.55788   0.39114   0.92070   0.00000  Uiso   1.00
H1303  H     0.36385   0.42969   0.91462   0.00000  Uiso   1.00
H1304  H     0.57414   0.61655   0.74169   0.00000  Uiso   1.00
H1305  H     0.55502   0.54823   0.96108   0.00000  Uiso   1.00
H1306  H     0.61661   0.40805   0.76993   0.00000  Uiso   1.00
H1307  H     0.34061   0.56380   0.94888   0.00000  Uiso   1.00
H1308  H     0.38853   0.36845   0.78194   0.00000  Uiso   1.00
H1309  H     0.42737   0.37057   0.73890   0.00000  Uiso   1.00
H1310  H     0.61151   0.63164   0.88489   0.00000  Uiso   1.00
H1311  H     0.57254   0.62928   0.92781   0.00000  Uiso   1.00
H1312  H     0.40482   0.60315   0.79128   0.00000  Uiso   1.00
N1313  N     0.50001   0.50001   0.95069   0.00000  Uiso   1.00
N1314  N     0.49999   0.49999   0.71597   0.00000  Uiso   1.00
N1315  N     0.42471   0.37793   0.77388   0.00000  Uiso   1.00
N1316  N     0.57532   0.62205   0.89283   0.00000  Uiso   1.00
N1317  N     0.42399   0.62442   0.77163   0.00000  Uiso   1.00
N1318  N     0.57560   0.37553   0.89559   0.00000  Uiso   1.00
O1319  O     0.50000   0.43989   0.87291   0.00000  Uiso   1.00
O1320  O     0.62787   0.42796   0.79630   0.00000  Uiso   1.00
O1321  O     0.36793   0.56854   0.87219   0.00000  Uiso   1.00
O1322  O     0.65837   0.54006   0.92901   0.00000  Uiso   1.00
O1323  O     0.44957   0.40767   0.94196   0.00000  Uiso   1.00
O1324  O     0.38407   0.45328   0.93127   0.00000  Uiso   1.00
O1325  O     0.60850   0.54864   0.73513   0.00000  Uiso   1.00
O1326  O     0.54737   0.59799   0.72368   0.00000  Uiso   1.00
O1327  O     0.50000   0.56011   0.79375   0.00000  Uiso   1.00
O1328  O     0.50000   0.43988   0.79372   0.00000  Uiso   1.00
O1329  O     0.50000   0.56012   0.87294   0.00000  Uiso   1.00
O1330  O     0.42495   0.50000   0.86379   0.00000  Uiso   1.00
O1331  O     0.57505   0.50000   0.80288   0.00000  Uiso   1.00
O1332  O     0.42494   0.49999   0.78460   0.00000  Uiso   1.00
O1333  O     0.57506   0.50001   0.88207   0.00000  Uiso   1.00
O1334  O     0.33843   0.46066   0.74280   0.00000  Uiso   1.00
C1335  C     0.83361   0.42086   0.83367   0.00000  Uiso   1.00
C1336  C     0.87030   0.35453   0.86446   0.00000  Uiso   1.00
C1337  C     0.83342   0.62377   0.83250   0.00000  Uiso   1.00
C1338  C     0.83329   0.37622   0.83420   0.00000  Uiso   1.00
C1339  C     0.80259   0.47329   0.68887   0.00000  Uiso   1.00
C1340  C     0.86397   0.52680   0.97779   0.00000  Uiso   1.00
C1341  C     0.80240   0.47306   0.97281   0.00000  Uiso   1.00
C1342  C     0.86419   0.52700   0.69385   0.00000  Uiso   1.00
C1343  C     0.99303   0.45983   0.78264   0.00000  Uiso   1.00
C1344  C     0.67317   0.54072   0.88382   0.00000  Uiso   1.00
C1345  C     0.76815   0.44285   0.94663   0.00000  Uiso   1.00
C1346  C     0.83309   0.57913   0.83300   0.00000  Uiso   1.00
C1347  C     0.89782   0.55762   0.72001   0.00000  Uiso   1.00
C1348  C     0.73488   0.49904   0.82168   0.00000  Uiso   1.00
C1349  C     0.93178   0.50109   0.84496   0.00000  Uiso   1.00
C1350  C     0.68037   0.49200   0.81713   0.00000  Uiso   1.00
C1351  C     0.98621   0.50840   0.84937   0.00000  Uiso   1.00
C1352  C     0.79632   0.35520   0.80337   0.00000  Uiso   1.00
C1353  C     0.87038   0.64478   0.86334   0.00000  Uiso   1.00
C1354  C     0.79630   0.64546   0.80236   0.00000  Uiso   1.00
Cu1355 Cu    0.83333   0.50001   0.88022   0.00000  Uiso   1.00
Cu1356 Cu    0.83333   0.49999   0.78645   0.00000  Uiso   1.00
H1357  H     0.77805   0.45197   0.70558   0.00000  Uiso   1.00
H1358  H     0.77470   0.60860   0.74645   0.00000  Uiso   1.00
H1359  H     0.92822   0.39698   0.87628   0.00000  Uiso   1.00
H1360  H     0.89121   0.39114   0.92070   0.00000  Uiso   1.00
H1361  H     0.69719   0.42969   0.91462   0.00000  Uiso   1.00
H1362  H     0.90747   0.61655   0.74169   0.00000  Uiso   1.00
H1363  H     0.88836   0.54823   0.96108   0.00000  Uiso   1.00
H1364  H     0.94995   0.40805   0.76993   0.00000  Uiso   1.00
H1365  H     0.67394   0.56380   0.94888   0.00000  Uiso   1.00
H1366  H     0.72186   0.36845   0.78194   0.00000  Uiso   1.00
H1367  H     0.76071   0.37057   0.73890   0.00000  Uiso   1.00
H1368  H     0.94484   0.63164   0.88489   0.00000  Uiso   1.00
H1369  H     0.90587   0.62928   0.92781   0.00000  Uiso   1.00
H1370  H     0.73815   0.60315   0.79128   0.00000  Uiso   1.00
N1371  N     0.83335   0.50001   0.95069   0.00000  Uiso   1.00
N1372  N     0.83332   0.49999   0.71597   0.00000  Uiso   1.00
N1373  N     0.75805   0.37793   0.77388   0.00000  Uiso   1.00
N1374  N     0.90866   0.62205   0.89283   0.00000  Uiso   1.00
N1375  N     0.75732   0.62442   0.77163   0.00000  Uiso   1.00
N1376  N     0.90894   0.37553   0.89559   0.00000  Uiso   1.00
O1377  O     0.83333   0.43989   0.87291   0.00000  Uiso   1.00
O1378  O     0.96121   0.42796   0.79630   0.00000  Uiso   1.00
O1379  O     0.70126   0.56854   0.87219   0.00000  Uiso   1.00
O1380  O     0.99170   0.54006   0.92901   0.00000  Uiso   1.00
O1381  O     0.78290   0.40767   0.94196   0.00000  Uiso   1.00
O1382  O     0.71740   0.45328   0.93127   0.00000  Uiso   1.00
O1383  O     0.94183   0.54864   0.73513   0.00000  Uiso   1.00
O1384  O     0.88071   0.59799   0.72368   0.00000  Uiso   1.00
O1385  O     0.83334   0.56011   0.79375   0.00000  Uiso   1.00
O1386  O     0.83333   0.43988   0.79372   0.00000  Uiso   1.00
O1387  O     0.83334   0.56012   0.87294   0.00000  Uiso   1.00
O1388  O     0.75828   0.50000   0.86379   0.00000  Uiso   1.00
O1389  O     0.90839   0.50000   0.80288   0.00000  Uiso   1.00
O1390  O     0.75828   0.49999   0.78460   0.00000  Uiso   1.00
O1391  O     0.90839   0.50001   0.88207   0.00000  Uiso   1.00
O1392  O     0.67177   0.46066   0.74280   0.00000  Uiso   1.00
C1393  C     0.16695   0.75420   0.83367   0.00000  Uiso   1.00
C1394  C     0.20363   0.68786   0.86446   0.00000  Uiso   1.00
C1395  C     0.16676   0.95710   0.83250   0.00000  Uiso   1.00
C1396  C     0.16662   0.70956   0.83420   0.00000  Uiso   1.00
C1397  C     0.13592   0.80662   0.68887   0.00000  Uiso   1.00
C1398  C     0.19730   0.86013   0.97779   0.00000  Uiso   1.00
C1399  C     0.13574   0.80639   0.97281   0.00000  Uiso   1.00
C1400  C     0.19752   0.86033   0.69385   0.00000  Uiso   1.00
C1401  C     0.32637   0.79316   0.78264   0.00000  Uiso   1.00
C1402  C     0.00650   0.87405   0.88382   0.00000  Uiso   1.00
C1403  C     0.10148   0.77618   0.94663   0.00000  Uiso   1.00
C1404  C     0.16643   0.91247   0.83300   0.00000  Uiso   1.00
C1405  C     0.23116   0.89095   0.72001   0.00000  Uiso   1.00
C1406  C     0.06821   0.83237   0.82168   0.00000  Uiso   1.00
C1407  C     0.26512   0.83443   0.84496   0.00000  Uiso   1.00
C1408  C     0.01370   0.82534   0.81713   0.00000  Uiso   1.00
C1409  C     0.31954   0.84173   0.84937   0.00000  Uiso   1.00
C1410  C     0.12965   0.68854   0.80337   0.00000  Uiso   1.00
C1411  C     0.20372   0.97812   0.86334   0.00000  Uiso   1.00
C1412  C     0.12964   0.97879   0.80236   0.00000  Uiso   1.00
Cu1413 Cu    0.16667   0.83334   0.88022   0.00000  Uiso   1.00
Cu1414 Cu    0.16667   0.83333   0.78645   0.00000  Uiso   1.00
H1415  H     0.11138   0.78530   0.70558   0.00000  Uiso   1.00
H1416  H     0.10803   0.94193   0.74645   0.00000  Uiso   1.00
H1417  H     0.26156   0.73031   0.87628   0.00000  Uiso   1.00
H1418  H     0.22455   0.72448   0.92070   0.00000  Uiso   1.00
H1419  H     0.03052   0.76302   0.91462   0.00000  Uiso   1.00
H1420  H     0.24081   0.94988   0.74169   0.00000  Uiso   1.00
H1421  H     0.22169   0.88157   0.96108   0.00000  Uiso   1.00
H1422  H     0.28328   0.74138   0.76993   0.00000  Uiso   1.00
H1423  H     0.00727   0.89714   0.94888   0.00000  Uiso   1.00
H1424  H     0.05519   0.70179   0.78194   0.00000  Uiso   1.00
H1425  H     0.09404   0.70391   0.73890   0.00000  Uiso   1.00
H1426  H     0.27818   0.96498   0.88489   0.00000  Uiso   1.00
H1427  H     0.23921   0.96261   0.92781   0.00000  Uiso   1.00
H1428  H     0.07148   0.93648   0.79128   0.00000  Uiso   1.00
N1429  N     0.16668   0.83334   0.95069   0.00000  Uiso   1.00
N1430  N     0.16665   0.83332   0.71597   0.00000  Uiso   1.00
N1431  N     0.09138   0.71126   0.77388   0.00000  Uiso   1.00
N1432  N     0.24199   0.95539   0.89283   0.00000  Uiso   1.00
N1433  N     0.09066   0.95775   0.77163   0.00000  Uiso   1.00
N1434  N     0.24227   0.70886   0.89559   0.00000  Uiso   1.00
O1435  O     0.16666   0.77322   0.87291   0.00000  Uiso   1.00
O1436  O     0.29454   0.76129   0.79630   0.00000  Uiso   1.00
O1437  O     0.03459   0.90187   0.87219   0.00000  Uiso   1.00
O1438  O     0.32504   0.87340   0.92901   0.00000  Uiso   1.00
O1439  O     0.11623   0.74100   0.94196   0.00000  Uiso   1.00
O1440  O     0.05073   0.78662   0.93127   0.00000  Uiso   1.00
O1441  O     0.27517   0.88197   0.73513   0.00000  Uiso   1.00
O1442  O     0.21404   0.93132   0.72368   0.00000  Uiso   1.00
O1443  O     0.16667   0.89345   0.79375   0.00000  Uiso   1.00
O1444  O     0.16666   0.77321   0.79372   0.00000  Uiso   1.00
O1445  O     0.16667   0.89346   0.87294   0.00000  Uiso   1.00
O1446  O     0.09161   0.83334   0.86379   0.00000  Uiso   1.00
O1447  O     0.24172   0.83333   0.80288   0.00000  Uiso   1.00
O1448  O     0.09161   0.83333   0.78460   0.00000  Uiso   1.00
O1449  O     0.24172   0.83334   0.88207   0.00000  Uiso   1.00
O1450  O     0.00510   0.79399   0.74280   0.00000  Uiso   1.00
C1451  C     0.50028   0.75420   0.83367   0.00000  Uiso   1.00
C1452  C     0.53697   0.68786   0.86446   0.00000  Uiso   1.00
C1453  C     0.50009   0.95710   0.83250   0.00000  Uiso   1.00
C1454  C     0.49996   0.70956   0.83420   0.00000  Uiso   1.00
C1455  C     0.46925   0.80662   0.68887   0.00000  Uiso   1.00
C1456  C     0.53063   0.86013   0.97779   0.00000  Uiso   1.00
C1457  C     0.46907   0.80639   0.97281   0.00000  Uiso   1.00
C1458  C     0.53085   0.86033   0.69385   0.00000  Uiso   1.00
C1459  C     0.65970   0.79316   0.78264   0.00000  Uiso   1.00
C1460  C     0.33984   0.87405   0.88382   0.00000  Uiso   1.00
C1461  C     0.43481   0.77618   0.94663   0.00000  Uiso   1.00
C1462  C     0.49976   0.91247   0.83300   0.00000  Uiso   1.00
C1463  C     0.56449   0.89095   0.72001   0.00000  Uiso   1.00
C1464  C     0.40154   0.83237   0.82168   0.00000  Uiso   1.00
C1465  C     0.59845   0.83443   0.84496   0.00000  Uiso   1.00
C1466  C     0.34704   0.82534   0.81713   0.00000  Uiso   1.00
C1467  C     0.65287   0.84173   0.84937   0.00000  Uiso   1.00
C1468  C     0.46299   0.68854   0.80337   0.00000  Uiso   1.00
C1469  C     0.53705   0.97812   0.86334   0.00000  Uiso   1.00
C1470  C     0.46297   0.97879   0.80236   0.00000  Uiso   1.00
Cu1471 Cu    0.50000   0.83334   0.88022   0.00000  Uiso   1.00
Cu1472 Cu    0.50000   0.83333   0.78645   0.00000  Uiso   1.00
H1473  H     0.44471   0.78530   0.70558   0.00000  Uiso   1.00
H1474  H     0.44136   0.94193   0.74645   0.00000  Uiso   1.00
H1475  H     0.59489   0.73031   0.87628   0.00000  Uiso   1.00
H1476  H     0.55788   0.72448   0.92070   0.00000  Uiso   1.00
H1477  H     0.36385   0.76302   0.91462   0.00000  Uiso   1.00
H1478  H     0.57414   0.94988   0.74169   0.00000  Uiso   1.00
H1479  H     0.55502   0.88157   0.96108   0.00000  Uiso   1.00
H1480  H     0.61661   0.74138   0.76993   0.00000  Uiso   1.00
H1481  H     0.34061   0.89714   0.94888   0.00000  Uiso   1.00
H1482  H     0.38853   0.70179   0.78194   0.00000  Uiso   1.00
H1483  H     0.42737   0.70391   0.73890   0.00000  Uiso   1.00
H1484  H     0.61151   0.96498   0.88489   0.00000  Uiso   1.00
H1485  H     0.57254   0.96261   0.92781   0.00000  Uiso   1.00
H1486  H     0.40482   0.93648   0.79128   0.00000  Uiso   1.00
N1487  N     0.50001   0.83334   0.95069   0.00000  Uiso   1.00
N1488  N     0.49999   0.83332   0.71597   0.00000  Uiso   1.00
N1489  N     0.42471   0.71126   0.77388   0.00000  Uiso   1.00
N1490  N     0.57532   0.95539   0.89283   0.00000  Uiso   1.00
N1491  N     0.42399   0.95775   0.77163   0.00000  Uiso   1.00
N1492  N     0.57560   0.70886   0.89559   0.00000  Uiso   1.00
O1493  O     0.50000   0.77322   0.87291   0.00000  Uiso   1.00
O1494  O     0.62787   0.76129   0.79630   0.00000  Uiso   1.00
O1495  O     0.36793   0.90187   0.87219   0.00000  Uiso   1.00
O1496  O     0.65837   0.87340   0.92901   0.00000  Uiso   1.00
O1497  O     0.44957   0.74100   0.94196   0.00000  Uiso   1.00
O1498  O     0.38407   0.78662   0.93127   0.00000  Uiso   1.00
O1499  O     0.60850   0.88197   0.73513   0.00000  Uiso   1.00
O1500  O     0.54737   0.93132   0.72368   0.00000  Uiso   1.00
O1501  O     0.50000   0.89345   0.79375   0.00000  Uiso   1.00
O1502  O     0.50000   0.77321   0.79372   0.00000  Uiso   1.00
O1503  O     0.50000   0.89346   0.87294   0.00000  Uiso   1.00
O1504  O     0.42495   0.83334   0.86379   0.00000  Uiso   1.00
O1505  O     0.57505   0.83333   0.80288   0.00000  Uiso   1.00
O1506  O     0.42494   0.83333   0.78460   0.00000  Uiso   1.00
O1507  O     0.57506   0.83334   0.88207   0.00000  Uiso   1.00
O1508  O     0.33843   0.79399   0.74280   0.00000  Uiso   1.00
C1509  C     0.83361   0.75420   0.83367   0.00000  Uiso   1.00
C1510  C     0.87030   0.68786   0.86446   0.00000  Uiso   1.00
C1511  C     0.83342   0.95710   0.83250   0.00000  Uiso   1.00
C1512  C     0.83329   0.70956   0.83420   0.00000  Uiso   1.00
C1513  C     0.80259   0.80662   0.68887   0.00000  Uiso   1.00
C1514  C     0.86397   0.86013   0.97779   0.00000  Uiso   1.00
C1515  C     0.80240   0.80639   0.97281   0.00000  Uiso   1.00
C1516  C     0.86419   0.86033   0.69385   0.00000  Uiso   1.00
C1517  C     0.99303   0.79316   0.78264   0.00000  Uiso   1.00
C1518  C     0.67317   0.87405   0.88382   0.00000  Uiso   1.00
C1519  C     0.76815   0.77618   0.94663   0.00000  Uiso   1.00
C1520  C     0.83309   0.91247   0.83300   0.00000  Uiso   1.00
C1521  C     0.89782   0.89095   0.72001   0.00000  Uiso   1.00
C1522  C     0.73488   0.83237   0.82168   0.00000  Uiso   1.00
C1523  C     0.93178   0.83443   0.84496   0.00000  Uiso   1.00
C1524  C     0.68037   0.82534   0.81713   0.00000  Uiso   1.00
C1525  C     0.98621   0.84173   0.84937   0.00000  Uiso   1.00
C1526  C     0.79632   0.68854   0.80337   0.00000  Uiso   1.00
C1527  C     0.87038   0.97812   0.86334   0.00000  Uiso   1.00
C1528  C     0.79630   0.97879   0.80236   0.00000  Uiso   1.00
Cu1529 Cu    0.83333   0.83334   0.88022   0.00000  Uiso   1.00
Cu1530 Cu    0.83333   0.83333   0.78645   0.00000  Uiso   1.00
H1531  H     0.77805   0.78530   0.70558   0.00000  Uiso   1.00
H1532  H     0.77470   0.94193   0.74645   0.00000  Uiso   1.00
H1533  H     0.92822   0.73031   0.87628   0.00000  Uiso   1.00
H1534  H     0.89121   0.72448   0.92070   0.00000  Uiso   1.00
H1535  H     0.69719   0.76302   0.91462   0.00000  Uiso   1.00
H1536  H     0.90747   0.94988   0.74169   0.00000  Uiso   1.00
H1537  H     0.88836   0.88157   0.96108   0.00000  Uiso   1.00
H1538  H     0.94995   0.74138   0.76993   0.00000  Uiso   1.00
H1539  H     0.67394   0.89714   0.94888   0.00000  Uiso   1.00
H1540  H     0.72186   0.70179   0.78194   0.00000  Uiso   1.00
H1541  H     0.76071   0.70391   0.73890   0.00000  Uiso   1.00
H1542  H     0.94484   0.96498   0.88489   0.00000  Uiso   1.00
H1543  H     0.90587   0.96261   0.92781   0.00000  Uiso   1.00
H1544  H     0.73815   0.93648   0.79128   0.00000  Uiso   1.00
N1545  N     0.83335   0.83334   0.95069   0.00000  Uiso   1.00
N1546  N     0.83332   0.83332   0.71597   0.00000  Uiso   1.00
N1547  N     0.75805   0.71126   0.77388   0.00000  Uiso   1.00
N1548  N     0.90866   0.95539   0.89283   0.00000  Uiso   1.00
N1549  N     0.75732   0.95775   0.77163   0.00000  Uiso   1.00
N1550  N     0.90894   0.70886   0.89559   0.00000  Uiso   1.00
O1551  O     0.83333   0.77322   0.87291   0.00000  Uiso   1.00
O1552  O     0.96121   0.76129   0.79630   0.00000  Uiso   1.00
O1553  O     0.70126   0.90187   0.87219   0.00000  Uiso   1.00
O1554  O     0.99170   0.87340   0.92901   0.00000  Uiso   1.00
O1555  O     0.78290   0.74100   0.94196   0.00000  Uiso   1.00
O1556  O     0.71740   0.78662   0.93127   0.00000  Uiso   1.00
O1557  O     0.94183   0.88197   0.73513   0.00000  Uiso   1.00
O1558  O     0.88071   0.93132   0.72368   0.00000  Uiso   1.00
O1559  O     0.83334   0.89345   0.79375   0.00000  Uiso   1.00
O1560  O     0.83333   0.77321   0.79372   0.00000  Uiso   1.00
O1561  O     0.83334   0.89346   0.87294   0.00000  Uiso   1.00
O1562  O     0.75828   0.83334   0.86379   0.00000  Uiso   1.00
O1563  O     0.90839   0.83333   0.80288   0.00000  Uiso   1.00
O1564  O     0.75828   0.83333   0.78460   0.00000  Uiso   1.00
O1565  O     0.90839   0.83334   0.88207   0.00000  Uiso   1.00
O1566  O     0.67177   0.79399   0.74280   0.00000  Uiso   1.00
loop_
_geom_bond_atom_site_label_1
_geom_bond_atom_site_label_2
_geom_bond_distance
_geom_bond_site_symmetry_2
_ccdc_geom_bond_type
C1     C4      1.444   .     S
C1     O52     1.292   .     A
C1     O43     1.292   .     A
C2     C4      1.410   .     A
C2     N42     1.436   .     S
C2     C367    1.394   1_545 S
C3     C19     1.405   .     A
C3     C20     1.410   .     A
C3     C12     1.444   .     S
C4     C18     1.405   .     A
C5     H23     1.083   .     S
C5     N38     1.359   .     A
C5     C1051   1.417   1_554 S
C6     H29     1.083   .     S
C6     N37     1.359   .     A
C6     C530    1.417   .     S
C7     N37     1.383   .     A
C7     C11     1.469   .     S
C7     C527    1.417   .     S
C8     C13     1.469   .     S
C8     N38     1.383   .     A
C8     C1050   1.417   1_554 S
C9     O44     1.399   .     S
C9     C74     1.496   .     S
C9     O116    1.223   .     S
C10    O45     1.223   .     D
C10    C133    1.496   1_455 S
C10    O162    1.398   1_455 S
C11    O47     1.222   .     D
C11    O48     1.397   .     S
C12    O53     1.292   .     A
C12    O51     1.292   .     A
C13    O49     1.222   .     D
C13    O50     1.397   .     S
C14    O56     1.292   .     A
C14    O54     1.287   .     A
C14    C16     1.436   .     S
C15    O57     1.293   .     A
C15    C17     1.436   .     S
C15    O55     1.287   .     A
C16    C125    1.496   1_455 S
C16    C133    1.360   1_455 S
C17    C74     1.360   .     S
C17    C68     1.496   .     S
C18    N39     1.436   .     S
C18    C368    1.394   1_545 S
C19    N40     1.436   .     S
C19    C176    1.394   .     S
C20    N41     1.436   .     S
C20    C192    1.394   .     S
Cu21   O57     1.966   .     S
Cu21   O53     1.953   .     S
Cu21   O54     1.970   .     S
Cu21   N37     2.022   .     S
Cu21   Cu22    2.691   .     S
Cu21   O43     1.959   .     S
Cu22   O56     1.966   .     S
Cu22   O55     1.970   .     S
Cu22   N38     2.022   .     S
Cu22   O52     1.953   .     S
Cu22   O51     1.959   .     S
H24    N41     1.045   .     S
H25    N42     1.045   .     S
H26    N42     1.045   .     S
H27    O48     1.014   .     S
H28    O50     1.014   .     S
H30    O44     1.014   .     S
H31    O162    1.014   1_455 S
H32    N39     1.046   .     S
H33    N39     1.046   .     S
H34    N40     1.046   .     S
H35    N40     1.046   .     S
H36    N41     1.045   .     S
O46    H89     1.014   .     S
O46    C68     1.398   .     S
O58    C125    1.223   1_455 S
C59    C62     1.444   .     S
C59    O110    1.292   .     A
C59    O101    1.292   .     A
C60    C62     1.410   .     A
C60    N100    1.436   .     S
C60    C425    1.394   1_545 S
C61    C77     1.405   .     A
C61    C78     1.410   .     A
C61    C70     1.444   .     S
C62    C76     1.405   .     A
C63    H81     1.083   .     S
C63    N96     1.359   .     A
C63    C1109   1.417   1_554 S
C64    H87     1.083   .     S
C64    N95     1.359   .     A
C64    C588    1.417   .     S
C65    N95     1.383   .     A
C65    C69     1.469   .     S
C65    C585    1.417   .     S
C66    C71     1.469   .     S
C66    N96     1.383   .     A
C66    C1108   1.417   1_554 S
C67    O102    1.399   .     S
C67    C132    1.496   .     S
C67    O174    1.223   .     S
C68    O103    1.223   .     D
C69    O105    1.222   .     D
C69    O106    1.397   .     S
C70    O111    1.292   .     A
C70    O109    1.292   .     A
C71    O107    1.222   .     D
C71    O108    1.397   .     S
C72    O114    1.292   .     A
C72    O112    1.287   .     A
C72    C74     1.436   .     S
C73    O115    1.293   .     A
C73    C75     1.436   .     S
C73    O113    1.287   .     A
C75    C132    1.360   .     S
C75    C126    1.496   .     S
C76    N97     1.436   .     S
C76    C426    1.394   1_545 S
C77    N98     1.436   .     S
C77    C234    1.394   .     S
C78    N99     1.436   .     S
C78    C250    1.394   .     S
Cu79   O115    1.966   .     S
Cu79   O111    1.953   .     S
Cu79   O112    1.970   .     S
Cu79   N95     2.022   .     S
Cu79   Cu80    2.691   .     S
Cu79   O101    1.959   .     S
Cu80   O114    1.966   .     S
Cu80   O113    1.970   .     S
Cu80   N96     2.022   .     S
Cu80   O110    1.953   .     S
Cu80   O109    1.959   .     S
H82    N99     1.045   .     S
H83    N100    1.045   .     S
H84    N100    1.045   .     S
H85    O106    1.014   .     S
H86    O108    1.014   .     S
H88    O102    1.014   .     S
H90    N97     1.046   .     S
H91    N97     1.046   .     S
H92    N98     1.046   .     S
H93    N98     1.046   .     S
H94    N99     1.045   .     S
O104   H147    1.014   .     S
O104   C126    1.398   .     S
C117   C120    1.444   .     S
C117   O168    1.292   .     A
C117   O159    1.292   .     A
C118   C120    1.410   .     A
C118   N158    1.436   .     S
C118   C483    1.394   1_545 S
C119   C135    1.405   .     A
C119   C136    1.410   .     A
C119   C128    1.444   .     S
C120   C134    1.405   .     A
C121   H139    1.083   .     S
C121   N154    1.359   .     A
C121   C1167   1.417   1_554 S
C122   H145    1.083   .     S
C122   N153    1.359   .     A
C122   C646    1.417   .     S
C123   N153    1.383   .     A
C123   C127    1.469   .     S
C123   C643    1.417   .     S
C124   C129    1.469   .     S
C124   N154    1.383   .     A
C124   C1166   1.417   1_554 S
C125   O160    1.399   .     S
C125   C16     1.496   1_655 S
C125   O58     1.223   1_655 S
C126   O161    1.223   .     D
C127   O163    1.222   .     D
C127   O164    1.397   .     S
C128   O169    1.292   .     A
C128   O167    1.292   .     A
C129   O165    1.222   .     D
C129   O166    1.397   .     S
C130   O172    1.292   .     A
C130   O170    1.287   .     A
C130   C132    1.436   .     S
C131   O173    1.293   .     A
C131   C133    1.436   .     S
C131   O171    1.287   .     A
C133   C16     1.360   1_655 S
C133   C10     1.496   1_655 S
C134   N155    1.436   .     S
C134   C484    1.394   1_545 S
C135   N156    1.436   .     S
C135   C292    1.394   .     S
C136   N157    1.436   .     S
C136   C308    1.394   .     S
Cu137  O173    1.966   .     S
Cu137  O169    1.953   .     S
Cu137  O170    1.970   .     S
Cu137  N153    2.022   .     S
Cu137  Cu138   2.691   .     S
Cu137  O159    1.959   .     S
Cu138  O172    1.966   .     S
Cu138  O171    1.970   .     S
Cu138  N154    2.022   .     S
Cu138  O168    1.953   .     S
Cu138  O167    1.959   .     S
H140   N157    1.045   .     S
H141   N158    1.045   .     S
H142   N158    1.045   .     S
H143   O164    1.014   .     S
H144   O166    1.014   .     S
H146   O160    1.014   .     S
H148   N155    1.046   .     S
H149   N155    1.046   .     S
H150   N156    1.046   .     S
H151   N156    1.046   .     S
H152   N157    1.045   .     S
O162   H31     1.014   1_655 S
O162   C10     1.398   1_655 S
C175   C178    1.444   .     S
C175   O226    1.292   .     A
C175   O217    1.292   .     A
C176   C178    1.410   .     A
C176   N216    1.436   .     S
C177   C193    1.405   .     A
C177   C194    1.410   .     A
C177   C186    1.444   .     S
C178   C192    1.405   .     A
C179   H197    1.083   .     S
C179   N212    1.359   .     A
C179   C1225   1.417   1_554 S
C180   H203    1.083   .     S
C180   N211    1.359   .     A
C180   C704    1.417   .     S
C181   N211    1.383   .     A
C181   C185    1.469   .     S
C181   C701    1.417   .     S
C182   C187    1.469   .     S
C182   N212    1.383   .     A
C182   C1224   1.417   1_554 S
C183   O218    1.399   .     S
C183   C248    1.496   .     S
C183   O290    1.223   .     S
C184   O219    1.223   .     D
C184   C307    1.496   1_455 S
C184   O336    1.398   1_455 S
C185   O221    1.222   .     D
C185   O222    1.397   .     S
C186   O227    1.292   .     A
C186   O225    1.292   .     A
C187   O223    1.222   .     D
C187   O224    1.397   .     S
C188   O230    1.292   .     A
C188   O228    1.287   .     A
C188   C190    1.436   .     S
C189   O231    1.293   .     A
C189   C191    1.436   .     S
C189   O229    1.287   .     A
C190   C299    1.496   1_455 S
C190   C307    1.360   1_455 S
C191   C248    1.360   .     S
C191   C242    1.496   .     S
C192   N213    1.436   .     S
C193   N214    1.436   .     S
C193   C350    1.394   .     S
C194   N215    1.436   .     S
C194   C366    1.394   .     S
Cu195  O231    1.966   .     S
Cu195  O227    1.953   .     S
Cu195  O228    1.970   .     S
Cu195  N211    2.022   .     S
Cu195  Cu196   2.691   .     S
Cu195  O217    1.959   .     S
Cu196  O230    1.966   .     S
Cu196  O229    1.970   .     S
Cu196  N212    2.022   .     S
Cu196  O226    1.953   .     S
Cu196  O225    1.959   .     S
H198   N215    1.045   .     S
H199   N216    1.045   .     S
H200   N216    1.045   .     S
H201   O222    1.014   .     S
H202   O224    1.014   .     S
H204   O218    1.014   .     S
H205   O336    1.014   1_455 S
H206   N213    1.046   .     S
H207   N213    1.046   .     S
H208   N214    1.046   .     S
H209   N214    1.046   .     S
H210   N215    1.045   .     S
O220   H263    1.014   .     S
O220   C242    1.398   .     S
O232   C299    1.223   1_455 S
C233   C236    1.444   .     S
C233   O284    1.292   .     A
C233   O275    1.292   .     A
C234   C236    1.410   .     A
C234   N274    1.436   .     S
C235   C251    1.405   .     A
C235   C252    1.410   .     A
C235   C244    1.444   .     S
C236   C250    1.405   .     A
C237   H255    1.083   .     S
C237   N270    1.359   .     A
C237   C1283   1.417   1_554 S
C238   H261    1.083   .     S
C238   N269    1.359   .     A
C238   C762    1.417   .     S
C239   N269    1.383   .     A
C239   C243    1.469   .     S
C239   C759    1.417   .     S
C240   C245    1.469   .     S
C240   N270    1.383   .     A
C240   C1282   1.417   1_554 S
C241   O276    1.399   .     S
C241   C306    1.496   .     S
C241   O348    1.223   .     S
C242   O277    1.223   .     D
C243   O279    1.222   .     D
C243   O280    1.397   .     S
C244   O285    1.292   .     A
C244   O283    1.292   .     A
C245   O281    1.222   .     D
C245   O282    1.397   .     S
C246   O288    1.292   .     A
C246   O286    1.287   .     A
C246   C248    1.436   .     S
C247   O289    1.293   .     A
C247   C249    1.436   .     S
C247   O287    1.287   .     A
C249   C306    1.360   .     S
C249   C300    1.496   .     S
C250   N271    1.436   .     S
C251   N272    1.436   .     S
C251   C408    1.394   .     S
C252   N273    1.436   .     S
C252   C424    1.394   .     S
Cu253  O289    1.966   .     S
Cu253  O285    1.953   .     S
Cu253  O286    1.970   .     S
Cu253  N269    2.022   .     S
Cu253  Cu254   2.691   .     S
Cu253  O275    1.959   .     S
Cu254  O288    1.966   .     S
Cu254  O287    1.970   .     S
Cu254  N270    2.022   .     S
Cu254  O284    1.953   .     S
Cu254  O283    1.959   .     S
H256   N273    1.045   .     S
H257   N274    1.045   .     S
H258   N274    1.045   .     S
H259   O280    1.014   .     S
H260   O282    1.014   .     S
H262   O276    1.014   .     S
H264   N271    1.046   .     S
H265   N271    1.046   .     S
H266   N272    1.046   .     S
H267   N272    1.046   .     S
H268   N273    1.045   .     S
O278   H321    1.014   .     S
O278   C300    1.398   .     S
C291   C294    1.444   .     S
C291   O342    1.292   .     A
C291   O333    1.292   .     A
C292   C294    1.410   .     A
C292   N332    1.436   .     S
C293   C309    1.405   .     A
C293   C310    1.410   .     A
C293   C302    1.444   .     S
C294   C308    1.405   .     A
C295   H313    1.083   .     S
C295   N328    1.359   .     A
C295   C1341   1.417   1_554 S
C296   H319    1.083   .     S
C296   N327    1.359   .     A
C296   C820    1.417   .     S
C297   N327    1.383   .     A
C297   C301    1.469   .     S
C297   C817    1.417   .     S
C298   C303    1.469   .     S
C298   N328    1.383   .     A
C298   C1340   1.417   1_554 S
C299   O334    1.399   .     S
C299   C190    1.496   1_655 S
C299   O232    1.223   1_655 S
C300   O335    1.223   .     D
C301   O337    1.222   .     D
C301   O338    1.397   .     S
C302   O343    1.292   .     A
C302   O341    1.292   .     A
C303   O339    1.222   .     D
C303   O340    1.397   .     S
C304   O346    1.292   .     A
C304   O344    1.287   .     A
C304   C306    1.436   .     S
C305   O347    1.293   .     A
C305   C307    1.436   .     S
C305   O345    1.287   .     A
C307   C190    1.360   1_655 S
C307   C184    1.496   1_655 S
C308   N329    1.436   .     S
C309   N330    1.436   .     S
C309   C466    1.394   .     S
C310   N331    1.436   .     S
C310   C482    1.394   .     S
Cu311  O347    1.966   .     S
Cu311  O343    1.953   .     S
Cu311  O344    1.970   .     S
Cu311  N327    2.022   .     S
Cu311  Cu312   2.691   .     S
Cu311  O333    1.959   .     S
Cu312  O346    1.966   .     S
Cu312  O345    1.970   .     S
Cu312  N328    2.022   .     S
Cu312  O342    1.953   .     S
Cu312  O341    1.959   .     S
H314   N331    1.045   .     S
H315   N332    1.045   .     S
H316   N332    1.045   .     S
H317   O338    1.014   .     S
H318   O340    1.014   .     S
H320   O334    1.014   .     S
H322   N329    1.046   .     S
H323   N329    1.046   .     S
H324   N330    1.046   .     S
H325   N330    1.046   .     S
H326   N331    1.045   .     S
O336   H205    1.014   1_655 S
O336   C184    1.398   1_655 S
C349   C352    1.444   .     S
C349   O400    1.292   .     A
C349   O391    1.292   .     A
C350   C352    1.410   .     A
C350   N390    1.436   .     S
C351   C367    1.405   .     A
C351   C368    1.410   .     A
C351   C360    1.444   .     S
C352   C366    1.405   .     A
C353   H371    1.083   .     S
C353   N386    1.359   .     A
C353   C1399   1.417   1_554 S
C354   H377    1.083   .     S
C354   N385    1.359   .     A
C354   C878    1.417   .     S
C355   N385    1.383   .     A
C355   C359    1.469   .     S
C355   C875    1.417   .     S
C356   C361    1.469   .     S
C356   N386    1.383   .     A
C356   C1398   1.417   1_554 S
C357   O392    1.399   .     S
C357   C422    1.496   .     S
C357   O464    1.223   .     S
C358   O393    1.223   .     D
C358   C481    1.496   1_455 S
C358   O510    1.398   1_455 S
C359   O395    1.222   .     D
C359   O396    1.397   .     S
C360   O401    1.292   .     A
C360   O399    1.292   .     A
C361   O397    1.222   .     D
C361   O398    1.397   .     S
C362   O404    1.292   .     A
C362   O402    1.287   .     A
C362   C364    1.436   .     S
C363   O405    1.293   .     A
C363   C365    1.436   .     S
C363   O403    1.287   .     A
C364   C473    1.496   1_455 S
C364   C481    1.360   1_455 S
C365   C422    1.360   .     S
C365   C416    1.496   .     S
C366   N387    1.436   .     S
C367   N388    1.436   .     S
C367   C2      1.394   1_565 S
C368   N389    1.436   .     S
C368   C18     1.394   1_565 S
Cu369  O405    1.966   .     S
Cu369  O401    1.953   .     S
Cu369  O402    1.970   .     S
Cu369  N385    2.022   .     S
Cu369  Cu370   2.691   .     S
Cu369  O391    1.959   .     S
Cu370  O404    1.966   .     S
Cu370  O403    1.970   .     S
Cu370  N386    2.022   .     S
Cu370  O400    1.953   .     S
Cu370  O399    1.959   .     S
H372   N389    1.045   .     S
H373   N390    1.045   .     S
H374   N390    1.045   .     S
H375   O396    1.014   .     S
H376   O398    1.014   .     S
H378   O392    1.014   .     S
H379   O510    1.014   1_455 S
H380   N387    1.046   .     S
H381   N387    1.046   .     S
H382   N388    1.046   .     S
H383   N388    1.046   .     S
H384   N389    1.045   .     S
O394   H437    1.014   .     S
O394   C416    1.398   .     S
O406   C473    1.223   1_455 S
C407   C410    1.444   .     S
C407   O458    1.292   .     A
C407   O449    1.292   .     A
C408   C410    1.410   .     A
C408   N448    1.436   .     S
C409   C425    1.405   .     A
C409   C426    1.410   .     A
C409   C418    1.444   .     S
C410   C424    1.405   .     A
C411   H429    1.083   .     S
C411   N444    1.359   .     A
C411   C1457   1.417   1_554 S
C412   H435    1.083   .     S
C412   N443    1.359   .     A
C412   C936    1.417   .     S
C413   N443    1.383   .     A
C413   C417    1.469   .     S
C413   C933    1.417   .     S
C414   C419    1.469   .     S
C414   N444    1.383   .     A
C414   C1456   1.417   1_554 S
C415   O450    1.399   .     S
C415   C480    1.496   .     S
C415   O522    1.223   .     S
C416   O451    1.223   .     D
C417   O453    1.222   .     D
C417   O454    1.397   .     S
C418   O459    1.292   .     A
C418   O457    1.292   .     A
C419   O455    1.222   .     D
C419   O456    1.397   .     S
C420   O462    1.292   .     A
C420   O460    1.287   .     A
C420   C422    1.436   .     S
C421   O463    1.293   .     A
C421   C423    1.436   .     S
C421   O461    1.287   .     A
C423   C480    1.360   .     S
C423   C474    1.496   .     S
C424   N445    1.436   .     S
C425   N446    1.436   .     S
C425   C60     1.394   1_565 S
C426   N447    1.436   .     S
C426   C76     1.394   1_565 S
Cu427  O463    1.966   .     S
Cu427  O459    1.953   .     S
Cu427  O460    1.970   .     S
Cu427  N443    2.022   .     S
Cu427  Cu428   2.691   .     S
Cu427  O449    1.959   .     S
Cu428  O462    1.966   .     S
Cu428  O461    1.970   .     S
Cu428  N444    2.022   .     S
Cu428  O458    1.953   .     S
Cu428  O457    1.959   .     S
H430   N447    1.045   .     S
H431   N448    1.045   .     S
H432   N448    1.045   .     S
H433   O454    1.014   .     S
H434   O456    1.014   .     S
H436   O450    1.014   .     S
H438   N445    1.046   .     S
H439   N445    1.046   .     S
H440   N446    1.046   .     S
H441   N446    1.046   .     S
H442   N447    1.045   .     S
O452   H495    1.014   .     S
O452   C474    1.398   .     S
C465   C468    1.444   .     S
C465   O516    1.292   .     A
C465   O507    1.292   .     A
C466   C468    1.410   .     A
C466   N506    1.436   .     S
C467   C483    1.405   .     A
C467   C484    1.410   .     A
C467   C476    1.444   .     S
C468   C482    1.405   .     A
C469   H487    1.083   .     S
C469   N502    1.359   .     A
C469   C1515   1.417   1_554 S
C470   H493    1.083   .     S
C470   N501    1.359   .     A
C470   C994    1.417   .     S
C471   N501    1.383   .     A
C471   C475    1.469   .     S
C471   C991    1.417   .     S
C472   C477    1.469   .     S
C472   N502    1.383   .     A
C472   C1514   1.417   1_554 S
C473   O508    1.399   .     S
C473   C364    1.496   1_655 S
C473   O406    1.223   1_655 S
C474   O509    1.223   .     D
C475   O511    1.222   .     D
C475   O512    1.397   .     S
C476   O517    1.292   .     A
C476   O515    1.292   .     A
C477   O513    1.222   .     D
C477   O514    1.397   .     S
C478   O520    1.292   .     A
C478   O518    1.287   .     A
C478   C480    1.436   .     S
C479   O521    1.293   .     A
C479   C481    1.436   .     S
C479   O519    1.287   .     A
C481   C364    1.360   1_655 S
C481   C358    1.496   1_655 S
C482   N503    1.436   .     S
C483   N504    1.436   .     S
C483   C118    1.394   1_565 S
C484   N505    1.436   .     S
C484   C134    1.394   1_565 S
Cu485  O521    1.966   .     S
Cu485  O517    1.953   .     S
Cu485  O518    1.970   .     S
Cu485  N501    2.022   .     S
Cu485  Cu486   2.691   .     S
Cu485  O507    1.959   .     S
Cu486  O520    1.966   .     S
Cu486  O519    1.970   .     S
Cu486  N502    2.022   .     S
Cu486  O516    1.953   .     S
Cu486  O515    1.959   .     S
H488   N505    1.045   .     S
H489   N506    1.045   .     S
H490   N506    1.045   .     S
H491   O512    1.014   .     S
H492   O514    1.014   .     S
H494   O508    1.014   .     S
H496   N503    1.046   .     S
H497   N503    1.046   .     S
H498   N504    1.046   .     S
H499   N504    1.046   .     S
H500   N505    1.045   .     S
O510   H379    1.014   1_655 S
O510   C358    1.398   1_655 S
C523   C526    1.444   .     S
C523   O574    1.292   .     A
C523   O565    1.292   .     A
C524   C526    1.410   .     A
C524   N564    1.436   .     S
C524   C889    1.394   1_545 S
C525   C541    1.405   .     A
C525   C542    1.410   .     A
C525   C534    1.444   .     S
C526   C540    1.405   .     A
C527   H545    1.083   .     S
C527   N560    1.359   .     A
C528   H551    1.083   .     S
C528   N559    1.359   .     A
C528   C1052   1.417   .     S
C529   N559    1.383   .     A
C529   C533    1.469   .     S
C529   C1049   1.417   .     S
C530   C535    1.469   .     S
C530   N560    1.383   .     A
C531   O566    1.399   .     S
C531   C596    1.496   .     S
C531   O638    1.223   .     S
C532   O567    1.223   .     D
C532   C655    1.496   1_455 S
C532   O684    1.398   1_455 S
C533   O569    1.222   .     D
C533   O570    1.397   .     S
C534   O575    1.292   .     A
C534   O573    1.292   .     A
C535   O571    1.222   .     D
C535   O572    1.397   .     S
C536   O578    1.292   .     A
C536   O576    1.287   .     A
C536   C538    1.436   .     S
C537   O579    1.293   .     A
C537   C539    1.436   .     S
C537   O577    1.287   .     A
C538   C647    1.496   1_455 S
C538   C655    1.360   1_455 S
C539   C596    1.360   .     S
C539   C590    1.496   .     S
C540   N561    1.436   .     S
C540   C890    1.394   1_545 S
C541   N562    1.436   .     S
C541   C698    1.394   .     S
C542   N563    1.436   .     S
C542   C714    1.394   .     S
Cu543  O579    1.966   .     S
Cu543  O575    1.953   .     S
Cu543  O576    1.970   .     S
Cu543  N559    2.022   .     S
Cu543  Cu544   2.691   .     S
Cu543  O565    1.959   .     S
Cu544  O578    1.966   .     S
Cu544  O577    1.970   .     S
Cu544  N560    2.022   .     S
Cu544  O574    1.953   .     S
Cu544  O573    1.959   .     S
H546   N563    1.045   .     S
H547   N564    1.045   .     S
H548   N564    1.045   .     S
H549   O570    1.014   .     S
H550   O572    1.014   .     S
H552   O566    1.014   .     S
H553   O684    1.014   1_455 S
H554   N561    1.046   .     S
H555   N561    1.046   .     S
H556   N562    1.046   .     S
H557   N562    1.046   .     S
H558   N563    1.045   .     S
O568   H611    1.014   .     S
O568   C590    1.398   .     S
O580   C647    1.223   1_455 S
C581   C584    1.444   .     S
C581   O632    1.292   .     A
C581   O623    1.292   .     A
C582   C584    1.410   .     A
C582   N622    1.436   .     S
C582   C947    1.394   1_545 S
C583   C599    1.405   .     A
C583   C600    1.410   .     A
C583   C592    1.444   .     S
C584   C598    1.405   .     A
C585   H603    1.083   .     S
C585   N618    1.359   .     A
C586   H609    1.083   .     S
C586   N617    1.359   .     A
C586   C1110   1.417   .     S
C587   N617    1.383   .     A
C587   C591    1.469   .     S
C587   C1107   1.417   .     S
C588   C593    1.469   .     S
C588   N618    1.383   .     A
C589   O624    1.399   .     S
C589   C654    1.496   .     S
C589   O696    1.223   .     S
C590   O625    1.223   .     D
C591   O627    1.222   .     D
C591   O628    1.397   .     S
C592   O633    1.292   .     A
C592   O631    1.292   .     A
C593   O629    1.222   .     D
C593   O630    1.397   .     S
C594   O636    1.292   .     A
C594   O634    1.287   .     A
C594   C596    1.436   .     S
C595   O637    1.293   .     A
C595   C597    1.436   .     S
C595   O635    1.287   .     A
C597   C654    1.360   .     S
C597   C648    1.496   .     S
C598   N619    1.436   .     S
C598   C948    1.394   1_545 S
C599   N620    1.436   .     S
C599   C756    1.394   .     S
C600   N621    1.436   .     S
C600   C772    1.394   .     S
Cu601  O637    1.966   .     S
Cu601  O633    1.953   .     S
Cu601  O634    1.970   .     S
Cu601  N617    2.022   .     S
Cu601  Cu602   2.691   .     S
Cu601  O623    1.959   .     S
Cu602  O636    1.966   .     S
Cu602  O635    1.970   .     S
Cu602  N618    2.022   .     S
Cu602  O632    1.953   .     S
Cu602  O631    1.959   .     S
H604   N621    1.045   .     S
H605   N622    1.045   .     S
H606   N622    1.045   .     S
H607   O628    1.014   .     S
H608   O630    1.014   .     S
H610   O624    1.014   .     S
H612   N619    1.046   .     S
H613   N619    1.046   .     S
H614   N620    1.046   .     S
H615   N620    1.046   .     S
H616   N621    1.045   .     S
O626   H669    1.014   .     S
O626   C648    1.398   .     S
C639   C642    1.444   .     S
C639   O690    1.292   .     A
C639   O681    1.292   .     A
C640   C642    1.410   .     A
C640   N680    1.436   .     S
C640   C1005   1.394   1_545 S
C641   C657    1.405   .     A
C641   C658    1.410   .     A
C641   C650    1.444   .     S
C642   C656    1.405   .     A
C643   H661    1.083   .     S
C643   N676    1.359   .     A
C644   H667    1.083   .     S
C644   N675    1.359   .     A
C644   C1168   1.417   .     S
C645   N675    1.383   .     A
C645   C649    1.469   .     S
C645   C1165   1.417   .     S
C646   C651    1.469   .     S
C646   N676    1.383   .     A
C647   O682    1.399   .     S
C647   C538    1.496   1_655 S
C647   O580    1.223   1_655 S
C648   O683    1.223   .     D
C649   O685    1.222   .     D
C649   O686    1.397   .     S
C650   O691    1.292   .     A
C650   O689    1.292   .     A
C651   O687    1.222   .     D
C651   O688    1.397   .     S
C652   O694    1.292   .     A
C652   O692    1.287   .     A
C652   C654    1.436   .     S
C653   O695    1.293   .     A
C653   C655    1.436   .     S
C653   O693    1.287   .     A
C655   C538    1.360   1_655 S
C655   C532    1.496   1_655 S
C656   N677    1.436   .     S
C656   C1006   1.394   1_545 S
C657   N678    1.436   .     S
C657   C814    1.394   .     S
C658   N679    1.436   .     S
C658   C830    1.394   .     S
Cu659  O695    1.966   .     S
Cu659  O691    1.953   .     S
Cu659  O692    1.970   .     S
Cu659  N675    2.022   .     S
Cu659  Cu660   2.691   .     S
Cu659  O681    1.959   .     S
Cu660  O694    1.966   .     S
Cu660  O693    1.970   .     S
Cu660  N676    2.022   .     S
Cu660  O690    1.953   .     S
Cu660  O689    1.959   .     S
H662   N679    1.045   .     S
H663   N680    1.045   .     S
H664   N680    1.045   .     S
H665   O686    1.014   .     S
H666   O688    1.014   .     S
H668   O682    1.014   .     S
H670   N677    1.046   .     S
H671   N677    1.046   .     S
H672   N678    1.046   .     S
H673   N678    1.046   .     S
H674   N679    1.045   .     S
O684   H553    1.014   1_655 S
O684   C532    1.398   1_655 S
C697   C700    1.444   .     S
C697   O748    1.292   .     A
C697   O739    1.292   .     A
C698   C700    1.410   .     A
C698   N738    1.436   .     S
C699   C715    1.405   .     A
C699   C716    1.410   .     A
C699   C708    1.444   .     S
C700   C714    1.405   .     A
C701   H719    1.083   .     S
C701   N734    1.359   .     A
C702   H725    1.083   .     S
C702   N733    1.359   .     A
C702   C1226   1.417   .     S
C703   N733    1.383   .     A
C703   C707    1.469   .     S
C703   C1223   1.417   .     S
C704   C709    1.469   .     S
C704   N734    1.383   .     A
C705   O740    1.399   .     S
C705   C770    1.496   .     S
C705   O812    1.223   .     S
C706   O741    1.223   .     D
C706   C829    1.496   1_455 S
C706   O858    1.398   1_455 S
C707   O743    1.222   .     D
C707   O744    1.397   .     S
C708   O749    1.292   .     A
C708   O747    1.292   .     A
C709   O745    1.222   .     D
C709   O746    1.397   .     S
C710   O752    1.292   .     A
C710   O750    1.287   .     A
C710   C712    1.436   .     S
C711   O753    1.293   .     A
C711   C713    1.436   .     S
C711   O751    1.287   .     A
C712   C821    1.496   1_455 S
C712   C829    1.360   1_455 S
C713   C770    1.360   .     S
C713   C764    1.496   .     S
C714   N735    1.436   .     S
C715   N736    1.436   .     S
C715   C872    1.394   .     S
C716   N737    1.436   .     S
C716   C888    1.394   .     S
Cu717  O753    1.966   .     S
Cu717  O749    1.953   .     S
Cu717  O750    1.970   .     S
Cu717  N733    2.022   .     S
Cu717  Cu718   2.691   .     S
Cu717  O739    1.959   .     S
Cu718  O752    1.966   .     S
Cu718  O751    1.970   .     S
Cu718  N734    2.022   .     S
Cu718  O748    1.953   .     S
Cu718  O747    1.959   .     S
H720   N737    1.045   .     S
H721   N738    1.045   .     S
H722   N738    1.045   .     S
H723   O744    1.014   .     S
H724   O746    1.014   .     S
H726   O740    1.014   .     S
H727   O858    1.014   1_455 S
H728   N735    1.046   .     S
H729   N735    1.046   .     S
H730   N736    1.046   .     S
H731   N736    1.046   .     S
H732   N737    1.045   .     S
O742   H785    1.014   .     S
O742   C764    1.398   .     S
O754   C821    1.223   1_455 S
C755   C758    1.444   .     S
C755   O806    1.292   .     A
C755   O797    1.292   .     A
C756   C758    1.410   .     A
C756   N796    1.436   .     S
C757   C773    1.405   .     A
C757   C774    1.410   .     A
C757   C766    1.444   .     S
C758   C772    1.405   .     A
C759   H777    1.083   .     S
C759   N792    1.359   .     A
C760   H783    1.083   .     S
C760   N791    1.359   .     A
C760   C1284   1.417   .     S
C761   N791    1.383   .     A
C761   C765    1.469   .     S
C761   C1281   1.417   .     S
C762   C767    1.469   .     S
C762   N792    1.383   .     A
C763   O798    1.399   .     S
C763   C828    1.496   .     S
C763   O870    1.223   .     S
C764   O799    1.223   .     D
C765   O801    1.222   .     D
C765   O802    1.397   .     S
C766   O807    1.292   .     A
C766   O805    1.292   .     A
C767   O803    1.222   .     D
C767   O804    1.397   .     S
C768   O810    1.292   .     A
C768   O808    1.287   .     A
C768   C770    1.436   .     S
C769   O811    1.293   .     A
C769   C771    1.436   .     S
C769   O809    1.287   .     A
C771   C828    1.360   .     S
C771   C822    1.496   .     S
C772   N793    1.436   .     S
C773   N794    1.436   .     S
C773   C930    1.394   .     S
C774   N795    1.436   .     S
C774   C946    1.394   .     S
Cu775  O811    1.966   .     S
Cu775  O807    1.953   .     S
Cu775  O808    1.970   .     S
Cu775  N791    2.022   .     S
Cu775  Cu776   2.691   .     S
Cu775  O797    1.959   .     S
Cu776  O810    1.966   .     S
Cu776  O809    1.970   .     S
Cu776  N792    2.022   .     S
Cu776  O806    1.953   .     S
Cu776  O805    1.959   .     S
H778   N795    1.045   .     S
H779   N796    1.045   .     S
H780   N796    1.045   .     S
H781   O802    1.014   .     S
H782   O804    1.014   .     S
H784   O798    1.014   .     S
H786   N793    1.046   .     S
H787   N793    1.046   .     S
H788   N794    1.046   .     S
H789   N794    1.046   .     S
H790   N795    1.045   .     S
O800   H843    1.014   .     S
O800   C822    1.398   .     S
C813   C816    1.444   .     S
C813   O864    1.292   .     A
C813   O855    1.292   .     A
C814   C816    1.410   .     A
C814   N854    1.436   .     S
C815   C831    1.405   .     A
C815   C832    1.410   .     A
C815   C824    1.444   .     S
C816   C830    1.405   .     A
C817   H835    1.083   .     S
C817   N850    1.359   .     A
C818   H841    1.083   .     S
C818   N849    1.359   .     A
C818   C1342   1.417   .     S
C819   N849    1.383   .     A
C819   C823    1.469   .     S
C819   C1339   1.417   .     S
C820   C825    1.469   .     S
C820   N850    1.383   .     A
C821   O856    1.399   .     S
C821   C712    1.496   1_655 S
C821   O754    1.223   1_655 S
C822   O857    1.223   .     D
C823   O859    1.222   .     D
C823   O860    1.397   .     S
C824   O865    1.292   .     A
C824   O863    1.292   .     A
C825   O861    1.222   .     D
C825   O862    1.397   .     S
C826   O868    1.292   .     A
C826   O866    1.287   .     A
C826   C828    1.436   .     S
C827   O869    1.293   .     A
C827   C829    1.436   .     S
C827   O867    1.287   .     A
C829   C712    1.360   1_655 S
C829   C706    1.496   1_655 S
C830   N851    1.436   .     S
C831   N852    1.436   .     S
C831   C988    1.394   .     S
C832   N853    1.436   .     S
C832   C1004   1.394   .     S
Cu833  O869    1.966   .     S
Cu833  O865    1.953   .     S
Cu833  O866    1.970   .     S
Cu833  N849    2.022   .     S
Cu833  Cu834   2.691   .     S
Cu833  O855    1.959   .     S
Cu834  O868    1.966   .     S
Cu834  O867    1.970   .     S
Cu834  N850    2.022   .     S
Cu834  O864    1.953   .     S
Cu834  O863    1.959   .     S
H836   N853    1.045   .     S
H837   N854    1.045   .     S
H838   N854    1.045   .     S
H839   O860    1.014   .     S
H840   O862    1.014   .     S
H842   O856    1.014   .     S
H844   N851    1.046   .     S
H845   N851    1.046   .     S
H846   N852    1.046   .     S
H847   N852    1.046   .     S
H848   N853    1.045   .     S
O858   H727    1.014   1_655 S
O858   C706    1.398   1_655 S
C871   C874    1.444   .     S
C871   O922    1.292   .     A
C871   O913    1.292   .     A
C872   C874    1.410   .     A
C872   N912    1.436   .     S
C873   C889    1.405   .     A
C873   C890    1.410   .     A
C873   C882    1.444   .     S
C874   C888    1.405   .     A
C875   H893    1.083   .     S
C875   N908    1.359   .     A
C876   H899    1.083   .     S
C876   N907    1.359   .     A
C876   C1400   1.417   .     S
C877   N907    1.383   .     A
C877   C881    1.469   .     S
C877   C1397   1.417   .     S
C878   C883    1.469   .     S
C878   N908    1.383   .     A
C879   O914    1.399   .     S
C879   C944    1.496   .     S
C879   O986    1.223   .     S
C880   O915    1.223   .     D
C880   C1003   1.496   1_455 S
C880   O1032   1.398   1_455 S
C881   O917    1.222   .     D
C881   O918    1.397   .     S
C882   O923    1.292   .     A
C882   O921    1.292   .     A
C883   O919    1.222   .     D
C883   O920    1.397   .     S
C884   O926    1.292   .     A
C884   O924    1.287   .     A
C884   C886    1.436   .     S
C885   O927    1.293   .     A
C885   C887    1.436   .     S
C885   O925    1.287   .     A
C886   C995    1.496   1_455 S
C886   C1003   1.360   1_455 S
C887   C944    1.360   .     S
C887   C938    1.496   .     S
C888   N909    1.436   .     S
C889   N910    1.436   .     S
C889   C524    1.394   1_565 S
C890   N911    1.436   .     S
C890   C540    1.394   1_565 S
Cu891  O927    1.966   .     S
Cu891  O923    1.953   .     S
Cu891  O924    1.970   .     S
Cu891  N907    2.022   .     S
Cu891  Cu892   2.691   .     S
Cu891  O913    1.959   .     S
Cu892  O926    1.966   .     S
Cu892  O925    1.970   .     S
Cu892  N908    2.022   .     S
Cu892  O922    1.953   .     S
Cu892  O921    1.959   .     S
H894   N911    1.045   .     S
H895   N912    1.045   .     S
H896   N912    1.045   .     S
H897   O918    1.014   .     S
H898   O920    1.014   .     S
H900   O914    1.014   .     S
H901   O1032   1.014   1_455 S
H902   N909    1.046   .     S
H903   N909    1.046   .     S
H904   N910    1.046   .     S
H905   N910    1.046   .     S
H906   N911    1.045   .     S
O916   H959    1.014   .     S
O916   C938    1.398   .     S
O928   C995    1.223   1_455 S
C929   C932    1.444   .     S
C929   O980    1.292   .     A
C929   O971    1.292   .     A
C930   C932    1.410   .     A
C930   N970    1.436   .     S
C931   C947    1.405   .     A
C931   C948    1.410   .     A
C931   C940    1.444   .     S
C932   C946    1.405   .     A
C933   H951    1.083   .     S
C933   N966    1.359   .     A
C934   H957    1.083   .     S
C934   N965    1.359   .     A
C934   C1458   1.417   .     S
C935   N965    1.383   .     A
C935   C939    1.469   .     S
C935   C1455   1.417   .     S
C936   C941    1.469   .     S
C936   N966    1.383   .     A
C937   O972    1.399   .     S
C937   C1002   1.496   .     S
C937   O1044   1.223   .     S
C938   O973    1.223   .     D
C939   O975    1.222   .     D
C939   O976    1.397   .     S
C940   O981    1.292   .     A
C940   O979    1.292   .     A
C941   O977    1.222   .     D
C941   O978    1.397   .     S
C942   O984    1.292   .     A
C942   O982    1.287   .     A
C942   C944    1.436   .     S
C943   O985    1.293   .     A
C943   C945    1.436   .     S
C943   O983    1.287   .     A
C945   C1002   1.360   .     S
C945   C996    1.496   .     S
C946   N967    1.436   .     S
C947   N968    1.436   .     S
C947   C582    1.394   1_565 S
C948   N969    1.436   .     S
C948   C598    1.394   1_565 S
Cu949  O985    1.966   .     S
Cu949  O981    1.953   .     S
Cu949  O982    1.970   .     S
Cu949  N965    2.022   .     S
Cu949  Cu950   2.691   .     S
Cu949  O971    1.959   .     S
Cu950  O984    1.966   .     S
Cu950  O983    1.970   .     S
Cu950  N966    2.022   .     S
Cu950  O980    1.953   .     S
Cu950  O979    1.959   .     S
H952   N969    1.045   .     S
H953   N970    1.045   .     S
H954   N970    1.045   .     S
H955   O976    1.014   .     S
H956   O978    1.014   .     S
H958   O972    1.014   .     S
H960   N967    1.046   .     S
H961   N967    1.046   .     S
H962   N968    1.046   .     S
H963   N968    1.046   .     S
H964   N969    1.045   .     S
O974   H1017   1.014   .     S
O974   C996    1.398   .     S
C987   C990    1.444   .     S
C987   O1038   1.292   .     A
C987   O1029   1.292   .     A
C988   C990    1.410   .     A
C988   N1028   1.436   .     S
C989   C1005   1.405   .     A
C989   C1006   1.410   .     A
C989   C998    1.444   .     S
C990   C1004   1.405   .     A
C991   H1009   1.083   .     S
C991   N1024   1.359   .     A
C992   H1015   1.083   .     S
C992   N1023   1.359   .     A
C992   C1516   1.417   .     S
C993   N1023   1.383   .     A
C993   C997    1.469   .     S
C993   C1513   1.417   .     S
C994   C999    1.469   .     S
C994   N1024   1.383   .     A
C995   O1030   1.399   .     S
C995   C886    1.496   1_655 S
C995   O928    1.223   1_655 S
C996   O1031   1.223   .     D
C997   O1033   1.222   .     D
C997   O1034   1.397   .     S
C998   O1039   1.292   .     A
C998   O1037   1.292   .     A
C999   O1035   1.222   .     D
C999   O1036   1.397   .     S
C1000  O1042   1.292   .     A
C1000  O1040   1.287   .     A
C1000  C1002   1.436   .     S
C1001  O1043   1.293   .     A
C1001  C1003   1.436   .     S
C1001  O1041   1.287   .     A
C1003  C886    1.360   1_655 S
C1003  C880    1.496   1_655 S
C1004  N1025   1.436   .     S
C1005  N1026   1.436   .     S
C1005  C640    1.394   1_565 S
C1006  N1027   1.436   .     S
C1006  C656    1.394   1_565 S
Cu1007 O1043   1.966   .     S
Cu1007 O1039   1.953   .     S
Cu1007 O1040   1.970   .     S
Cu1007 N1023   2.022   .     S
Cu1007 Cu1008  2.691   .     S
Cu1007 O1029   1.959   .     S
Cu1008 O1042   1.966   .     S
Cu1008 O1041   1.970   .     S
Cu1008 N1024   2.022   .     S
Cu1008 O1038   1.953   .     S
Cu1008 O1037   1.959   .     S
H1010  N1027   1.045   .     S
H1011  N1028   1.045   .     S
H1012  N1028   1.045   .     S
H1013  O1034   1.014   .     S
H1014  O1036   1.014   .     S
H1016  O1030   1.014   .     S
H1018  N1025   1.046   .     S
H1019  N1025   1.046   .     S
H1020  N1026   1.046   .     S
H1021  N1026   1.046   .     S
H1022  N1027   1.045   .     S
O1032  H901    1.014   1_655 S
O1032  C880    1.398   1_655 S
C1045  C1048   1.444   .     S
C1045  O1096   1.292   .     A
C1045  O1087   1.292   .     A
C1046  C1048   1.410   .     A
C1046  N1086   1.436   .     S
C1046  C1411   1.394   1_545 S
C1047  C1063   1.405   .     A
C1047  C1064   1.410   .     A
C1047  C1056   1.444   .     S
C1048  C1062   1.405   .     A
C1049  H1067   1.083   .     S
C1049  N1082   1.359   .     A
C1050  H1073   1.083   .     S
C1050  N1081   1.359   .     A
C1050  C8      1.417   1_556 S
C1051  N1081   1.383   .     A
C1051  C1055   1.469   .     S
C1051  C5      1.417   1_556 S
C1052  C1057   1.469   .     S
C1052  N1082   1.383   .     A
C1053  O1088   1.399   .     S
C1053  C1118   1.496   .     S
C1053  O1160   1.223   .     S
C1054  O1089   1.223   .     D
C1054  C1177   1.496   1_455 S
C1054  O1206   1.398   1_455 S
C1055  O1091   1.222   .     D
C1055  O1092   1.397   .     S
C1056  O1097   1.292   .     A
C1056  O1095   1.292   .     A
C1057  O1093   1.222   .     D
C1057  O1094   1.397   .     S
C1058  O1100   1.292   .     A
C1058  O1098   1.287   .     A
C1058  C1060   1.436   .     S
C1059  O1101   1.293   .     A
C1059  C1061   1.436   .     S
C1059  O1099   1.287   .     A
C1060  C1169   1.496   1_455 S
C1060  C1177   1.360   1_455 S
C1061  C1118   1.360   .     S
C1061  C1112   1.496   .     S
C1062  N1083   1.436   .     S
C1062  C1412   1.394   1_545 S
C1063  N1084   1.436   .     S
C1063  C1220   1.394   .     S
C1064  N1085   1.436   .     S
C1064  C1236   1.394   .     S
Cu1065 O1101   1.966   .     S
Cu1065 O1097   1.953   .     S
Cu1065 O1098   1.970   .     S
Cu1065 N1081   2.022   .     S
Cu1065 Cu1066  2.691   .     S
Cu1065 O1087   1.959   .     S
Cu1066 O1100   1.966   .     S
Cu1066 O1099   1.970   .     S
Cu1066 N1082   2.022   .     S
Cu1066 O1096   1.953   .     S
Cu1066 O1095   1.959   .     S
H1068  N1085   1.045   .     S
H1069  N1086   1.045   .     S
H1070  N1086   1.045   .     S
H1071  O1092   1.014   .     S
H1072  O1094   1.014   .     S
H1074  O1088   1.014   .     S
H1075  O1206   1.014   1_455 S
H1076  N1083   1.046   .     S
H1077  N1083   1.046   .     S
H1078  N1084   1.046   .     S
H1079  N1084   1.046   .     S
H1080  N1085   1.045   .     S
O1090  H1133   1.014   .     S
O1090  C1112   1.398   .     S
O1102  C1169   1.223   1_455 S
C1103  C1106   1.444   .     S
C1103  O1154   1.292   .     A
C1103  O1145   1.292   .     A
C1104  C1106   1.410   .     A
C1104  N1144   1.436   .     S
C1104  C1469   1.394   1_545 S
C1105  C1121   1.405   .     A
C1105  C1122   1.410   .     A
C1105  C1114   1.444   .     S
C1106  C1120   1.405   .     A
C1107  H1125   1.083   .     S
C1107  N1140   1.359   .     A
C1108  H1131   1.083   .     S
C1108  N1139   1.359   .     A
C1108  C66     1.417   1_556 S
C1109  N1139   1.383   .     A
C1109  C1113   1.469   .     S
C1109  C63     1.417   1_556 S
C1110  C1115   1.469   .     S
C1110  N1140   1.383   .     A
C1111  O1146   1.399   .     S
C1111  C1176   1.496   .     S
C1111  O1218   1.223   .     S
C1112  O1147   1.223   .     D
C1113  O1149   1.222   .     D
C1113  O1150   1.397   .     S
C1114  O1155   1.292   .     A
C1114  O1153   1.292   .     A
C1115  O1151   1.222   .     D
C1115  O1152   1.397   .     S
C1116  O1158   1.292   .     A
C1116  O1156   1.287   .     A
C1116  C1118   1.436   .     S
C1117  O1159   1.293   .     A
C1117  C1119   1.436   .     S
C1117  O1157   1.287   .     A
C1119  C1176   1.360   .     S
C1119  C1170   1.496   .     S
C1120  N1141   1.436   .     S
C1120  C1470   1.394   1_545 S
C1121  N1142   1.436   .     S
C1121  C1278   1.394   .     S
C1122  N1143   1.436   .     S
C1122  C1294   1.394   .     S
Cu1123 O1159   1.966   .     S
Cu1123 O1155   1.953   .     S
Cu1123 O1156   1.970   .     S
Cu1123 N1139   2.022   .     S
Cu1123 Cu1124  2.691   .     S
Cu1123 O1145   1.959   .     S
Cu1124 O1158   1.966   .     S
Cu1124 O1157   1.970   .     S
Cu1124 N1140   2.022   .     S
Cu1124 O1154   1.953   .     S
Cu1124 O1153   1.959   .     S
H1126  N1143   1.045   .     S
H1127  N1144   1.045   .     S
H1128  N1144   1.045   .     S
H1129  O1150   1.014   .     S
H1130  O1152   1.014   .     S
H1132  O1146   1.014   .     S
H1134  N1141   1.046   .     S
H1135  N1141   1.046   .     S
H1136  N1142   1.046   .     S
H1137  N1142   1.046   .     S
H1138  N1143   1.045   .     S
O1148  H1191   1.014   .     S
O1148  C1170   1.398   .     S
C1161  C1164   1.444   .     S
C1161  O1212   1.292   .     A
C1161  O1203   1.292   .     A
C1162  C1164   1.410   .     A
C1162  N1202   1.436   .     S
C1162  C1527   1.394   1_545 S
C1163  C1179   1.405   .     A
C1163  C1180   1.410   .     A
C1163  C1172   1.444   .     S
C1164  C1178   1.405   .     A
C1165  H1183   1.083   .     S
C1165  N1198   1.359   .     A
C1166  H1189   1.083   .     S
C1166  N1197   1.359   .     A
C1166  C124    1.417   1_556 S
C1167  N1197   1.383   .     A
C1167  C1171   1.469   .     S
C1167  C121    1.417   1_556 S
C1168  C1173   1.469   .     S
C1168  N1198   1.383   .     A
C1169  O1204   1.399   .     S
C1169  C1060   1.496   1_655 S
C1169  O1102   1.223   1_655 S
C1170  O1205   1.223   .     D
C1171  O1207   1.222   .     D
C1171  O1208   1.397   .     S
C1172  O1213   1.292   .     A
C1172  O1211   1.292   .     A
C1173  O1209   1.222   .     D
C1173  O1210   1.397   .     S
C1174  O1216   1.292   .     A
C1174  O1214   1.287   .     A
C1174  C1176   1.436   .     S
C1175  O1217   1.293   .     A
C1175  C1177   1.436   .     S
C1175  O1215   1.287   .     A
C1177  C1060   1.360   1_655 S
C1177  C1054   1.496   1_655 S
C1178  N1199   1.436   .     S
C1178  C1528   1.394   1_545 S
C1179  N1200   1.436   .     S
C1179  C1336   1.394   .     S
C1180  N1201   1.436   .     S
C1180  C1352   1.394   .     S
Cu1181 O1217   1.966   .     S
Cu1181 O1213   1.953   .     S
Cu1181 O1214   1.970   .     S
Cu1181 N1197   2.022   .     S
Cu1181 Cu1182  2.691   .     S
Cu1181 O1203   1.959   .     S
Cu1182 O1216   1.966   .     S
Cu1182 O1215   1.970   .     S
Cu1182 N1198   2.022   .     S
Cu1182 O1212   1.953   .     S
Cu1182 O1211   1.959   .     S
H1184  N1201   1.045   .     S
H1185  N1202   1.045   .     S
H1186  N1202   1.045   .     S
H1187  O1208   1.014   .     S
H1188  O1210   1.014   .     S
H1190  O1204   1.014   .     S
H1192  N1199   1.046   .     S
H1193  N1199   1.046   .     S
H1194  N1200   1.046   .     S
H1195  N1200   1.046   .     S
H1196  N1201   1.045   .     S
O1206  H1075   1.014   1_655 S
O1206  C1054   1.398   1_655 S
C1219  C1222   1.444   .     S
C1219  O1270   1.292   .     A
C1219  O1261   1.292   .     A
C1220  C1222   1.410   .     A
C1220  N1260   1.436   .     S
C1221  C1237   1.405   .     A
C1221  C1238   1.410   .     A
C1221  C1230   1.444   .     S
C1222  C1236   1.405   .     A
C1223  H1241   1.083   .     S
C1223  N1256   1.359   .     A
C1224  H1247   1.083   .     S
C1224  N1255   1.359   .     A
C1224  C182    1.417   1_556 S
C1225  N1255   1.383   .     A
C1225  C1229   1.469   .     S
C1225  C179    1.417   1_556 S
C1226  C1231   1.469   .     S
C1226  N1256   1.383   .     A
C1227  O1262   1.399   .     S
C1227  C1292   1.496   .     S
C1227  O1334   1.223   .     S
C1228  O1263   1.223   .     D
C1228  C1351   1.496   1_455 S
C1228  O1380   1.398   1_455 S
C1229  O1265   1.222   .     D
C1229  O1266   1.397   .     S
C1230  O1271   1.292   .     A
C1230  O1269   1.292   .     A
C1231  O1267   1.222   .     D
C1231  O1268   1.397   .     S
C1232  O1274   1.292   .     A
C1232  O1272   1.287   .     A
C1232  C1234   1.436   .     S
C1233  O1275   1.293   .     A
C1233  C1235   1.436   .     S
C1233  O1273   1.287   .     A
C1234  C1343   1.496   1_455 S
C1234  C1351   1.360   1_455 S
C1235  C1292   1.360   .     S
C1235  C1286   1.496   .     S
C1236  N1257   1.436   .     S
C1237  N1258   1.436   .     S
C1237  C1394   1.394   .     S
C1238  N1259   1.436   .     S
C1238  C1410   1.394   .     S
Cu1239 O1275   1.966   .     S
Cu1239 O1271   1.953   .     S
Cu1239 O1272   1.970   .     S
Cu1239 N1255   2.022   .     S
Cu1239 Cu1240  2.691   .     S
Cu1239 O1261   1.959   .     S
Cu1240 O1274   1.966   .     S
Cu1240 O1273   1.970   .     S
Cu1240 N1256   2.022   .     S
Cu1240 O1270   1.953   .     S
Cu1240 O1269   1.959   .     S
H1242  N1259   1.045   .     S
H1243  N1260   1.045   .     S
H1244  N1260   1.045   .     S
H1245  O1266   1.014   .     S
H1246  O1268   1.014   .     S
H1248  O1262   1.014   .     S
H1249  O1380   1.014   1_455 S
H1250  N1257   1.046   .     S
H1251  N1257   1.046   .     S
H1252  N1258   1.046   .     S
H1253  N1258   1.046   .     S
H1254  N1259   1.045   .     S
O1264  H1307   1.014   .     S
O1264  C1286   1.398   .     S
O1276  C1343   1.223   1_455 S
C1277  C1280   1.444   .     S
C1277  O1328   1.292   .     A
C1277  O1319   1.292   .     A
C1278  C1280   1.410   .     A
C1278  N1318   1.436   .     S
C1279  C1295   1.405   .     A
C1279  C1296   1.410   .     A
C1279  C1288   1.444   .     S
C1280  C1294   1.405   .     A
C1281  H1299   1.083   .     S
C1281  N1314   1.359   .     A
C1282  H1305   1.083   .     S
C1282  N1313   1.359   .     A
C1282  C240    1.417   1_556 S
C1283  N1313   1.383   .     A
C1283  C1287   1.469   .     S
C1283  C237    1.417   1_556 S
C1284  C1289   1.469   .     S
C1284  N1314   1.383   .     A
C1285  O1320   1.399   .     S
C1285  C1350   1.496   .     S
C1285  O1392   1.223   .     S
C1286  O1321   1.223   .     D
C1287  O1323   1.222   .     D
C1287  O1324   1.397   .     S
C1288  O1329   1.292   .     A
C1288  O1327   1.292   .     A
C1289  O1325   1.222   .     D
C1289  O1326   1.397   .     S
C1290  O1332   1.292   .     A
C1290  O1330   1.287   .     A
C1290  C1292   1.436   .     S
C1291  O1333   1.293   .     A
C1291  C1293   1.436   .     S
C1291  O1331   1.287   .     A
C1293  C1350   1.360   .     S
C1293  C1344   1.496   .     S
C1294  N1315   1.436   .     S
C1295  N1316   1.436   .     S
C1295  C1452   1.394   .     S
C1296  N1317   1.436   .     S
C1296  C1468   1.394   .     S
Cu1297 O1333   1.966   .     S
Cu1297 O1329   1.953   .     S
Cu1297 O1330   1.970   .     S
Cu1297 N1313   2.022   .     S
Cu1297 Cu1298  2.691   .     S
Cu1297 O1319   1.959   .     S
Cu1298 O1332   1.966   .     S
Cu1298 O1331   1.970   .     S
Cu1298 N1314   2.022   .     S
Cu1298 O1328   1.953   .     S
Cu1298 O1327   1.959   .     S
H1300  N1317   1.045   .     S
H1301  N1318   1.045   .     S
H1302  N1318   1.045   .     S
H1303  O1324   1.014   .     S
H1304  O1326   1.014   .     S
H1306  O1320   1.014   .     S
H1308  N1315   1.046   .     S
H1309  N1315   1.046   .     S
H1310  N1316   1.046   .     S
H1311  N1316   1.046   .     S
H1312  N1317   1.045   .     S
O1322  H1365   1.014   .     S
O1322  C1344   1.398   .     S
C1335  C1338   1.444   .     S
C1335  O1386   1.292   .     A
C1335  O1377   1.292   .     A
C1336  C1338   1.410   .     A
C1336  N1376   1.436   .     S
C1337  C1353   1.405   .     A
C1337  C1354   1.410   .     A
C1337  C1346   1.444   .     S
C1338  C1352   1.405   .     A
C1339  H1357   1.083   .     S
C1339  N1372   1.359   .     A
C1340  H1363   1.083   .     S
C1340  N1371   1.359   .     A
C1340  C298    1.417   1_556 S
C1341  N1371   1.383   .     A
C1341  C1345   1.469   .     S
C1341  C295    1.417   1_556 S
C1342  C1347   1.469   .     S
C1342  N1372   1.383   .     A
C1343  O1378   1.399   .     S
C1343  C1234   1.496   1_655 S
C1343  O1276   1.223   1_655 S
C1344  O1379   1.223   .     D
C1345  O1381   1.222   .     D
C1345  O1382   1.397   .     S
C1346  O1387   1.292   .     A
C1346  O1385   1.292   .     A
C1347  O1383   1.222   .     D
C1347  O1384   1.397   .     S
C1348  O1390   1.292   .     A
C1348  O1388   1.287   .     A
C1348  C1350   1.436   .     S
C1349  O1391   1.293   .     A
C1349  C1351   1.436   .     S
C1349  O1389   1.287   .     A
C1351  C1234   1.360   1_655 S
C1351  C1228   1.496   1_655 S
C1352  N1373   1.436   .     S
C1353  N1374   1.436   .     S
C1353  C1510   1.394   .     S
C1354  N1375   1.436   .     S
C1354  C1526   1.394   .     S
Cu1355 O1391   1.966   .     S
Cu1355 O1387   1.953   .     S
Cu1355 O1388   1.970   .     S
Cu1355 N1371   2.022   .     S
Cu1355 Cu1356  2.691   .     S
Cu1355 O1377   1.959   .     S
Cu1356 O1390   1.966   .     S
Cu1356 O1389   1.970   .     S
Cu1356 N1372   2.022   .     S
Cu1356 O1386   1.953   .     S
Cu1356 O1385   1.959   .     S
H1358  N1375   1.045   .     S
H1359  N1376   1.045   .     S
H1360  N1376   1.045   .     S
H1361  O1382   1.014   .     S
H1362  O1384   1.014   .     S
H1364  O1378   1.014   .     S
H1366  N1373   1.046   .     S
H1367  N1373   1.046   .     S
H1368  N1374   1.046   .     S
H1369  N1374   1.046   .     S
H1370  N1375   1.045   .     S
O1380  H1249   1.014   1_655 S
O1380  C1228   1.398   1_655 S
C1393  C1396   1.444   .     S
C1393  O1444   1.292   .     A
C1393  O1435   1.292   .     A
C1394  C1396   1.410   .     A
C1394  N1434   1.436   .     S
C1395  C1411   1.405   .     A
C1395  C1412   1.410   .     A
C1395  C1404   1.444   .     S
C1396  C1410   1.405   .     A
C1397  H1415   1.083   .     S
C1397  N1430   1.359   .     A
C1398  H1421   1.083   .     S
C1398  N1429   1.359   .     A
C1398  C356    1.417   1_556 S
C1399  N1429   1.383   .     A
C1399  C1403   1.469   .     S
C1399  C353    1.417   1_556 S
C1400  C1405   1.469   .     S
C1400  N1430   1.383   .     A
C1401  O1436   1.399   .     S
C1401  C1466   1.496   .     S
C1401  O1508   1.223   .     S
C1402  O1437   1.223   .     D
C1402  C1525   1.496   1_455 S
C1402  O1554   1.398   1_455 S
C1403  O1439   1.222   .     D
C1403  O1440   1.397   .     S
C1404  O1445   1.292   .     A
C1404  O1443   1.292   .     A
C1405  O1441   1.222   .     D
C1405  O1442   1.397   .     S
C1406  O1448   1.292   .     A
C1406  O1446   1.287   .     A
C1406  C1408   1.436   .     S
C1407  O1449   1.293   .     A
C1407  C1409   1.436   .     S
C1407  O1447   1.287   .     A
C1408  C1517   1.496   1_455 S
C1408  C1525   1.360   1_455 S
C1409  C1466   1.360   .     S
C1409  C1460   1.496   .     S
C1410  N1431   1.436   .     S
C1411  N1432   1.436   .     S
C1411  C1046   1.394   1_565 S
C1412  N1433   1.436   .     S
C1412  C1062   1.394   1_565 S
Cu1413 O1449   1.966   .     S
Cu1413 O1445   1.953   .     S
Cu1413 O1446   1.970   .     S
Cu1413 N1429   2.022   .     S
Cu1413 Cu1414  2.691   .     S
Cu1413 O1435   1.959   .     S
Cu1414 O1448   1.966   .     S
Cu1414 O1447   1.970   .     S
Cu1414 N1430   2.022   .     S
Cu1414 O1444   1.953   .     S
Cu1414 O1443   1.959   .     S
H1416  N1433   1.045   .     S
H1417  N1434   1.045   .     S
H1418  N1434   1.045   .     S
H1419  O1440   1.014   .     S
H1420  O1442   1.014   .     S
H1422  O1436   1.014   .     S
H1423  O1554   1.014   1_455 S
H1424  N1431   1.046   .     S
H1425  N1431   1.046   .     S
H1426  N1432   1.046   .     S
H1427  N1432   1.046   .     S
H1428  N1433   1.045   .     S
O1438  H1481   1.014   .     S
O1438  C1460   1.398   .     S
O1450  C1517   1.223   1_455 S
C1451  C1454   1.444   .     S
C1451  O1502   1.292   .     A
C1451  O1493   1.292   .     A
C1452  C1454   1.410   .     A
C1452  N1492   1.436   .     S
C1453  C1469   1.405   .     A
C1453  C1470   1.410   .     A
C1453  C1462   1.444   .     S
C1454  C1468   1.405   .     A
C1455  H1473   1.083   .     S
C1455  N1488   1.359   .     A
C1456  H1479   1.083   .     S
C1456  N1487   1.359   .     A
C1456  C414    1.417   1_556 S
C1457  N1487   1.383   .     A
C1457  C1461   1.469   .     S
C1457  C411    1.417   1_556 S
C1458  C1463   1.469   .     S
C1458  N1488   1.383   .     A
C1459  O1494   1.399   .     S
C1459  C1524   1.496   .     S
C1459  O1566   1.223   .     S
C1460  O1495   1.223   .     D
C1461  O1497   1.222   .     D
C1461  O1498   1.397   .     S
C1462  O1503   1.292   .     A
C1462  O1501   1.292   .     A
C1463  O1499   1.222   .     D
C1463  O1500   1.397   .     S
C1464  O1506   1.292   .     A
C1464  O1504   1.287   .     A
C1464  C1466   1.436   .     S
C1465  O1507   1.293   .     A
C1465  C1467   1.436   .     S
C1465  O1505   1.287   .     A
C1467  C1524   1.360   .     S
C1467  C1518   1.496   .     S
C1468  N1489   1.436   .     S
C1469  N1490   1.436   .     S
C1469  C1104   1.394   1_565 S
C1470  N1491   1.436   .     S
C1470  C1120   1.394   1_565 S
Cu1471 O1507   1.966   .     S
Cu1471 O1503   1.953   .     S
Cu1471 O1504   1.970   .     S
Cu1471 N1487   2.022   .     S
Cu1471 Cu1472  2.691   .     S
Cu1471 O1493   1.959   .     S
Cu1472 O1506   1.966   .     S
Cu1472 O1505   1.970   .     S
Cu1472 N1488   2.022   .     S
Cu1472 O1502   1.953   .     S
Cu1472 O1501   1.959   .     S
H1474  N1491   1.045   .     S
H1475  N1492   1.045   .     S
H1476  N1492   1.045   .     S
H1477  O1498   1.014   .     S
H1478  O1500   1.014   .     S
H1480  O1494   1.014   .     S
H1482  N1489   1.046   .     S
H1483  N1489   1.046   .     S
H1484  N1490   1.046   .     S
H1485  N1490   1.046   .     S
H1486  N1491   1.045   .     S
O1496  H1539   1.014   .     S
O1496  C1518   1.398   .     S
C1509  C1512   1.444   .     S
C1509  O1560   1.292   .     A
C1509  O1551   1.292   .     A
C1510  C1512   1.410   .     A
C1510  N1550   1.436   .     S
C1511  C1527   1.405   .     A
C1511  C1528   1.410   .     A
C1511  C1520   1.444   .     S
C1512  C1526   1.405   .     A
C1513  H1531   1.083   .     S
C1513  N1546   1.359   .     A
C1514  H1537   1.083   .     S
C1514  N1545   1.359   .     A
C1514  C472    1.417   1_556 S
C1515  N1545   1.383   .     A
C1515  C1519   1.469   .     S
C1515  C469    1.417   1_556 S
C1516  C1521   1.469   .     S
C1516  N1546   1.383   .     A
C1517  O1552   1.399   .     S
C1517  C1408   1.496   1_655 S
C1517  O1450   1.223   1_655 S
C1518  O1553   1.223   .     D
C1519  O1555   1.222   .     D
C1519  O1556   1.397   .     S
C1520  O1561   1.292   .     A
C1520  O1559   1.292   .     A
C1521  O1557   1.222   .     D
C1521  O1558   1.397   .     S
C1522  O1564   1.292   .     A
C1522  O1562   1.287   .     A
C1522  C1524   1.436   .     S
C1523  O1565   1.293   .     A
C1523  C1525   1.436   .     S
C1523  O1563   1.287   .     A
C1525  C1408   1.360   1_655 S
C1525  C1402   1.496   1_655 S
C1526  N1547   1.436   .     S
C1527  N1548   1.436   .     S
C1527  C1162   1.394   1_565 S
C1528  N1549   1.436   .     S
C1528  C1178   1.394   1_565 S
Cu1529 O1565   1.966   .     S
Cu1529 O1561   1.953   .     S
Cu1529 O1562   1.970   .     S
Cu1529 N1545   2.022   .     S
Cu1529 Cu1530  2.691   .     S
Cu1529 O1551   1.959   .     S
Cu1530 O1564   1.966   .     S
Cu1530 O1563   1.970   .     S
Cu1530 N1546   2.022   .     S
Cu1530 O1560   1.953   .     S
Cu1530 O1559   1.959   .     S
H1532  N1549   1.045   .     S
H1533  N1550   1.045   .     S
H1534  N1550   1.045   .     S
H1535  O1556   1.014   .     S
H1536  O1558   1.014   .     S
H1538  O1552   1.014   .     S
H1540  N1547   1.046   .     S
H1541  N1547   1.046   .     S
H1542  N1548   1.046   .     S
H1543  N1548   1.046   .     S
H1544  N1549   1.045   .     S
O1554  H1423   1.014   1_655 S
O1554  C1402   1.398   1_655 S
