data_str_m1_o10_o18_pcu_sym.155
_audit_creation_date              2020-01-03
_audit_creation_method            'Materials Studio'
_symmetry_space_group_name_H-M    'P1'
_symmetry_Int_Tables_number       1
_symmetry_cell_setting            triclinic
loop_
_symmetry_equiv_pos_as_xyz
  x,y,z
_cell_length_a                    32.5948
_cell_length_b                    32.5699
_cell_length_c                    35.7157
_cell_angle_alpha                 97.9135
_cell_angle_beta                  72.9699
_cell_angle_gamma                 97.9473
loop_
_atom_site_label
_atom_site_type_symbol
_atom_site_fract_x
_atom_site_fract_y
_atom_site_fract_z
_atom_site_U_iso_or_equiv
_atom_site_adp_type
_atom_site_occupancy
C1     C     0.05281   0.16049   0.25849   0.00000  Uiso   1.00
C2     C     0.20737   0.14453   0.46073   0.00000  Uiso   1.00
C3     C     0.23125   0.12631   0.47890   0.00000  Uiso   1.00
C4     C     0.28096   0.17341   0.24146   0.00000  Uiso   1.00
C5     C     0.21784   0.12486   0.01955   0.00000  Uiso   1.00
C6     C     0.17868   0.14119   0.04186   0.00000  Uiso   1.00
C7     C     0.24496   0.11078   0.03844   0.00000  Uiso   1.00
C8     C     0.23587   0.11750   0.07967   0.00000  Uiso   1.00
C9     C     0.17129   0.14867   0.08281   0.00000  Uiso   1.00
C10    C     0.32672   0.17402   0.23786   0.00000  Uiso   1.00
C11    C     0.00679   0.15768   0.26436   0.00000  Uiso   1.00
C12    C     0.09767   0.21449   0.42276   0.00000  Uiso   1.00
C13    C     0.17952   0.32200   0.23868   0.00000  Uiso   1.00
C14    C     0.15106   0.01295   0.26351   0.00000  Uiso   1.00
C15    C     0.15639   0.05638   0.25875   0.00000  Uiso   1.00
C16    C     0.17661   0.27764   0.24156   0.00000  Uiso   1.00
C17    C     0.18868   0.14506   0.14413   0.00000  Uiso   1.00
C18    C     0.14433   0.18664   0.35653   0.00000  Uiso   1.00
C19    C     0.13054   0.18987   0.40033   0.00000  Uiso   1.00
C20    C     0.19871   0.13636   0.10152   0.00000  Uiso   1.00
C21    C     0.08100   0.21164   0.46365   0.00000  Uiso   1.00
C22    C     0.05956   0.24107   0.06804   0.00000  Uiso   1.00
C23    C     0.14823   0.16515   0.41990   0.00000  Uiso   1.00
C24    C     0.01832   0.25654   0.09581   0.00000  Uiso   1.00
C25    C     0.32783   0.11805   0.31735   0.00000  Uiso   1.00
C26    C     0.29157   0.09890   0.34963   0.00000  Uiso   1.00
C27    C     0.29480   0.13442   0.10325   0.00000  Uiso   1.00
C28    C     0.31125   0.12578   0.13679   0.00000  Uiso   1.00
C29    C     0.00764   0.20541   0.47759   0.00000  Uiso   1.00
C30    C     0.30052   0.22050   0.00715   0.00000  Uiso   1.00
C31    C     0.09111   0.27907   0.40909   0.00000  Uiso   1.00
C32    C     0.06284   0.30343   0.39504   0.00000  Uiso   1.00
C33    C     0.14456   0.09514   0.40175   0.00000  Uiso   1.00
C34    C     0.13976   0.17124   0.46133   0.00000  Uiso   1.00
C35    C     0.17129   0.05961   0.38103   0.00000  Uiso   1.00
C36    C     0.10298   0.19125   0.48347   0.00000  Uiso   1.00
C37    C     0.16572   0.15589   0.48106   0.00000  Uiso   1.00
C38    C     0.15044   0.15331   0.02227   0.00000  Uiso   1.00
C39    C     0.10791   0.16386   0.04205   0.00000  Uiso   1.00
C40    C     0.08754   0.18775   0.02435   0.00000  Uiso   1.00
H41    H     0.01662   0.18729   0.21273   0.00000  Uiso   1.00
H42    H     0.33026   0.26323   0.07879   0.00000  Uiso   1.00
H43    H     0.30969   0.10805   0.01831   0.00000  Uiso   1.00
H44    H     0.28008   0.06140   0.02673   0.00000  Uiso   1.00
H45    H     0.01886   0.13611   0.33112   0.00000  Uiso   1.00
H46    H     0.00924   0.09219   0.29601   0.00000  Uiso   1.00
H47    H     0.26718   0.07988   0.33662   0.00000  Uiso   1.00
H48    H     0.30466   0.07859   0.36495   0.00000  Uiso   1.00
H49    H     0.27591   0.12384   0.37135   0.00000  Uiso   1.00
H50    H     0.08736   0.00449   0.29137   0.00000  Uiso   1.00
H51    H     0.11973   0.01417   0.32148   0.00000  Uiso   1.00
H52    H     0.20566   0.00209   0.21554   0.00000  Uiso   1.00
H53    H     0.28406   0.16631   0.11008   0.00000  Uiso   1.00
H54    H     0.32209   0.13407   0.07602   0.00000  Uiso   1.00
H55    H     0.32667   0.09625   0.12899   0.00000  Uiso   1.00
H56    H     0.00196   0.15167   0.14258   0.00000  Uiso   1.00
H57    H     0.28401   0.12300   0.16389   0.00000  Uiso   1.00
H58    H     0.00835   0.17203   0.48111   0.00000  Uiso   1.00
H59    H     0.00535   0.20782   0.44754   0.00000  Uiso   1.00
H60    H     0.30111   0.25477   0.00783   0.00000  Uiso   1.00
H61    H     0.27149   0.20529   0.49868   0.00000  Uiso   1.00
H62    H     0.29837   0.21249   0.03693   0.00000  Uiso   1.00
H63    H     0.14585   0.16660   0.10073   0.00000  Uiso   1.00
H64    H     0.12516   0.28519   0.39116   0.00000  Uiso   1.00
H65    H     0.08856   0.29061   0.44048   0.00000  Uiso   1.00
H66    H     0.07362   0.00393   0.39812   0.00000  Uiso   1.00
H67    H     0.06480   0.29305   0.36368   0.00000  Uiso   1.00
H68    H     0.02877   0.29814   0.41298   0.00000  Uiso   1.00
H69    H     0.11847   0.09549   0.38748   0.00000  Uiso   1.00
H70    H     0.12986   0.08901   0.43307   0.00000  Uiso   1.00
H71    H     0.19756   0.05864   0.39478   0.00000  Uiso   1.00
H72    H     0.15065   0.02949   0.38351   0.00000  Uiso   1.00
H73    H     0.18558   0.06403   0.34940   0.00000  Uiso   1.00
H74    H     0.26231   0.11689   0.46132   0.00000  Uiso   1.00
H75    H     0.09335   0.11864   0.08065   0.00000  Uiso   1.00
H76    H     0.07925   0.16746   0.10145   0.00000  Uiso   1.00
H77    H     0.22308   0.15081   0.43074   0.00000  Uiso   1.00
H78    H     0.07558   0.26519   0.04766   0.00000  Uiso   1.00
H79    H     0.08112   0.23725   0.08616   0.00000  Uiso   1.00
H80    H     0.00118   0.23268   0.11597   0.00000  Uiso   1.00
H81    H     0.02629   0.28565   0.11361   0.00000  Uiso   1.00
N82    N     0.28158   0.08978   0.01557   0.00000  Uiso   1.00
N83    N     0.11622   0.33099   0.29516   0.00000  Uiso   1.00
N84    N     0.08162   0.14559   0.07682   0.00000  Uiso   1.00
O85    O     0.16667   0.16667   0.25000   0.00000  Uiso   1.00
O86    O     0.15693   0.12393   0.16625   0.00000  Uiso   1.00
O87    O     0.12687   0.20646   0.33749   0.00000  Uiso   1.00
O88    O     0.21088   0.17493   0.15877   0.00000  Uiso   1.00
O89    O     0.17198   0.16135   0.33749   0.00000  Uiso   1.00
O90    O     0.04936   0.20312   0.04662   0.00000  Uiso   1.00
O91    O     0.31072   0.14458   0.29888   0.00000  Uiso   1.00
O92    O     0.26148   0.10300   0.09878   0.00000  Uiso   1.00
O93    O     0.04430   0.23059   0.48433   0.00000  Uiso   1.00
O94    O     0.07705   0.23622   0.40425   0.00000  Uiso   1.00
O95    O     0.17166   0.13304   0.39851   0.00000  Uiso   1.00
O96    O     0.17849   0.08101   0.27820   0.00000  Uiso   1.00
O97    O     0.14581   0.26136   0.26767   0.00000  Uiso   1.00
O98    O     0.07452   0.13251   0.23607   0.00000  Uiso   1.00
O99    O     0.26785   0.19179   0.21805   0.00000  Uiso   1.00
O100   O     0.06990   0.18960   0.27820   0.00000  Uiso   1.00
O101   O     0.25440   0.15277   0.26767   0.00000  Uiso   1.00
O102   O     0.13800   0.06903   0.23607   0.00000  Uiso   1.00
O103   O     0.20437   0.25527   0.21805   0.00000  Uiso   1.00
Zn104  Zn    0.19244   0.14090   0.28277   0.00000  Uiso   1.00
Zn105  Zn    0.13459   0.12378   0.22257   0.00000  Uiso   1.00
Zn106  Zn    0.21166   0.19664   0.21188   0.00000  Uiso   1.00
Zn107  Zn    0.12798   0.20535   0.28277   0.00000  Uiso   1.00
C108   C     0.38614   0.16049   0.25849   0.00000  Uiso   1.00
C109   C     0.54070   0.14453   0.46073   0.00000  Uiso   1.00
C110   C     0.56458   0.12631   0.47890   0.00000  Uiso   1.00
C111   C     0.61429   0.17341   0.24146   0.00000  Uiso   1.00
C112   C     0.55117   0.12486   0.01955   0.00000  Uiso   1.00
C113   C     0.51202   0.14119   0.04186   0.00000  Uiso   1.00
C114   C     0.57830   0.11078   0.03844   0.00000  Uiso   1.00
C115   C     0.56921   0.11750   0.07967   0.00000  Uiso   1.00
C116   C     0.50462   0.14867   0.08281   0.00000  Uiso   1.00
C117   C     0.66005   0.17402   0.23786   0.00000  Uiso   1.00
C118   C     0.34012   0.15768   0.26436   0.00000  Uiso   1.00
C119   C     0.43100   0.21449   0.42276   0.00000  Uiso   1.00
C120   C     0.51285   0.32200   0.23868   0.00000  Uiso   1.00
C121   C     0.48440   0.01295   0.26351   0.00000  Uiso   1.00
C122   C     0.48972   0.05638   0.25875   0.00000  Uiso   1.00
C123   C     0.50994   0.27764   0.24156   0.00000  Uiso   1.00
C124   C     0.52201   0.14506   0.14413   0.00000  Uiso   1.00
C125   C     0.47767   0.18664   0.35653   0.00000  Uiso   1.00
C126   C     0.46388   0.18987   0.40033   0.00000  Uiso   1.00
C127   C     0.53205   0.13636   0.10152   0.00000  Uiso   1.00
C128   C     0.41433   0.21164   0.46365   0.00000  Uiso   1.00
C129   C     0.39289   0.24107   0.06804   0.00000  Uiso   1.00
C130   C     0.48156   0.16515   0.41990   0.00000  Uiso   1.00
C131   C     0.35166   0.25654   0.09581   0.00000  Uiso   1.00
C132   C     0.66116   0.11805   0.31735   0.00000  Uiso   1.00
C133   C     0.62490   0.09890   0.34963   0.00000  Uiso   1.00
C134   C     0.62813   0.13442   0.10325   0.00000  Uiso   1.00
C135   C     0.64458   0.12578   0.13679   0.00000  Uiso   1.00
C136   C     0.34097   0.20541   0.47759   0.00000  Uiso   1.00
C137   C     0.63386   0.22050   0.00715   0.00000  Uiso   1.00
C138   C     0.42444   0.27907   0.40909   0.00000  Uiso   1.00
C139   C     0.39617   0.30343   0.39504   0.00000  Uiso   1.00
C140   C     0.47789   0.09514   0.40175   0.00000  Uiso   1.00
C141   C     0.47309   0.17124   0.46133   0.00000  Uiso   1.00
C142   C     0.50462   0.05961   0.38103   0.00000  Uiso   1.00
C143   C     0.43631   0.19125   0.48347   0.00000  Uiso   1.00
C144   C     0.49905   0.15589   0.48106   0.00000  Uiso   1.00
C145   C     0.48377   0.15331   0.02227   0.00000  Uiso   1.00
C146   C     0.44125   0.16386   0.04205   0.00000  Uiso   1.00
C147   C     0.42088   0.18775   0.02435   0.00000  Uiso   1.00
H148   H     0.34995   0.18729   0.21273   0.00000  Uiso   1.00
H149   H     0.66359   0.26323   0.07879   0.00000  Uiso   1.00
H150   H     0.64302   0.10805   0.01831   0.00000  Uiso   1.00
H151   H     0.61341   0.06140   0.02673   0.00000  Uiso   1.00
H152   H     0.35219   0.13611   0.33112   0.00000  Uiso   1.00
H153   H     0.34257   0.09219   0.29601   0.00000  Uiso   1.00
H154   H     0.60052   0.07988   0.33662   0.00000  Uiso   1.00
H155   H     0.63799   0.07859   0.36495   0.00000  Uiso   1.00
H156   H     0.60924   0.12384   0.37135   0.00000  Uiso   1.00
H157   H     0.42069   0.00449   0.29137   0.00000  Uiso   1.00
H158   H     0.45307   0.01417   0.32148   0.00000  Uiso   1.00
H159   H     0.53899   0.00209   0.21554   0.00000  Uiso   1.00
H160   H     0.61739   0.16631   0.11008   0.00000  Uiso   1.00
H161   H     0.65542   0.13407   0.07602   0.00000  Uiso   1.00
H162   H     0.66000   0.09625   0.12899   0.00000  Uiso   1.00
H163   H     0.33529   0.15167   0.14258   0.00000  Uiso   1.00
H164   H     0.61734   0.12300   0.16389   0.00000  Uiso   1.00
H165   H     0.34168   0.17203   0.48111   0.00000  Uiso   1.00
H166   H     0.33868   0.20782   0.44754   0.00000  Uiso   1.00
H167   H     0.63445   0.25477   0.00783   0.00000  Uiso   1.00
H168   H     0.60483   0.20529   0.49868   0.00000  Uiso   1.00
H169   H     0.63171   0.21249   0.03693   0.00000  Uiso   1.00
H170   H     0.47918   0.16660   0.10073   0.00000  Uiso   1.00
H171   H     0.45849   0.28519   0.39116   0.00000  Uiso   1.00
H172   H     0.42190   0.29061   0.44048   0.00000  Uiso   1.00
H173   H     0.40695   0.00393   0.39812   0.00000  Uiso   1.00
H174   H     0.39813   0.29305   0.36368   0.00000  Uiso   1.00
H175   H     0.36210   0.29814   0.41298   0.00000  Uiso   1.00
H176   H     0.45180   0.09549   0.38748   0.00000  Uiso   1.00
H177   H     0.46320   0.08901   0.43307   0.00000  Uiso   1.00
H178   H     0.53089   0.05864   0.39478   0.00000  Uiso   1.00
H179   H     0.48398   0.02949   0.38351   0.00000  Uiso   1.00
H180   H     0.51891   0.06403   0.34940   0.00000  Uiso   1.00
H181   H     0.59564   0.11689   0.46132   0.00000  Uiso   1.00
H182   H     0.42668   0.11864   0.08065   0.00000  Uiso   1.00
H183   H     0.41258   0.16746   0.10145   0.00000  Uiso   1.00
H184   H     0.55641   0.15081   0.43074   0.00000  Uiso   1.00
H185   H     0.40891   0.26519   0.04766   0.00000  Uiso   1.00
H186   H     0.41446   0.23725   0.08616   0.00000  Uiso   1.00
H187   H     0.33452   0.23268   0.11597   0.00000  Uiso   1.00
H188   H     0.35962   0.28565   0.11361   0.00000  Uiso   1.00
N189   N     0.61492   0.08978   0.01557   0.00000  Uiso   1.00
N190   N     0.44955   0.33099   0.29516   0.00000  Uiso   1.00
N191   N     0.41495   0.14559   0.07682   0.00000  Uiso   1.00
O192   O     0.50000   0.16667   0.25000   0.00000  Uiso   1.00
O193   O     0.49027   0.12393   0.16625   0.00000  Uiso   1.00
O194   O     0.46020   0.20646   0.33749   0.00000  Uiso   1.00
O195   O     0.54421   0.17493   0.15877   0.00000  Uiso   1.00
O196   O     0.50532   0.16135   0.33749   0.00000  Uiso   1.00
O197   O     0.38270   0.20312   0.04662   0.00000  Uiso   1.00
O198   O     0.64405   0.14458   0.29888   0.00000  Uiso   1.00
O199   O     0.59481   0.10300   0.09878   0.00000  Uiso   1.00
O200   O     0.37763   0.23059   0.48433   0.00000  Uiso   1.00
O201   O     0.41038   0.23622   0.40425   0.00000  Uiso   1.00
O202   O     0.50499   0.13304   0.39851   0.00000  Uiso   1.00
O203   O     0.51182   0.08101   0.27820   0.00000  Uiso   1.00
O204   O     0.47914   0.26136   0.26767   0.00000  Uiso   1.00
O205   O     0.40785   0.13251   0.23607   0.00000  Uiso   1.00
O206   O     0.60119   0.19179   0.21805   0.00000  Uiso   1.00
O207   O     0.40323   0.18960   0.27820   0.00000  Uiso   1.00
O208   O     0.58773   0.15277   0.26767   0.00000  Uiso   1.00
O209   O     0.47133   0.06903   0.23607   0.00000  Uiso   1.00
O210   O     0.53771   0.25527   0.21805   0.00000  Uiso   1.00
Zn211  Zn    0.52577   0.14090   0.28277   0.00000  Uiso   1.00
Zn212  Zn    0.46792   0.12378   0.22257   0.00000  Uiso   1.00
Zn213  Zn    0.54500   0.19664   0.21188   0.00000  Uiso   1.00
Zn214  Zn    0.46131   0.20535   0.28277   0.00000  Uiso   1.00
C215   C     0.71948   0.16049   0.25849   0.00000  Uiso   1.00
C216   C     0.87403   0.14453   0.46073   0.00000  Uiso   1.00
C217   C     0.89792   0.12631   0.47890   0.00000  Uiso   1.00
C218   C     0.94763   0.17341   0.24146   0.00000  Uiso   1.00
C219   C     0.88451   0.12486   0.01955   0.00000  Uiso   1.00
C220   C     0.84535   0.14119   0.04186   0.00000  Uiso   1.00
C221   C     0.91163   0.11078   0.03844   0.00000  Uiso   1.00
C222   C     0.90254   0.11750   0.07967   0.00000  Uiso   1.00
C223   C     0.83795   0.14867   0.08281   0.00000  Uiso   1.00
C224   C     0.99339   0.17402   0.23786   0.00000  Uiso   1.00
C225   C     0.67346   0.15768   0.26436   0.00000  Uiso   1.00
C226   C     0.76434   0.21449   0.42276   0.00000  Uiso   1.00
C227   C     0.84618   0.32200   0.23868   0.00000  Uiso   1.00
C228   C     0.81773   0.01295   0.26351   0.00000  Uiso   1.00
C229   C     0.82306   0.05638   0.25875   0.00000  Uiso   1.00
C230   C     0.84327   0.27764   0.24156   0.00000  Uiso   1.00
C231   C     0.85535   0.14506   0.14413   0.00000  Uiso   1.00
C232   C     0.81100   0.18664   0.35653   0.00000  Uiso   1.00
C233   C     0.79721   0.18987   0.40033   0.00000  Uiso   1.00
C234   C     0.86538   0.13636   0.10152   0.00000  Uiso   1.00
C235   C     0.74767   0.21164   0.46365   0.00000  Uiso   1.00
C236   C     0.72622   0.24107   0.06804   0.00000  Uiso   1.00
C237   C     0.81489   0.16515   0.41990   0.00000  Uiso   1.00
C238   C     0.68499   0.25654   0.09581   0.00000  Uiso   1.00
C239   C     0.99449   0.11805   0.31735   0.00000  Uiso   1.00
C240   C     0.95824   0.09890   0.34963   0.00000  Uiso   1.00
C241   C     0.96147   0.13442   0.10325   0.00000  Uiso   1.00
C242   C     0.97791   0.12578   0.13679   0.00000  Uiso   1.00
C243   C     0.67430   0.20541   0.47759   0.00000  Uiso   1.00
C244   C     0.96719   0.22050   0.00715   0.00000  Uiso   1.00
C245   C     0.75777   0.27907   0.40909   0.00000  Uiso   1.00
C246   C     0.72950   0.30343   0.39504   0.00000  Uiso   1.00
C247   C     0.81122   0.09514   0.40175   0.00000  Uiso   1.00
C248   C     0.80643   0.17124   0.46133   0.00000  Uiso   1.00
C249   C     0.83795   0.05961   0.38103   0.00000  Uiso   1.00
C250   C     0.76964   0.19125   0.48347   0.00000  Uiso   1.00
C251   C     0.83239   0.15589   0.48106   0.00000  Uiso   1.00
C252   C     0.81710   0.15331   0.02227   0.00000  Uiso   1.00
C253   C     0.77458   0.16386   0.04205   0.00000  Uiso   1.00
C254   C     0.75421   0.18775   0.02435   0.00000  Uiso   1.00
H255   H     0.68329   0.18729   0.21273   0.00000  Uiso   1.00
H256   H     0.99692   0.26323   0.07879   0.00000  Uiso   1.00
H257   H     0.97635   0.10805   0.01831   0.00000  Uiso   1.00
H258   H     0.94674   0.06140   0.02673   0.00000  Uiso   1.00
H259   H     0.68552   0.13611   0.33112   0.00000  Uiso   1.00
H260   H     0.67591   0.09219   0.29601   0.00000  Uiso   1.00
H261   H     0.93385   0.07988   0.33662   0.00000  Uiso   1.00
H262   H     0.97132   0.07859   0.36495   0.00000  Uiso   1.00
H263   H     0.94258   0.12384   0.37135   0.00000  Uiso   1.00
H264   H     0.75402   0.00449   0.29137   0.00000  Uiso   1.00
H265   H     0.78640   0.01417   0.32148   0.00000  Uiso   1.00
H266   H     0.87233   0.00209   0.21554   0.00000  Uiso   1.00
H267   H     0.95072   0.16631   0.11008   0.00000  Uiso   1.00
H268   H     0.98876   0.13407   0.07602   0.00000  Uiso   1.00
H269   H     0.99333   0.09625   0.12899   0.00000  Uiso   1.00
H270   H     0.66863   0.15167   0.14258   0.00000  Uiso   1.00
H271   H     0.95067   0.12300   0.16389   0.00000  Uiso   1.00
H272   H     0.67501   0.17203   0.48111   0.00000  Uiso   1.00
H273   H     0.67201   0.20782   0.44754   0.00000  Uiso   1.00
H274   H     0.96778   0.25477   0.00783   0.00000  Uiso   1.00
H275   H     0.93816   0.20529   0.49868   0.00000  Uiso   1.00
H276   H     0.96504   0.21249   0.03693   0.00000  Uiso   1.00
H277   H     0.81251   0.16660   0.10073   0.00000  Uiso   1.00
H278   H     0.79182   0.28519   0.39116   0.00000  Uiso   1.00
H279   H     0.75523   0.29061   0.44048   0.00000  Uiso   1.00
H280   H     0.74028   0.00393   0.39812   0.00000  Uiso   1.00
H281   H     0.73147   0.29305   0.36368   0.00000  Uiso   1.00
H282   H     0.69544   0.29814   0.41298   0.00000  Uiso   1.00
H283   H     0.78514   0.09549   0.38748   0.00000  Uiso   1.00
H284   H     0.79653   0.08901   0.43307   0.00000  Uiso   1.00
H285   H     0.86423   0.05864   0.39478   0.00000  Uiso   1.00
H286   H     0.81732   0.02949   0.38351   0.00000  Uiso   1.00
H287   H     0.85225   0.06403   0.34940   0.00000  Uiso   1.00
H288   H     0.92898   0.11689   0.46132   0.00000  Uiso   1.00
H289   H     0.76002   0.11864   0.08065   0.00000  Uiso   1.00
H290   H     0.74592   0.16746   0.10145   0.00000  Uiso   1.00
H291   H     0.88974   0.15081   0.43074   0.00000  Uiso   1.00
H292   H     0.74224   0.26519   0.04766   0.00000  Uiso   1.00
H293   H     0.74779   0.23725   0.08616   0.00000  Uiso   1.00
H294   H     0.66785   0.23268   0.11597   0.00000  Uiso   1.00
H295   H     0.69295   0.28565   0.11361   0.00000  Uiso   1.00
N296   N     0.94825   0.08978   0.01557   0.00000  Uiso   1.00
N297   N     0.78288   0.33099   0.29516   0.00000  Uiso   1.00
N298   N     0.74828   0.14559   0.07682   0.00000  Uiso   1.00
O299   O     0.83333   0.16667   0.25000   0.00000  Uiso   1.00
O300   O     0.82360   0.12393   0.16625   0.00000  Uiso   1.00
O301   O     0.79354   0.20646   0.33749   0.00000  Uiso   1.00
O302   O     0.87755   0.17493   0.15877   0.00000  Uiso   1.00
O303   O     0.83865   0.16135   0.33749   0.00000  Uiso   1.00
O304   O     0.71603   0.20312   0.04662   0.00000  Uiso   1.00
O305   O     0.97739   0.14458   0.29888   0.00000  Uiso   1.00
O306   O     0.92814   0.10300   0.09878   0.00000  Uiso   1.00
O307   O     0.71096   0.23059   0.48433   0.00000  Uiso   1.00
O308   O     0.74372   0.23622   0.40425   0.00000  Uiso   1.00
O309   O     0.83833   0.13304   0.39851   0.00000  Uiso   1.00
O310   O     0.84515   0.08101   0.27820   0.00000  Uiso   1.00
O311   O     0.81247   0.26136   0.26767   0.00000  Uiso   1.00
O312   O     0.74119   0.13251   0.23607   0.00000  Uiso   1.00
O313   O     0.93452   0.19179   0.21805   0.00000  Uiso   1.00
O314   O     0.73656   0.18960   0.27820   0.00000  Uiso   1.00
O315   O     0.92106   0.15277   0.26767   0.00000  Uiso   1.00
O316   O     0.80467   0.06903   0.23607   0.00000  Uiso   1.00
O317   O     0.87104   0.25527   0.21805   0.00000  Uiso   1.00
Zn318  Zn    0.85910   0.14090   0.28277   0.00000  Uiso   1.00
Zn319  Zn    0.80125   0.12378   0.22257   0.00000  Uiso   1.00
Zn320  Zn    0.87833   0.19664   0.21188   0.00000  Uiso   1.00
Zn321  Zn    0.79465   0.20535   0.28277   0.00000  Uiso   1.00
C322   C     0.05281   0.49382   0.25849   0.00000  Uiso   1.00
C323   C     0.20737   0.47786   0.46073   0.00000  Uiso   1.00
C324   C     0.23125   0.45964   0.47890   0.00000  Uiso   1.00
C325   C     0.28096   0.50675   0.24146   0.00000  Uiso   1.00
C326   C     0.21784   0.45820   0.01955   0.00000  Uiso   1.00
C327   C     0.17868   0.47453   0.04186   0.00000  Uiso   1.00
C328   C     0.24496   0.44412   0.03844   0.00000  Uiso   1.00
C329   C     0.23587   0.45084   0.07967   0.00000  Uiso   1.00
C330   C     0.17129   0.48201   0.08281   0.00000  Uiso   1.00
C331   C     0.32672   0.50735   0.23786   0.00000  Uiso   1.00
C332   C     0.00679   0.49101   0.26436   0.00000  Uiso   1.00
C333   C     0.09767   0.54782   0.42276   0.00000  Uiso   1.00
C334   C     0.17952   0.65534   0.23868   0.00000  Uiso   1.00
C335   C     0.15106   0.34628   0.26351   0.00000  Uiso   1.00
C336   C     0.15639   0.38972   0.25875   0.00000  Uiso   1.00
C337   C     0.17661   0.61097   0.24156   0.00000  Uiso   1.00
C338   C     0.18868   0.47839   0.14413   0.00000  Uiso   1.00
C339   C     0.14433   0.51997   0.35653   0.00000  Uiso   1.00
C340   C     0.13054   0.52321   0.40033   0.00000  Uiso   1.00
C341   C     0.19871   0.46969   0.10152   0.00000  Uiso   1.00
C342   C     0.08100   0.54497   0.46365   0.00000  Uiso   1.00
C343   C     0.05956   0.57440   0.06804   0.00000  Uiso   1.00
C344   C     0.14823   0.49848   0.41990   0.00000  Uiso   1.00
C345   C     0.01832   0.58987   0.09581   0.00000  Uiso   1.00
C346   C     0.32783   0.45138   0.31735   0.00000  Uiso   1.00
C347   C     0.29157   0.43223   0.34963   0.00000  Uiso   1.00
C348   C     0.29480   0.46775   0.10325   0.00000  Uiso   1.00
C349   C     0.31125   0.45911   0.13679   0.00000  Uiso   1.00
C350   C     0.00764   0.53874   0.47759   0.00000  Uiso   1.00
C351   C     0.30052   0.55383   0.00715   0.00000  Uiso   1.00
C352   C     0.09111   0.61241   0.40909   0.00000  Uiso   1.00
C353   C     0.06284   0.63677   0.39504   0.00000  Uiso   1.00
C354   C     0.14456   0.42847   0.40175   0.00000  Uiso   1.00
C355   C     0.13976   0.50458   0.46133   0.00000  Uiso   1.00
C356   C     0.17129   0.39294   0.38103   0.00000  Uiso   1.00
C357   C     0.10298   0.52458   0.48347   0.00000  Uiso   1.00
C358   C     0.16572   0.48922   0.48106   0.00000  Uiso   1.00
C359   C     0.15044   0.48665   0.02227   0.00000  Uiso   1.00
C360   C     0.10791   0.49720   0.04205   0.00000  Uiso   1.00
C361   C     0.08754   0.52109   0.02435   0.00000  Uiso   1.00
H362   H     0.01662   0.52062   0.21273   0.00000  Uiso   1.00
H363   H     0.33026   0.59656   0.07879   0.00000  Uiso   1.00
H364   H     0.30969   0.44138   0.01831   0.00000  Uiso   1.00
H365   H     0.28008   0.39473   0.02673   0.00000  Uiso   1.00
H366   H     0.01886   0.46944   0.33112   0.00000  Uiso   1.00
H367   H     0.00924   0.42553   0.29601   0.00000  Uiso   1.00
H368   H     0.26718   0.41321   0.33662   0.00000  Uiso   1.00
H369   H     0.30466   0.41192   0.36495   0.00000  Uiso   1.00
H370   H     0.27591   0.45717   0.37135   0.00000  Uiso   1.00
H371   H     0.08736   0.33782   0.29137   0.00000  Uiso   1.00
H372   H     0.11973   0.34750   0.32148   0.00000  Uiso   1.00
H373   H     0.20566   0.33543   0.21554   0.00000  Uiso   1.00
H374   H     0.28406   0.49964   0.11008   0.00000  Uiso   1.00
H375   H     0.32209   0.46740   0.07602   0.00000  Uiso   1.00
H376   H     0.32667   0.42958   0.12899   0.00000  Uiso   1.00
H377   H     0.00196   0.48500   0.14258   0.00000  Uiso   1.00
H378   H     0.28401   0.45633   0.16389   0.00000  Uiso   1.00
H379   H     0.00835   0.50536   0.48111   0.00000  Uiso   1.00
H380   H     0.00535   0.54115   0.44754   0.00000  Uiso   1.00
H381   H     0.30111   0.58810   0.00783   0.00000  Uiso   1.00
H382   H     0.27149   0.53862   0.49868   0.00000  Uiso   1.00
H383   H     0.29837   0.54582   0.03693   0.00000  Uiso   1.00
H384   H     0.14585   0.49994   0.10073   0.00000  Uiso   1.00
H385   H     0.12516   0.61852   0.39116   0.00000  Uiso   1.00
H386   H     0.08856   0.62394   0.44048   0.00000  Uiso   1.00
H387   H     0.07362   0.33727   0.39812   0.00000  Uiso   1.00
H388   H     0.06480   0.62638   0.36368   0.00000  Uiso   1.00
H389   H     0.02877   0.63147   0.41298   0.00000  Uiso   1.00
H390   H     0.11847   0.42882   0.38748   0.00000  Uiso   1.00
H391   H     0.12986   0.42235   0.43307   0.00000  Uiso   1.00
H392   H     0.19756   0.39197   0.39478   0.00000  Uiso   1.00
H393   H     0.15065   0.36283   0.38351   0.00000  Uiso   1.00
H394   H     0.18558   0.39737   0.34940   0.00000  Uiso   1.00
H395   H     0.26231   0.45022   0.46132   0.00000  Uiso   1.00
H396   H     0.09335   0.45198   0.08065   0.00000  Uiso   1.00
H397   H     0.07925   0.50080   0.10145   0.00000  Uiso   1.00
H398   H     0.22308   0.48415   0.43074   0.00000  Uiso   1.00
H399   H     0.07558   0.59853   0.04766   0.00000  Uiso   1.00
H400   H     0.08112   0.57059   0.08616   0.00000  Uiso   1.00
H401   H     0.00118   0.56601   0.11597   0.00000  Uiso   1.00
H402   H     0.02629   0.61898   0.11361   0.00000  Uiso   1.00
N403   N     0.28158   0.42311   0.01557   0.00000  Uiso   1.00
N404   N     0.11622   0.66432   0.29516   0.00000  Uiso   1.00
N405   N     0.08162   0.47892   0.07682   0.00000  Uiso   1.00
O406   O     0.16667   0.50000   0.25000   0.00000  Uiso   1.00
O407   O     0.15693   0.45726   0.16625   0.00000  Uiso   1.00
O408   O     0.12687   0.53979   0.33749   0.00000  Uiso   1.00
O409   O     0.21088   0.50826   0.15877   0.00000  Uiso   1.00
O410   O     0.17198   0.49468   0.33749   0.00000  Uiso   1.00
O411   O     0.04936   0.53645   0.04662   0.00000  Uiso   1.00
O412   O     0.31072   0.47791   0.29888   0.00000  Uiso   1.00
O413   O     0.26148   0.43633   0.09878   0.00000  Uiso   1.00
O414   O     0.04430   0.56392   0.48433   0.00000  Uiso   1.00
O415   O     0.07705   0.56956   0.40425   0.00000  Uiso   1.00
O416   O     0.17166   0.46637   0.39851   0.00000  Uiso   1.00
O417   O     0.17849   0.41434   0.27820   0.00000  Uiso   1.00
O418   O     0.14581   0.59469   0.26767   0.00000  Uiso   1.00
O419   O     0.07452   0.46584   0.23607   0.00000  Uiso   1.00
O420   O     0.26785   0.52512   0.21805   0.00000  Uiso   1.00
O421   O     0.06990   0.52293   0.27820   0.00000  Uiso   1.00
O422   O     0.25440   0.48610   0.26767   0.00000  Uiso   1.00
O423   O     0.13800   0.40236   0.23607   0.00000  Uiso   1.00
O424   O     0.20437   0.58860   0.21805   0.00000  Uiso   1.00
Zn425  Zn    0.19244   0.47423   0.28277   0.00000  Uiso   1.00
Zn426  Zn    0.13459   0.45711   0.22257   0.00000  Uiso   1.00
Zn427  Zn    0.21166   0.52997   0.21188   0.00000  Uiso   1.00
Zn428  Zn    0.12798   0.53868   0.28277   0.00000  Uiso   1.00
C429   C     0.38614   0.49382   0.25849   0.00000  Uiso   1.00
C430   C     0.54070   0.47786   0.46073   0.00000  Uiso   1.00
C431   C     0.56458   0.45964   0.47890   0.00000  Uiso   1.00
C432   C     0.61429   0.50675   0.24146   0.00000  Uiso   1.00
C433   C     0.55117   0.45820   0.01955   0.00000  Uiso   1.00
C434   C     0.51202   0.47453   0.04186   0.00000  Uiso   1.00
C435   C     0.57830   0.44412   0.03844   0.00000  Uiso   1.00
C436   C     0.56921   0.45084   0.07967   0.00000  Uiso   1.00
C437   C     0.50462   0.48201   0.08281   0.00000  Uiso   1.00
C438   C     0.66005   0.50735   0.23786   0.00000  Uiso   1.00
C439   C     0.34012   0.49101   0.26436   0.00000  Uiso   1.00
C440   C     0.43100   0.54782   0.42276   0.00000  Uiso   1.00
C441   C     0.51285   0.65534   0.23868   0.00000  Uiso   1.00
C442   C     0.48440   0.34628   0.26351   0.00000  Uiso   1.00
C443   C     0.48972   0.38972   0.25875   0.00000  Uiso   1.00
C444   C     0.50994   0.61097   0.24156   0.00000  Uiso   1.00
C445   C     0.52201   0.47839   0.14413   0.00000  Uiso   1.00
C446   C     0.47767   0.51997   0.35653   0.00000  Uiso   1.00
C447   C     0.46388   0.52321   0.40033   0.00000  Uiso   1.00
C448   C     0.53205   0.46969   0.10152   0.00000  Uiso   1.00
C449   C     0.41433   0.54497   0.46365   0.00000  Uiso   1.00
C450   C     0.39289   0.57440   0.06804   0.00000  Uiso   1.00
C451   C     0.48156   0.49848   0.41990   0.00000  Uiso   1.00
C452   C     0.35166   0.58987   0.09581   0.00000  Uiso   1.00
C453   C     0.66116   0.45138   0.31735   0.00000  Uiso   1.00
C454   C     0.62490   0.43223   0.34963   0.00000  Uiso   1.00
C455   C     0.62813   0.46775   0.10325   0.00000  Uiso   1.00
C456   C     0.64458   0.45911   0.13679   0.00000  Uiso   1.00
C457   C     0.34097   0.53874   0.47759   0.00000  Uiso   1.00
C458   C     0.63386   0.55383   0.00715   0.00000  Uiso   1.00
C459   C     0.42444   0.61241   0.40909   0.00000  Uiso   1.00
C460   C     0.39617   0.63677   0.39504   0.00000  Uiso   1.00
C461   C     0.47789   0.42847   0.40175   0.00000  Uiso   1.00
C462   C     0.47309   0.50458   0.46133   0.00000  Uiso   1.00
C463   C     0.50462   0.39294   0.38103   0.00000  Uiso   1.00
C464   C     0.43631   0.52458   0.48347   0.00000  Uiso   1.00
C465   C     0.49905   0.48922   0.48106   0.00000  Uiso   1.00
C466   C     0.48377   0.48665   0.02227   0.00000  Uiso   1.00
C467   C     0.44125   0.49720   0.04205   0.00000  Uiso   1.00
C468   C     0.42088   0.52109   0.02435   0.00000  Uiso   1.00
H469   H     0.34995   0.52062   0.21273   0.00000  Uiso   1.00
H470   H     0.66359   0.59656   0.07879   0.00000  Uiso   1.00
H471   H     0.64302   0.44138   0.01831   0.00000  Uiso   1.00
H472   H     0.61341   0.39473   0.02673   0.00000  Uiso   1.00
H473   H     0.35219   0.46944   0.33112   0.00000  Uiso   1.00
H474   H     0.34257   0.42553   0.29601   0.00000  Uiso   1.00
H475   H     0.60052   0.41321   0.33662   0.00000  Uiso   1.00
H476   H     0.63799   0.41192   0.36495   0.00000  Uiso   1.00
H477   H     0.60924   0.45717   0.37135   0.00000  Uiso   1.00
H478   H     0.42069   0.33782   0.29137   0.00000  Uiso   1.00
H479   H     0.45307   0.34750   0.32148   0.00000  Uiso   1.00
H480   H     0.53899   0.33543   0.21554   0.00000  Uiso   1.00
H481   H     0.61739   0.49964   0.11008   0.00000  Uiso   1.00
H482   H     0.65542   0.46740   0.07602   0.00000  Uiso   1.00
H483   H     0.66000   0.42958   0.12899   0.00000  Uiso   1.00
H484   H     0.33529   0.48500   0.14258   0.00000  Uiso   1.00
H485   H     0.61734   0.45633   0.16389   0.00000  Uiso   1.00
H486   H     0.34168   0.50536   0.48111   0.00000  Uiso   1.00
H487   H     0.33868   0.54115   0.44754   0.00000  Uiso   1.00
H488   H     0.63445   0.58810   0.00783   0.00000  Uiso   1.00
H489   H     0.60483   0.53862   0.49868   0.00000  Uiso   1.00
H490   H     0.63171   0.54582   0.03693   0.00000  Uiso   1.00
H491   H     0.47918   0.49994   0.10073   0.00000  Uiso   1.00
H492   H     0.45849   0.61852   0.39116   0.00000  Uiso   1.00
H493   H     0.42190   0.62394   0.44048   0.00000  Uiso   1.00
H494   H     0.40695   0.33727   0.39812   0.00000  Uiso   1.00
H495   H     0.39813   0.62638   0.36368   0.00000  Uiso   1.00
H496   H     0.36210   0.63147   0.41298   0.00000  Uiso   1.00
H497   H     0.45180   0.42882   0.38748   0.00000  Uiso   1.00
H498   H     0.46320   0.42235   0.43307   0.00000  Uiso   1.00
H499   H     0.53089   0.39197   0.39478   0.00000  Uiso   1.00
H500   H     0.48398   0.36283   0.38351   0.00000  Uiso   1.00
H501   H     0.51891   0.39737   0.34940   0.00000  Uiso   1.00
H502   H     0.59564   0.45022   0.46132   0.00000  Uiso   1.00
H503   H     0.42668   0.45198   0.08065   0.00000  Uiso   1.00
H504   H     0.41258   0.50080   0.10145   0.00000  Uiso   1.00
H505   H     0.55641   0.48415   0.43074   0.00000  Uiso   1.00
H506   H     0.40891   0.59853   0.04766   0.00000  Uiso   1.00
H507   H     0.41446   0.57059   0.08616   0.00000  Uiso   1.00
H508   H     0.33452   0.56601   0.11597   0.00000  Uiso   1.00
H509   H     0.35962   0.61898   0.11361   0.00000  Uiso   1.00
N510   N     0.61492   0.42311   0.01557   0.00000  Uiso   1.00
N511   N     0.44955   0.66432   0.29516   0.00000  Uiso   1.00
N512   N     0.41495   0.47892   0.07682   0.00000  Uiso   1.00
O513   O     0.50000   0.50000   0.25000   0.00000  Uiso   1.00
O514   O     0.49027   0.45726   0.16625   0.00000  Uiso   1.00
O515   O     0.46020   0.53979   0.33749   0.00000  Uiso   1.00
O516   O     0.54421   0.50826   0.15877   0.00000  Uiso   1.00
O517   O     0.50532   0.49468   0.33749   0.00000  Uiso   1.00
O518   O     0.38270   0.53645   0.04662   0.00000  Uiso   1.00
O519   O     0.64405   0.47791   0.29888   0.00000  Uiso   1.00
O520   O     0.59481   0.43633   0.09878   0.00000  Uiso   1.00
O521   O     0.37763   0.56392   0.48433   0.00000  Uiso   1.00
O522   O     0.41038   0.56956   0.40425   0.00000  Uiso   1.00
O523   O     0.50499   0.46637   0.39851   0.00000  Uiso   1.00
O524   O     0.51182   0.41434   0.27820   0.00000  Uiso   1.00
O525   O     0.47914   0.59469   0.26767   0.00000  Uiso   1.00
O526   O     0.40785   0.46584   0.23607   0.00000  Uiso   1.00
O527   O     0.60119   0.52512   0.21805   0.00000  Uiso   1.00
O528   O     0.40323   0.52293   0.27820   0.00000  Uiso   1.00
O529   O     0.58773   0.48610   0.26767   0.00000  Uiso   1.00
O530   O     0.47133   0.40236   0.23607   0.00000  Uiso   1.00
O531   O     0.53771   0.58860   0.21805   0.00000  Uiso   1.00
Zn532  Zn    0.52577   0.47423   0.28277   0.00000  Uiso   1.00
Zn533  Zn    0.46792   0.45711   0.22257   0.00000  Uiso   1.00
Zn534  Zn    0.54500   0.52997   0.21188   0.00000  Uiso   1.00
Zn535  Zn    0.46131   0.53868   0.28277   0.00000  Uiso   1.00
C536   C     0.71948   0.49382   0.25849   0.00000  Uiso   1.00
C537   C     0.87403   0.47786   0.46073   0.00000  Uiso   1.00
C538   C     0.89792   0.45964   0.47890   0.00000  Uiso   1.00
C539   C     0.94763   0.50675   0.24146   0.00000  Uiso   1.00
C540   C     0.88451   0.45820   0.01955   0.00000  Uiso   1.00
C541   C     0.84535   0.47453   0.04186   0.00000  Uiso   1.00
C542   C     0.91163   0.44412   0.03844   0.00000  Uiso   1.00
C543   C     0.90254   0.45084   0.07967   0.00000  Uiso   1.00
C544   C     0.83795   0.48201   0.08281   0.00000  Uiso   1.00
C545   C     0.99339   0.50735   0.23786   0.00000  Uiso   1.00
C546   C     0.67346   0.49101   0.26436   0.00000  Uiso   1.00
C547   C     0.76434   0.54782   0.42276   0.00000  Uiso   1.00
C548   C     0.84618   0.65534   0.23868   0.00000  Uiso   1.00
C549   C     0.81773   0.34628   0.26351   0.00000  Uiso   1.00
C550   C     0.82306   0.38972   0.25875   0.00000  Uiso   1.00
C551   C     0.84327   0.61097   0.24156   0.00000  Uiso   1.00
C552   C     0.85535   0.47839   0.14413   0.00000  Uiso   1.00
C553   C     0.81100   0.51997   0.35653   0.00000  Uiso   1.00
C554   C     0.79721   0.52321   0.40033   0.00000  Uiso   1.00
C555   C     0.86538   0.46969   0.10152   0.00000  Uiso   1.00
C556   C     0.74767   0.54497   0.46365   0.00000  Uiso   1.00
C557   C     0.72622   0.57440   0.06804   0.00000  Uiso   1.00
C558   C     0.81489   0.49848   0.41990   0.00000  Uiso   1.00
C559   C     0.68499   0.58987   0.09581   0.00000  Uiso   1.00
C560   C     0.99449   0.45138   0.31735   0.00000  Uiso   1.00
C561   C     0.95824   0.43223   0.34963   0.00000  Uiso   1.00
C562   C     0.96147   0.46775   0.10325   0.00000  Uiso   1.00
C563   C     0.97791   0.45911   0.13679   0.00000  Uiso   1.00
C564   C     0.67430   0.53874   0.47759   0.00000  Uiso   1.00
C565   C     0.96719   0.55383   0.00715   0.00000  Uiso   1.00
C566   C     0.75777   0.61241   0.40909   0.00000  Uiso   1.00
C567   C     0.72950   0.63677   0.39504   0.00000  Uiso   1.00
C568   C     0.81122   0.42847   0.40175   0.00000  Uiso   1.00
C569   C     0.80643   0.50458   0.46133   0.00000  Uiso   1.00
C570   C     0.83795   0.39294   0.38103   0.00000  Uiso   1.00
C571   C     0.76964   0.52458   0.48347   0.00000  Uiso   1.00
C572   C     0.83239   0.48922   0.48106   0.00000  Uiso   1.00
C573   C     0.81710   0.48665   0.02227   0.00000  Uiso   1.00
C574   C     0.77458   0.49720   0.04205   0.00000  Uiso   1.00
C575   C     0.75421   0.52109   0.02435   0.00000  Uiso   1.00
H576   H     0.68329   0.52062   0.21273   0.00000  Uiso   1.00
H577   H     0.99692   0.59656   0.07879   0.00000  Uiso   1.00
H578   H     0.97635   0.44138   0.01831   0.00000  Uiso   1.00
H579   H     0.94674   0.39473   0.02673   0.00000  Uiso   1.00
H580   H     0.68552   0.46944   0.33112   0.00000  Uiso   1.00
H581   H     0.67591   0.42553   0.29601   0.00000  Uiso   1.00
H582   H     0.93385   0.41321   0.33662   0.00000  Uiso   1.00
H583   H     0.97132   0.41192   0.36495   0.00000  Uiso   1.00
H584   H     0.94258   0.45717   0.37135   0.00000  Uiso   1.00
H585   H     0.75402   0.33782   0.29137   0.00000  Uiso   1.00
H586   H     0.78640   0.34750   0.32148   0.00000  Uiso   1.00
H587   H     0.87233   0.33543   0.21554   0.00000  Uiso   1.00
H588   H     0.95072   0.49964   0.11008   0.00000  Uiso   1.00
H589   H     0.98876   0.46740   0.07602   0.00000  Uiso   1.00
H590   H     0.99333   0.42958   0.12899   0.00000  Uiso   1.00
H591   H     0.66863   0.48500   0.14258   0.00000  Uiso   1.00
H592   H     0.95067   0.45633   0.16389   0.00000  Uiso   1.00
H593   H     0.67501   0.50536   0.48111   0.00000  Uiso   1.00
H594   H     0.67201   0.54115   0.44754   0.00000  Uiso   1.00
H595   H     0.96778   0.58810   0.00783   0.00000  Uiso   1.00
H596   H     0.93816   0.53862   0.49868   0.00000  Uiso   1.00
H597   H     0.96504   0.54582   0.03693   0.00000  Uiso   1.00
H598   H     0.81251   0.49994   0.10073   0.00000  Uiso   1.00
H599   H     0.79182   0.61852   0.39116   0.00000  Uiso   1.00
H600   H     0.75523   0.62394   0.44048   0.00000  Uiso   1.00
H601   H     0.74028   0.33727   0.39812   0.00000  Uiso   1.00
H602   H     0.73147   0.62638   0.36368   0.00000  Uiso   1.00
H603   H     0.69544   0.63147   0.41298   0.00000  Uiso   1.00
H604   H     0.78514   0.42882   0.38748   0.00000  Uiso   1.00
H605   H     0.79653   0.42235   0.43307   0.00000  Uiso   1.00
H606   H     0.86423   0.39197   0.39478   0.00000  Uiso   1.00
H607   H     0.81732   0.36283   0.38351   0.00000  Uiso   1.00
H608   H     0.85225   0.39737   0.34940   0.00000  Uiso   1.00
H609   H     0.92898   0.45022   0.46132   0.00000  Uiso   1.00
H610   H     0.76002   0.45198   0.08065   0.00000  Uiso   1.00
H611   H     0.74592   0.50080   0.10145   0.00000  Uiso   1.00
H612   H     0.88974   0.48415   0.43074   0.00000  Uiso   1.00
H613   H     0.74224   0.59853   0.04766   0.00000  Uiso   1.00
H614   H     0.74779   0.57059   0.08616   0.00000  Uiso   1.00
H615   H     0.66785   0.56601   0.11597   0.00000  Uiso   1.00
H616   H     0.69295   0.61898   0.11361   0.00000  Uiso   1.00
N617   N     0.94825   0.42311   0.01557   0.00000  Uiso   1.00
N618   N     0.78288   0.66432   0.29516   0.00000  Uiso   1.00
N619   N     0.74828   0.47892   0.07682   0.00000  Uiso   1.00
O620   O     0.83333   0.50000   0.25000   0.00000  Uiso   1.00
O621   O     0.82360   0.45726   0.16625   0.00000  Uiso   1.00
O622   O     0.79354   0.53979   0.33749   0.00000  Uiso   1.00
O623   O     0.87755   0.50826   0.15877   0.00000  Uiso   1.00
O624   O     0.83865   0.49468   0.33749   0.00000  Uiso   1.00
O625   O     0.71603   0.53645   0.04662   0.00000  Uiso   1.00
O626   O     0.97739   0.47791   0.29888   0.00000  Uiso   1.00
O627   O     0.92814   0.43633   0.09878   0.00000  Uiso   1.00
O628   O     0.71096   0.56392   0.48433   0.00000  Uiso   1.00
O629   O     0.74372   0.56956   0.40425   0.00000  Uiso   1.00
O630   O     0.83833   0.46637   0.39851   0.00000  Uiso   1.00
O631   O     0.84515   0.41434   0.27820   0.00000  Uiso   1.00
O632   O     0.81247   0.59469   0.26767   0.00000  Uiso   1.00
O633   O     0.74119   0.46584   0.23607   0.00000  Uiso   1.00
O634   O     0.93452   0.52512   0.21805   0.00000  Uiso   1.00
O635   O     0.73656   0.52293   0.27820   0.00000  Uiso   1.00
O636   O     0.92106   0.48610   0.26767   0.00000  Uiso   1.00
O637   O     0.80467   0.40236   0.23607   0.00000  Uiso   1.00
O638   O     0.87104   0.58860   0.21805   0.00000  Uiso   1.00
Zn639  Zn    0.85910   0.47423   0.28277   0.00000  Uiso   1.00
Zn640  Zn    0.80125   0.45711   0.22257   0.00000  Uiso   1.00
Zn641  Zn    0.87833   0.52997   0.21188   0.00000  Uiso   1.00
Zn642  Zn    0.79465   0.53868   0.28277   0.00000  Uiso   1.00
C643   C     0.05281   0.82715   0.25849   0.00000  Uiso   1.00
C644   C     0.20737   0.81120   0.46073   0.00000  Uiso   1.00
C645   C     0.23125   0.79298   0.47890   0.00000  Uiso   1.00
C646   C     0.28096   0.84008   0.24146   0.00000  Uiso   1.00
C647   C     0.21784   0.79153   0.01955   0.00000  Uiso   1.00
C648   C     0.17868   0.80786   0.04186   0.00000  Uiso   1.00
C649   C     0.24496   0.77745   0.03844   0.00000  Uiso   1.00
C650   C     0.23587   0.78417   0.07967   0.00000  Uiso   1.00
C651   C     0.17129   0.81534   0.08281   0.00000  Uiso   1.00
C652   C     0.32672   0.84068   0.23786   0.00000  Uiso   1.00
C653   C     0.00679   0.82434   0.26436   0.00000  Uiso   1.00
C654   C     0.09767   0.88116   0.42276   0.00000  Uiso   1.00
C655   C     0.17952   0.98867   0.23868   0.00000  Uiso   1.00
C656   C     0.15106   0.67961   0.26351   0.00000  Uiso   1.00
C657   C     0.15639   0.72305   0.25875   0.00000  Uiso   1.00
C658   C     0.17661   0.94430   0.24156   0.00000  Uiso   1.00
C659   C     0.18868   0.81173   0.14413   0.00000  Uiso   1.00
C660   C     0.14433   0.85330   0.35653   0.00000  Uiso   1.00
C661   C     0.13054   0.85654   0.40033   0.00000  Uiso   1.00
C662   C     0.19871   0.80303   0.10152   0.00000  Uiso   1.00
C663   C     0.08100   0.87831   0.46365   0.00000  Uiso   1.00
C664   C     0.05956   0.90774   0.06804   0.00000  Uiso   1.00
C665   C     0.14823   0.83181   0.41990   0.00000  Uiso   1.00
C666   C     0.01832   0.92321   0.09581   0.00000  Uiso   1.00
C667   C     0.32783   0.78472   0.31735   0.00000  Uiso   1.00
C668   C     0.29157   0.76556   0.34963   0.00000  Uiso   1.00
C669   C     0.29480   0.80108   0.10325   0.00000  Uiso   1.00
C670   C     0.31125   0.79244   0.13679   0.00000  Uiso   1.00
C671   C     0.00764   0.87208   0.47759   0.00000  Uiso   1.00
C672   C     0.30052   0.88717   0.00715   0.00000  Uiso   1.00
C673   C     0.09111   0.94574   0.40909   0.00000  Uiso   1.00
C674   C     0.06284   0.97010   0.39504   0.00000  Uiso   1.00
C675   C     0.14456   0.76180   0.40175   0.00000  Uiso   1.00
C676   C     0.13976   0.83791   0.46133   0.00000  Uiso   1.00
C677   C     0.17129   0.72627   0.38103   0.00000  Uiso   1.00
C678   C     0.10298   0.85792   0.48347   0.00000  Uiso   1.00
C679   C     0.16572   0.82256   0.48106   0.00000  Uiso   1.00
C680   C     0.15044   0.81998   0.02227   0.00000  Uiso   1.00
C681   C     0.10791   0.83053   0.04205   0.00000  Uiso   1.00
C682   C     0.08754   0.85442   0.02435   0.00000  Uiso   1.00
H683   H     0.01662   0.85396   0.21273   0.00000  Uiso   1.00
H684   H     0.33026   0.92990   0.07879   0.00000  Uiso   1.00
H685   H     0.30969   0.77472   0.01831   0.00000  Uiso   1.00
H686   H     0.28008   0.72806   0.02673   0.00000  Uiso   1.00
H687   H     0.01886   0.80277   0.33112   0.00000  Uiso   1.00
H688   H     0.00924   0.75886   0.29601   0.00000  Uiso   1.00
H689   H     0.26718   0.74655   0.33662   0.00000  Uiso   1.00
H690   H     0.30466   0.74526   0.36495   0.00000  Uiso   1.00
H691   H     0.27591   0.79050   0.37135   0.00000  Uiso   1.00
H692   H     0.08736   0.67115   0.29137   0.00000  Uiso   1.00
H693   H     0.11973   0.68084   0.32148   0.00000  Uiso   1.00
H694   H     0.20566   0.66876   0.21554   0.00000  Uiso   1.00
H695   H     0.28406   0.83298   0.11008   0.00000  Uiso   1.00
H696   H     0.32209   0.80074   0.07602   0.00000  Uiso   1.00
H697   H     0.32667   0.76291   0.12899   0.00000  Uiso   1.00
H698   H     0.00196   0.81833   0.14258   0.00000  Uiso   1.00
H699   H     0.28401   0.78966   0.16389   0.00000  Uiso   1.00
H700   H     0.00835   0.83869   0.48111   0.00000  Uiso   1.00
H701   H     0.00535   0.87448   0.44754   0.00000  Uiso   1.00
H702   H     0.30111   0.92144   0.00783   0.00000  Uiso   1.00
H703   H     0.27149   0.87195   0.49868   0.00000  Uiso   1.00
H704   H     0.29837   0.87916   0.03693   0.00000  Uiso   1.00
H705   H     0.14585   0.83327   0.10073   0.00000  Uiso   1.00
H706   H     0.12516   0.95185   0.39116   0.00000  Uiso   1.00
H707   H     0.08856   0.95728   0.44048   0.00000  Uiso   1.00
H708   H     0.07362   0.67060   0.39812   0.00000  Uiso   1.00
H709   H     0.06480   0.95972   0.36368   0.00000  Uiso   1.00
H710   H     0.02877   0.96481   0.41298   0.00000  Uiso   1.00
H711   H     0.11847   0.76215   0.38748   0.00000  Uiso   1.00
H712   H     0.12986   0.75568   0.43307   0.00000  Uiso   1.00
H713   H     0.19756   0.72531   0.39478   0.00000  Uiso   1.00
H714   H     0.15065   0.69616   0.38351   0.00000  Uiso   1.00
H715   H     0.18558   0.73070   0.34940   0.00000  Uiso   1.00
H716   H     0.26231   0.78356   0.46132   0.00000  Uiso   1.00
H717   H     0.09335   0.78531   0.08065   0.00000  Uiso   1.00
H718   H     0.07925   0.83413   0.10145   0.00000  Uiso   1.00
H719   H     0.22308   0.81748   0.43074   0.00000  Uiso   1.00
H720   H     0.07558   0.93186   0.04766   0.00000  Uiso   1.00
H721   H     0.08112   0.90392   0.08616   0.00000  Uiso   1.00
H722   H     0.00118   0.89935   0.11597   0.00000  Uiso   1.00
H723   H     0.02629   0.95232   0.11361   0.00000  Uiso   1.00
N724   N     0.28158   0.75644   0.01557   0.00000  Uiso   1.00
N725   N     0.11622   0.99766   0.29516   0.00000  Uiso   1.00
N726   N     0.08162   0.81226   0.07682   0.00000  Uiso   1.00
O727   O     0.16667   0.83333   0.25000   0.00000  Uiso   1.00
O728   O     0.15693   0.79060   0.16625   0.00000  Uiso   1.00
O729   O     0.12687   0.87313   0.33749   0.00000  Uiso   1.00
O730   O     0.21088   0.84159   0.15877   0.00000  Uiso   1.00
O731   O     0.17198   0.82802   0.33749   0.00000  Uiso   1.00
O732   O     0.04936   0.86978   0.04662   0.00000  Uiso   1.00
O733   O     0.31072   0.81125   0.29888   0.00000  Uiso   1.00
O734   O     0.26148   0.76967   0.09878   0.00000  Uiso   1.00
O735   O     0.04430   0.89725   0.48433   0.00000  Uiso   1.00
O736   O     0.07705   0.90289   0.40425   0.00000  Uiso   1.00
O737   O     0.17166   0.79970   0.39851   0.00000  Uiso   1.00
O738   O     0.17849   0.74768   0.27820   0.00000  Uiso   1.00
O739   O     0.14581   0.92803   0.26767   0.00000  Uiso   1.00
O740   O     0.07452   0.79917   0.23607   0.00000  Uiso   1.00
O741   O     0.26785   0.85845   0.21805   0.00000  Uiso   1.00
O742   O     0.06990   0.85627   0.27820   0.00000  Uiso   1.00
O743   O     0.25440   0.81944   0.26767   0.00000  Uiso   1.00
O744   O     0.13800   0.73570   0.23607   0.00000  Uiso   1.00
O745   O     0.20437   0.92193   0.21805   0.00000  Uiso   1.00
Zn746  Zn    0.19244   0.80756   0.28277   0.00000  Uiso   1.00
Zn747  Zn    0.13459   0.79044   0.22257   0.00000  Uiso   1.00
Zn748  Zn    0.21166   0.86331   0.21188   0.00000  Uiso   1.00
Zn749  Zn    0.12798   0.87202   0.28277   0.00000  Uiso   1.00
C750   C     0.38614   0.82715   0.25849   0.00000  Uiso   1.00
C751   C     0.54070   0.81120   0.46073   0.00000  Uiso   1.00
C752   C     0.56458   0.79298   0.47890   0.00000  Uiso   1.00
C753   C     0.61429   0.84008   0.24146   0.00000  Uiso   1.00
C754   C     0.55117   0.79153   0.01955   0.00000  Uiso   1.00
C755   C     0.51202   0.80786   0.04186   0.00000  Uiso   1.00
C756   C     0.57830   0.77745   0.03844   0.00000  Uiso   1.00
C757   C     0.56921   0.78417   0.07967   0.00000  Uiso   1.00
C758   C     0.50462   0.81534   0.08281   0.00000  Uiso   1.00
C759   C     0.66005   0.84068   0.23786   0.00000  Uiso   1.00
C760   C     0.34012   0.82434   0.26436   0.00000  Uiso   1.00
C761   C     0.43100   0.88116   0.42276   0.00000  Uiso   1.00
C762   C     0.51285   0.98867   0.23868   0.00000  Uiso   1.00
C763   C     0.48440   0.67961   0.26351   0.00000  Uiso   1.00
C764   C     0.48972   0.72305   0.25875   0.00000  Uiso   1.00
C765   C     0.50994   0.94430   0.24156   0.00000  Uiso   1.00
C766   C     0.52201   0.81173   0.14413   0.00000  Uiso   1.00
C767   C     0.47767   0.85330   0.35653   0.00000  Uiso   1.00
C768   C     0.46388   0.85654   0.40033   0.00000  Uiso   1.00
C769   C     0.53205   0.80303   0.10152   0.00000  Uiso   1.00
C770   C     0.41433   0.87831   0.46365   0.00000  Uiso   1.00
C771   C     0.39289   0.90774   0.06804   0.00000  Uiso   1.00
C772   C     0.48156   0.83181   0.41990   0.00000  Uiso   1.00
C773   C     0.35166   0.92321   0.09581   0.00000  Uiso   1.00
C774   C     0.66116   0.78472   0.31735   0.00000  Uiso   1.00
C775   C     0.62490   0.76556   0.34963   0.00000  Uiso   1.00
C776   C     0.62813   0.80108   0.10325   0.00000  Uiso   1.00
C777   C     0.64458   0.79244   0.13679   0.00000  Uiso   1.00
C778   C     0.34097   0.87208   0.47759   0.00000  Uiso   1.00
C779   C     0.63386   0.88717   0.00715   0.00000  Uiso   1.00
C780   C     0.42444   0.94574   0.40909   0.00000  Uiso   1.00
C781   C     0.39617   0.97010   0.39504   0.00000  Uiso   1.00
C782   C     0.47789   0.76180   0.40175   0.00000  Uiso   1.00
C783   C     0.47309   0.83791   0.46133   0.00000  Uiso   1.00
C784   C     0.50462   0.72627   0.38103   0.00000  Uiso   1.00
C785   C     0.43631   0.85792   0.48347   0.00000  Uiso   1.00
C786   C     0.49905   0.82256   0.48106   0.00000  Uiso   1.00
C787   C     0.48377   0.81998   0.02227   0.00000  Uiso   1.00
C788   C     0.44125   0.83053   0.04205   0.00000  Uiso   1.00
C789   C     0.42088   0.85442   0.02435   0.00000  Uiso   1.00
H790   H     0.34995   0.85396   0.21273   0.00000  Uiso   1.00
H791   H     0.66359   0.92990   0.07879   0.00000  Uiso   1.00
H792   H     0.64302   0.77472   0.01831   0.00000  Uiso   1.00
H793   H     0.61341   0.72806   0.02673   0.00000  Uiso   1.00
H794   H     0.35219   0.80277   0.33112   0.00000  Uiso   1.00
H795   H     0.34257   0.75886   0.29601   0.00000  Uiso   1.00
H796   H     0.60052   0.74655   0.33662   0.00000  Uiso   1.00
H797   H     0.63799   0.74526   0.36495   0.00000  Uiso   1.00
H798   H     0.60924   0.79050   0.37135   0.00000  Uiso   1.00
H799   H     0.42069   0.67115   0.29137   0.00000  Uiso   1.00
H800   H     0.45307   0.68084   0.32148   0.00000  Uiso   1.00
H801   H     0.53899   0.66876   0.21554   0.00000  Uiso   1.00
H802   H     0.61739   0.83298   0.11008   0.00000  Uiso   1.00
H803   H     0.65542   0.80074   0.07602   0.00000  Uiso   1.00
H804   H     0.66000   0.76291   0.12899   0.00000  Uiso   1.00
H805   H     0.33529   0.81833   0.14258   0.00000  Uiso   1.00
H806   H     0.61734   0.78966   0.16389   0.00000  Uiso   1.00
H807   H     0.34168   0.83869   0.48111   0.00000  Uiso   1.00
H808   H     0.33868   0.87448   0.44754   0.00000  Uiso   1.00
H809   H     0.63445   0.92144   0.00783   0.00000  Uiso   1.00
H810   H     0.60483   0.87195   0.49868   0.00000  Uiso   1.00
H811   H     0.63171   0.87916   0.03693   0.00000  Uiso   1.00
H812   H     0.47918   0.83327   0.10073   0.00000  Uiso   1.00
H813   H     0.45849   0.95185   0.39116   0.00000  Uiso   1.00
H814   H     0.42190   0.95728   0.44048   0.00000  Uiso   1.00
H815   H     0.40695   0.67060   0.39812   0.00000  Uiso   1.00
H816   H     0.39813   0.95972   0.36368   0.00000  Uiso   1.00
H817   H     0.36210   0.96481   0.41298   0.00000  Uiso   1.00
H818   H     0.45180   0.76215   0.38748   0.00000  Uiso   1.00
H819   H     0.46320   0.75568   0.43307   0.00000  Uiso   1.00
H820   H     0.53089   0.72531   0.39478   0.00000  Uiso   1.00
H821   H     0.48398   0.69616   0.38351   0.00000  Uiso   1.00
H822   H     0.51891   0.73070   0.34940   0.00000  Uiso   1.00
H823   H     0.59564   0.78356   0.46132   0.00000  Uiso   1.00
H824   H     0.42668   0.78531   0.08065   0.00000  Uiso   1.00
H825   H     0.41258   0.83413   0.10145   0.00000  Uiso   1.00
H826   H     0.55641   0.81748   0.43074   0.00000  Uiso   1.00
H827   H     0.40891   0.93186   0.04766   0.00000  Uiso   1.00
H828   H     0.41446   0.90392   0.08616   0.00000  Uiso   1.00
H829   H     0.33452   0.89935   0.11597   0.00000  Uiso   1.00
H830   H     0.35962   0.95232   0.11361   0.00000  Uiso   1.00
N831   N     0.61492   0.75644   0.01557   0.00000  Uiso   1.00
N832   N     0.44955   0.99766   0.29516   0.00000  Uiso   1.00
N833   N     0.41495   0.81226   0.07682   0.00000  Uiso   1.00
O834   O     0.50000   0.83333   0.25000   0.00000  Uiso   1.00
O835   O     0.49027   0.79060   0.16625   0.00000  Uiso   1.00
O836   O     0.46020   0.87313   0.33749   0.00000  Uiso   1.00
O837   O     0.54421   0.84159   0.15877   0.00000  Uiso   1.00
O838   O     0.50532   0.82802   0.33749   0.00000  Uiso   1.00
O839   O     0.38270   0.86978   0.04662   0.00000  Uiso   1.00
O840   O     0.64405   0.81125   0.29888   0.00000  Uiso   1.00
O841   O     0.59481   0.76967   0.09878   0.00000  Uiso   1.00
O842   O     0.37763   0.89725   0.48433   0.00000  Uiso   1.00
O843   O     0.41038   0.90289   0.40425   0.00000  Uiso   1.00
O844   O     0.50499   0.79970   0.39851   0.00000  Uiso   1.00
O845   O     0.51182   0.74768   0.27820   0.00000  Uiso   1.00
O846   O     0.47914   0.92803   0.26767   0.00000  Uiso   1.00
O847   O     0.40785   0.79917   0.23607   0.00000  Uiso   1.00
O848   O     0.60119   0.85845   0.21805   0.00000  Uiso   1.00
O849   O     0.40323   0.85627   0.27820   0.00000  Uiso   1.00
O850   O     0.58773   0.81944   0.26767   0.00000  Uiso   1.00
O851   O     0.47133   0.73570   0.23607   0.00000  Uiso   1.00
O852   O     0.53771   0.92193   0.21805   0.00000  Uiso   1.00
Zn853  Zn    0.52577   0.80756   0.28277   0.00000  Uiso   1.00
Zn854  Zn    0.46792   0.79044   0.22257   0.00000  Uiso   1.00
Zn855  Zn    0.54500   0.86331   0.21188   0.00000  Uiso   1.00
Zn856  Zn    0.46131   0.87202   0.28277   0.00000  Uiso   1.00
C857   C     0.71948   0.82715   0.25849   0.00000  Uiso   1.00
C858   C     0.87403   0.81120   0.46073   0.00000  Uiso   1.00
C859   C     0.89792   0.79298   0.47890   0.00000  Uiso   1.00
C860   C     0.94763   0.84008   0.24146   0.00000  Uiso   1.00
C861   C     0.88451   0.79153   0.01955   0.00000  Uiso   1.00
C862   C     0.84535   0.80786   0.04186   0.00000  Uiso   1.00
C863   C     0.91163   0.77745   0.03844   0.00000  Uiso   1.00
C864   C     0.90254   0.78417   0.07967   0.00000  Uiso   1.00
C865   C     0.83795   0.81534   0.08281   0.00000  Uiso   1.00
C866   C     0.99339   0.84068   0.23786   0.00000  Uiso   1.00
C867   C     0.67346   0.82434   0.26436   0.00000  Uiso   1.00
C868   C     0.76434   0.88116   0.42276   0.00000  Uiso   1.00
C869   C     0.84618   0.98867   0.23868   0.00000  Uiso   1.00
C870   C     0.81773   0.67961   0.26351   0.00000  Uiso   1.00
C871   C     0.82306   0.72305   0.25875   0.00000  Uiso   1.00
C872   C     0.84327   0.94430   0.24156   0.00000  Uiso   1.00
C873   C     0.85535   0.81173   0.14413   0.00000  Uiso   1.00
C874   C     0.81100   0.85330   0.35653   0.00000  Uiso   1.00
C875   C     0.79721   0.85654   0.40033   0.00000  Uiso   1.00
C876   C     0.86538   0.80303   0.10152   0.00000  Uiso   1.00
C877   C     0.74767   0.87831   0.46365   0.00000  Uiso   1.00
C878   C     0.72622   0.90774   0.06804   0.00000  Uiso   1.00
C879   C     0.81489   0.83181   0.41990   0.00000  Uiso   1.00
C880   C     0.68499   0.92321   0.09581   0.00000  Uiso   1.00
C881   C     0.99449   0.78472   0.31735   0.00000  Uiso   1.00
C882   C     0.95824   0.76556   0.34963   0.00000  Uiso   1.00
C883   C     0.96147   0.80108   0.10325   0.00000  Uiso   1.00
C884   C     0.97791   0.79244   0.13679   0.00000  Uiso   1.00
C885   C     0.67430   0.87208   0.47759   0.00000  Uiso   1.00
C886   C     0.96719   0.88717   0.00715   0.00000  Uiso   1.00
C887   C     0.75777   0.94574   0.40909   0.00000  Uiso   1.00
C888   C     0.72950   0.97010   0.39504   0.00000  Uiso   1.00
C889   C     0.81122   0.76180   0.40175   0.00000  Uiso   1.00
C890   C     0.80643   0.83791   0.46133   0.00000  Uiso   1.00
C891   C     0.83795   0.72627   0.38103   0.00000  Uiso   1.00
C892   C     0.76964   0.85792   0.48347   0.00000  Uiso   1.00
C893   C     0.83239   0.82256   0.48106   0.00000  Uiso   1.00
C894   C     0.81710   0.81998   0.02227   0.00000  Uiso   1.00
C895   C     0.77458   0.83053   0.04205   0.00000  Uiso   1.00
C896   C     0.75421   0.85442   0.02435   0.00000  Uiso   1.00
H897   H     0.68329   0.85396   0.21273   0.00000  Uiso   1.00
H898   H     0.99692   0.92990   0.07879   0.00000  Uiso   1.00
H899   H     0.97635   0.77472   0.01831   0.00000  Uiso   1.00
H900   H     0.94674   0.72806   0.02673   0.00000  Uiso   1.00
H901   H     0.68552   0.80277   0.33112   0.00000  Uiso   1.00
H902   H     0.67591   0.75886   0.29601   0.00000  Uiso   1.00
H903   H     0.93385   0.74655   0.33662   0.00000  Uiso   1.00
H904   H     0.97132   0.74526   0.36495   0.00000  Uiso   1.00
H905   H     0.94258   0.79050   0.37135   0.00000  Uiso   1.00
H906   H     0.75402   0.67115   0.29137   0.00000  Uiso   1.00
H907   H     0.78640   0.68084   0.32148   0.00000  Uiso   1.00
H908   H     0.87233   0.66876   0.21554   0.00000  Uiso   1.00
H909   H     0.95072   0.83298   0.11008   0.00000  Uiso   1.00
H910   H     0.98876   0.80074   0.07602   0.00000  Uiso   1.00
H911   H     0.99333   0.76291   0.12899   0.00000  Uiso   1.00
H912   H     0.66863   0.81833   0.14258   0.00000  Uiso   1.00
H913   H     0.95067   0.78966   0.16389   0.00000  Uiso   1.00
H914   H     0.67501   0.83869   0.48111   0.00000  Uiso   1.00
H915   H     0.67201   0.87448   0.44754   0.00000  Uiso   1.00
H916   H     0.96778   0.92144   0.00783   0.00000  Uiso   1.00
H917   H     0.93816   0.87195   0.49868   0.00000  Uiso   1.00
H918   H     0.96504   0.87916   0.03693   0.00000  Uiso   1.00
H919   H     0.81251   0.83327   0.10073   0.00000  Uiso   1.00
H920   H     0.79182   0.95185   0.39116   0.00000  Uiso   1.00
H921   H     0.75523   0.95728   0.44048   0.00000  Uiso   1.00
H922   H     0.74028   0.67060   0.39812   0.00000  Uiso   1.00
H923   H     0.73147   0.95972   0.36368   0.00000  Uiso   1.00
H924   H     0.69544   0.96481   0.41298   0.00000  Uiso   1.00
H925   H     0.78514   0.76215   0.38748   0.00000  Uiso   1.00
H926   H     0.79653   0.75568   0.43307   0.00000  Uiso   1.00
H927   H     0.86423   0.72531   0.39478   0.00000  Uiso   1.00
H928   H     0.81732   0.69616   0.38351   0.00000  Uiso   1.00
H929   H     0.85225   0.73070   0.34940   0.00000  Uiso   1.00
H930   H     0.92898   0.78356   0.46132   0.00000  Uiso   1.00
H931   H     0.76002   0.78531   0.08065   0.00000  Uiso   1.00
H932   H     0.74592   0.83413   0.10145   0.00000  Uiso   1.00
H933   H     0.88974   0.81748   0.43074   0.00000  Uiso   1.00
H934   H     0.74224   0.93186   0.04766   0.00000  Uiso   1.00
H935   H     0.74779   0.90392   0.08616   0.00000  Uiso   1.00
H936   H     0.66785   0.89935   0.11597   0.00000  Uiso   1.00
H937   H     0.69295   0.95232   0.11361   0.00000  Uiso   1.00
N938   N     0.94825   0.75644   0.01557   0.00000  Uiso   1.00
N939   N     0.78288   0.99766   0.29516   0.00000  Uiso   1.00
N940   N     0.74828   0.81226   0.07682   0.00000  Uiso   1.00
O941   O     0.83333   0.83333   0.25000   0.00000  Uiso   1.00
O942   O     0.82360   0.79060   0.16625   0.00000  Uiso   1.00
O943   O     0.79354   0.87313   0.33749   0.00000  Uiso   1.00
O944   O     0.87755   0.84159   0.15877   0.00000  Uiso   1.00
O945   O     0.83865   0.82802   0.33749   0.00000  Uiso   1.00
O946   O     0.71603   0.86978   0.04662   0.00000  Uiso   1.00
O947   O     0.97739   0.81125   0.29888   0.00000  Uiso   1.00
O948   O     0.92814   0.76967   0.09878   0.00000  Uiso   1.00
O949   O     0.71096   0.89725   0.48433   0.00000  Uiso   1.00
O950   O     0.74372   0.90289   0.40425   0.00000  Uiso   1.00
O951   O     0.83833   0.79970   0.39851   0.00000  Uiso   1.00
O952   O     0.84515   0.74768   0.27820   0.00000  Uiso   1.00
O953   O     0.81247   0.92803   0.26767   0.00000  Uiso   1.00
O954   O     0.74119   0.79917   0.23607   0.00000  Uiso   1.00
O955   O     0.93452   0.85845   0.21805   0.00000  Uiso   1.00
O956   O     0.73656   0.85627   0.27820   0.00000  Uiso   1.00
O957   O     0.92106   0.81944   0.26767   0.00000  Uiso   1.00
O958   O     0.80467   0.73570   0.23607   0.00000  Uiso   1.00
O959   O     0.87104   0.92193   0.21805   0.00000  Uiso   1.00
Zn960  Zn    0.85910   0.80756   0.28277   0.00000  Uiso   1.00
Zn961  Zn    0.80125   0.79044   0.22257   0.00000  Uiso   1.00
Zn962  Zn    0.87833   0.86331   0.21188   0.00000  Uiso   1.00
Zn963  Zn    0.79465   0.87202   0.28277   0.00000  Uiso   1.00
C964   C     0.05281   0.16049   0.75849   0.00000  Uiso   1.00
C965   C     0.20737   0.14453   0.96073   0.00000  Uiso   1.00
C966   C     0.23125   0.12631   0.97890   0.00000  Uiso   1.00
C967   C     0.28096   0.17341   0.74146   0.00000  Uiso   1.00
C968   C     0.21784   0.12486   0.51955   0.00000  Uiso   1.00
C969   C     0.17868   0.14119   0.54186   0.00000  Uiso   1.00
C970   C     0.24496   0.11078   0.53844   0.00000  Uiso   1.00
C971   C     0.23587   0.11750   0.57967   0.00000  Uiso   1.00
C972   C     0.17129   0.14867   0.58281   0.00000  Uiso   1.00
C973   C     0.32672   0.17402   0.73786   0.00000  Uiso   1.00
C974   C     0.00679   0.15768   0.76436   0.00000  Uiso   1.00
C975   C     0.09767   0.21449   0.92276   0.00000  Uiso   1.00
C976   C     0.17952   0.32200   0.73868   0.00000  Uiso   1.00
C977   C     0.15106   0.01295   0.76351   0.00000  Uiso   1.00
C978   C     0.15639   0.05638   0.75875   0.00000  Uiso   1.00
C979   C     0.17661   0.27764   0.74156   0.00000  Uiso   1.00
C980   C     0.18868   0.14506   0.64413   0.00000  Uiso   1.00
C981   C     0.14433   0.18664   0.85653   0.00000  Uiso   1.00
C982   C     0.13054   0.18987   0.90033   0.00000  Uiso   1.00
C983   C     0.19871   0.13636   0.60152   0.00000  Uiso   1.00
C984   C     0.08100   0.21164   0.96365   0.00000  Uiso   1.00
C985   C     0.05956   0.24107   0.56804   0.00000  Uiso   1.00
C986   C     0.14823   0.16515   0.91990   0.00000  Uiso   1.00
C987   C     0.01832   0.25654   0.59581   0.00000  Uiso   1.00
C988   C     0.32783   0.11805   0.81735   0.00000  Uiso   1.00
C989   C     0.29157   0.09890   0.84963   0.00000  Uiso   1.00
C990   C     0.29480   0.13442   0.60325   0.00000  Uiso   1.00
C991   C     0.31125   0.12578   0.63679   0.00000  Uiso   1.00
C992   C     0.00764   0.20541   0.97759   0.00000  Uiso   1.00
C993   C     0.30052   0.22050   0.50715   0.00000  Uiso   1.00
C994   C     0.09111   0.27907   0.90909   0.00000  Uiso   1.00
C995   C     0.06284   0.30343   0.89504   0.00000  Uiso   1.00
C996   C     0.14456   0.09514   0.90175   0.00000  Uiso   1.00
C997   C     0.13976   0.17124   0.96133   0.00000  Uiso   1.00
C998   C     0.17129   0.05961   0.88103   0.00000  Uiso   1.00
C999   C     0.10298   0.19125   0.98347   0.00000  Uiso   1.00
C1000  C     0.16572   0.15589   0.98106   0.00000  Uiso   1.00
C1001  C     0.15044   0.15331   0.52227   0.00000  Uiso   1.00
C1002  C     0.10791   0.16386   0.54205   0.00000  Uiso   1.00
C1003  C     0.08754   0.18775   0.52435   0.00000  Uiso   1.00
H1004  H     0.01662   0.18729   0.71273   0.00000  Uiso   1.00
H1005  H     0.33026   0.26323   0.57879   0.00000  Uiso   1.00
H1006  H     0.30969   0.10805   0.51831   0.00000  Uiso   1.00
H1007  H     0.28008   0.06140   0.52673   0.00000  Uiso   1.00
H1008  H     0.01886   0.13611   0.83112   0.00000  Uiso   1.00
H1009  H     0.00924   0.09219   0.79601   0.00000  Uiso   1.00
H1010  H     0.26718   0.07988   0.83662   0.00000  Uiso   1.00
H1011  H     0.30466   0.07859   0.86495   0.00000  Uiso   1.00
H1012  H     0.27591   0.12384   0.87135   0.00000  Uiso   1.00
H1013  H     0.08736   0.00449   0.79137   0.00000  Uiso   1.00
H1014  H     0.11973   0.01417   0.82148   0.00000  Uiso   1.00
H1015  H     0.20566   0.00209   0.71554   0.00000  Uiso   1.00
H1016  H     0.28406   0.16631   0.61008   0.00000  Uiso   1.00
H1017  H     0.32209   0.13407   0.57602   0.00000  Uiso   1.00
H1018  H     0.32667   0.09625   0.62899   0.00000  Uiso   1.00
H1019  H     0.00196   0.15167   0.64258   0.00000  Uiso   1.00
H1020  H     0.28401   0.12300   0.66389   0.00000  Uiso   1.00
H1021  H     0.00835   0.17203   0.98111   0.00000  Uiso   1.00
H1022  H     0.00535   0.20782   0.94754   0.00000  Uiso   1.00
H1023  H     0.30111   0.25477   0.50783   0.00000  Uiso   1.00
H1024  H     0.27149   0.20529   0.99868   0.00000  Uiso   1.00
H1025  H     0.29837   0.21249   0.53693   0.00000  Uiso   1.00
H1026  H     0.14585   0.16660   0.60073   0.00000  Uiso   1.00
H1027  H     0.12516   0.28519   0.89116   0.00000  Uiso   1.00
H1028  H     0.08856   0.29061   0.94048   0.00000  Uiso   1.00
H1029  H     0.07362   0.00393   0.89812   0.00000  Uiso   1.00
H1030  H     0.06480   0.29305   0.86368   0.00000  Uiso   1.00
H1031  H     0.02877   0.29814   0.91298   0.00000  Uiso   1.00
H1032  H     0.11847   0.09549   0.88748   0.00000  Uiso   1.00
H1033  H     0.12986   0.08901   0.93307   0.00000  Uiso   1.00
H1034  H     0.19756   0.05864   0.89478   0.00000  Uiso   1.00
H1035  H     0.15065   0.02949   0.88351   0.00000  Uiso   1.00
H1036  H     0.18558   0.06403   0.84940   0.00000  Uiso   1.00
H1037  H     0.26231   0.11689   0.96132   0.00000  Uiso   1.00
H1038  H     0.09335   0.11864   0.58065   0.00000  Uiso   1.00
H1039  H     0.07925   0.16746   0.60145   0.00000  Uiso   1.00
H1040  H     0.22308   0.15081   0.93074   0.00000  Uiso   1.00
H1041  H     0.07558   0.26519   0.54766   0.00000  Uiso   1.00
H1042  H     0.08112   0.23725   0.58616   0.00000  Uiso   1.00
H1043  H     0.00118   0.23268   0.61597   0.00000  Uiso   1.00
H1044  H     0.02629   0.28565   0.61361   0.00000  Uiso   1.00
N1045  N     0.28158   0.08978   0.51557   0.00000  Uiso   1.00
N1046  N     0.11622   0.33099   0.79516   0.00000  Uiso   1.00
N1047  N     0.08162   0.14559   0.57682   0.00000  Uiso   1.00
O1048  O     0.16667   0.16667   0.75000   0.00000  Uiso   1.00
O1049  O     0.15693   0.12393   0.66625   0.00000  Uiso   1.00
O1050  O     0.12687   0.20646   0.83749   0.00000  Uiso   1.00
O1051  O     0.21088   0.17493   0.65877   0.00000  Uiso   1.00
O1052  O     0.17198   0.16135   0.83749   0.00000  Uiso   1.00
O1053  O     0.04936   0.20312   0.54662   0.00000  Uiso   1.00
O1054  O     0.31072   0.14458   0.79888   0.00000  Uiso   1.00
O1055  O     0.26148   0.10300   0.59878   0.00000  Uiso   1.00
O1056  O     0.04430   0.23059   0.98433   0.00000  Uiso   1.00
O1057  O     0.07705   0.23622   0.90425   0.00000  Uiso   1.00
O1058  O     0.17166   0.13304   0.89851   0.00000  Uiso   1.00
O1059  O     0.17849   0.08101   0.77820   0.00000  Uiso   1.00
O1060  O     0.14581   0.26136   0.76767   0.00000  Uiso   1.00
O1061  O     0.07452   0.13251   0.73607   0.00000  Uiso   1.00
O1062  O     0.26785   0.19179   0.71805   0.00000  Uiso   1.00
O1063  O     0.06990   0.18960   0.77820   0.00000  Uiso   1.00
O1064  O     0.25440   0.15277   0.76767   0.00000  Uiso   1.00
O1065  O     0.13800   0.06903   0.73607   0.00000  Uiso   1.00
O1066  O     0.20437   0.25527   0.71805   0.00000  Uiso   1.00
Zn1067 Zn    0.19244   0.14090   0.78277   0.00000  Uiso   1.00
Zn1068 Zn    0.13459   0.12378   0.72257   0.00000  Uiso   1.00
Zn1069 Zn    0.21166   0.19664   0.71188   0.00000  Uiso   1.00
Zn1070 Zn    0.12798   0.20535   0.78277   0.00000  Uiso   1.00
C1071  C     0.38614   0.16049   0.75849   0.00000  Uiso   1.00
C1072  C     0.54070   0.14453   0.96073   0.00000  Uiso   1.00
C1073  C     0.56458   0.12631   0.97890   0.00000  Uiso   1.00
C1074  C     0.61429   0.17341   0.74146   0.00000  Uiso   1.00
C1075  C     0.55117   0.12486   0.51955   0.00000  Uiso   1.00
C1076  C     0.51202   0.14119   0.54186   0.00000  Uiso   1.00
C1077  C     0.57830   0.11078   0.53844   0.00000  Uiso   1.00
C1078  C     0.56921   0.11750   0.57967   0.00000  Uiso   1.00
C1079  C     0.50462   0.14867   0.58281   0.00000  Uiso   1.00
C1080  C     0.66005   0.17402   0.73786   0.00000  Uiso   1.00
C1081  C     0.34012   0.15768   0.76436   0.00000  Uiso   1.00
C1082  C     0.43100   0.21449   0.92276   0.00000  Uiso   1.00
C1083  C     0.51285   0.32200   0.73868   0.00000  Uiso   1.00
C1084  C     0.48440   0.01295   0.76351   0.00000  Uiso   1.00
C1085  C     0.48972   0.05638   0.75875   0.00000  Uiso   1.00
C1086  C     0.50994   0.27764   0.74156   0.00000  Uiso   1.00
C1087  C     0.52201   0.14506   0.64413   0.00000  Uiso   1.00
C1088  C     0.47767   0.18664   0.85653   0.00000  Uiso   1.00
C1089  C     0.46388   0.18987   0.90033   0.00000  Uiso   1.00
C1090  C     0.53205   0.13636   0.60152   0.00000  Uiso   1.00
C1091  C     0.41433   0.21164   0.96365   0.00000  Uiso   1.00
C1092  C     0.39289   0.24107   0.56804   0.00000  Uiso   1.00
C1093  C     0.48156   0.16515   0.91990   0.00000  Uiso   1.00
C1094  C     0.35166   0.25654   0.59581   0.00000  Uiso   1.00
C1095  C     0.66116   0.11805   0.81735   0.00000  Uiso   1.00
C1096  C     0.62490   0.09890   0.84963   0.00000  Uiso   1.00
C1097  C     0.62813   0.13442   0.60325   0.00000  Uiso   1.00
C1098  C     0.64458   0.12578   0.63679   0.00000  Uiso   1.00
C1099  C     0.34097   0.20541   0.97759   0.00000  Uiso   1.00
C1100  C     0.63386   0.22050   0.50715   0.00000  Uiso   1.00
C1101  C     0.42444   0.27907   0.90909   0.00000  Uiso   1.00
C1102  C     0.39617   0.30343   0.89504   0.00000  Uiso   1.00
C1103  C     0.47789   0.09514   0.90175   0.00000  Uiso   1.00
C1104  C     0.47309   0.17124   0.96133   0.00000  Uiso   1.00
C1105  C     0.50462   0.05961   0.88103   0.00000  Uiso   1.00
C1106  C     0.43631   0.19125   0.98347   0.00000  Uiso   1.00
C1107  C     0.49905   0.15589   0.98106   0.00000  Uiso   1.00
C1108  C     0.48377   0.15331   0.52227   0.00000  Uiso   1.00
C1109  C     0.44125   0.16386   0.54205   0.00000  Uiso   1.00
C1110  C     0.42088   0.18775   0.52435   0.00000  Uiso   1.00
H1111  H     0.34995   0.18729   0.71273   0.00000  Uiso   1.00
H1112  H     0.66359   0.26323   0.57879   0.00000  Uiso   1.00
H1113  H     0.64302   0.10805   0.51831   0.00000  Uiso   1.00
H1114  H     0.61341   0.06140   0.52673   0.00000  Uiso   1.00
H1115  H     0.35219   0.13611   0.83112   0.00000  Uiso   1.00
H1116  H     0.34257   0.09219   0.79601   0.00000  Uiso   1.00
H1117  H     0.60052   0.07988   0.83662   0.00000  Uiso   1.00
H1118  H     0.63799   0.07859   0.86495   0.00000  Uiso   1.00
H1119  H     0.60924   0.12384   0.87135   0.00000  Uiso   1.00
H1120  H     0.42069   0.00449   0.79137   0.00000  Uiso   1.00
H1121  H     0.45307   0.01417   0.82148   0.00000  Uiso   1.00
H1122  H     0.53899   0.00209   0.71554   0.00000  Uiso   1.00
H1123  H     0.61739   0.16631   0.61008   0.00000  Uiso   1.00
H1124  H     0.65542   0.13407   0.57602   0.00000  Uiso   1.00
H1125  H     0.66000   0.09625   0.62899   0.00000  Uiso   1.00
H1126  H     0.33529   0.15167   0.64258   0.00000  Uiso   1.00
H1127  H     0.61734   0.12300   0.66389   0.00000  Uiso   1.00
H1128  H     0.34168   0.17203   0.98111   0.00000  Uiso   1.00
H1129  H     0.33868   0.20782   0.94754   0.00000  Uiso   1.00
H1130  H     0.63445   0.25477   0.50783   0.00000  Uiso   1.00
H1131  H     0.60483   0.20529   0.99868   0.00000  Uiso   1.00
H1132  H     0.63171   0.21249   0.53693   0.00000  Uiso   1.00
H1133  H     0.47918   0.16660   0.60073   0.00000  Uiso   1.00
H1134  H     0.45849   0.28519   0.89116   0.00000  Uiso   1.00
H1135  H     0.42190   0.29061   0.94048   0.00000  Uiso   1.00
H1136  H     0.40695   0.00393   0.89812   0.00000  Uiso   1.00
H1137  H     0.39813   0.29305   0.86368   0.00000  Uiso   1.00
H1138  H     0.36210   0.29814   0.91298   0.00000  Uiso   1.00
H1139  H     0.45180   0.09549   0.88748   0.00000  Uiso   1.00
H1140  H     0.46320   0.08901   0.93307   0.00000  Uiso   1.00
H1141  H     0.53089   0.05864   0.89478   0.00000  Uiso   1.00
H1142  H     0.48398   0.02949   0.88351   0.00000  Uiso   1.00
H1143  H     0.51891   0.06403   0.84940   0.00000  Uiso   1.00
H1144  H     0.59564   0.11689   0.96132   0.00000  Uiso   1.00
H1145  H     0.42668   0.11864   0.58065   0.00000  Uiso   1.00
H1146  H     0.41258   0.16746   0.60145   0.00000  Uiso   1.00
H1147  H     0.55641   0.15081   0.93074   0.00000  Uiso   1.00
H1148  H     0.40891   0.26519   0.54766   0.00000  Uiso   1.00
H1149  H     0.41446   0.23725   0.58616   0.00000  Uiso   1.00
H1150  H     0.33452   0.23268   0.61597   0.00000  Uiso   1.00
H1151  H     0.35962   0.28565   0.61361   0.00000  Uiso   1.00
N1152  N     0.61492   0.08978   0.51557   0.00000  Uiso   1.00
N1153  N     0.44955   0.33099   0.79516   0.00000  Uiso   1.00
N1154  N     0.41495   0.14559   0.57682   0.00000  Uiso   1.00
O1155  O     0.50000   0.16667   0.75000   0.00000  Uiso   1.00
O1156  O     0.49027   0.12393   0.66625   0.00000  Uiso   1.00
O1157  O     0.46020   0.20646   0.83749   0.00000  Uiso   1.00
O1158  O     0.54421   0.17493   0.65877   0.00000  Uiso   1.00
O1159  O     0.50532   0.16135   0.83749   0.00000  Uiso   1.00
O1160  O     0.38270   0.20312   0.54662   0.00000  Uiso   1.00
O1161  O     0.64405   0.14458   0.79888   0.00000  Uiso   1.00
O1162  O     0.59481   0.10300   0.59878   0.00000  Uiso   1.00
O1163  O     0.37763   0.23059   0.98433   0.00000  Uiso   1.00
O1164  O     0.41038   0.23622   0.90425   0.00000  Uiso   1.00
O1165  O     0.50499   0.13304   0.89851   0.00000  Uiso   1.00
O1166  O     0.51182   0.08101   0.77820   0.00000  Uiso   1.00
O1167  O     0.47914   0.26136   0.76767   0.00000  Uiso   1.00
O1168  O     0.40785   0.13251   0.73607   0.00000  Uiso   1.00
O1169  O     0.60119   0.19179   0.71805   0.00000  Uiso   1.00
O1170  O     0.40323   0.18960   0.77820   0.00000  Uiso   1.00
O1171  O     0.58773   0.15277   0.76767   0.00000  Uiso   1.00
O1172  O     0.47133   0.06903   0.73607   0.00000  Uiso   1.00
O1173  O     0.53771   0.25527   0.71805   0.00000  Uiso   1.00
Zn1174 Zn    0.52577   0.14090   0.78277   0.00000  Uiso   1.00
Zn1175 Zn    0.46792   0.12378   0.72257   0.00000  Uiso   1.00
Zn1176 Zn    0.54500   0.19664   0.71188   0.00000  Uiso   1.00
Zn1177 Zn    0.46131   0.20535   0.78277   0.00000  Uiso   1.00
C1178  C     0.71948   0.16049   0.75849   0.00000  Uiso   1.00
C1179  C     0.87403   0.14453   0.96073   0.00000  Uiso   1.00
C1180  C     0.89792   0.12631   0.97890   0.00000  Uiso   1.00
C1181  C     0.94763   0.17341   0.74146   0.00000  Uiso   1.00
C1182  C     0.88451   0.12486   0.51955   0.00000  Uiso   1.00
C1183  C     0.84535   0.14119   0.54186   0.00000  Uiso   1.00
C1184  C     0.91163   0.11078   0.53844   0.00000  Uiso   1.00
C1185  C     0.90254   0.11750   0.57967   0.00000  Uiso   1.00
C1186  C     0.83795   0.14867   0.58281   0.00000  Uiso   1.00
C1187  C     0.99339   0.17402   0.73786   0.00000  Uiso   1.00
C1188  C     0.67346   0.15768   0.76436   0.00000  Uiso   1.00
C1189  C     0.76434   0.21449   0.92276   0.00000  Uiso   1.00
C1190  C     0.84618   0.32200   0.73868   0.00000  Uiso   1.00
C1191  C     0.81773   0.01295   0.76351   0.00000  Uiso   1.00
C1192  C     0.82306   0.05638   0.75875   0.00000  Uiso   1.00
C1193  C     0.84327   0.27764   0.74156   0.00000  Uiso   1.00
C1194  C     0.85535   0.14506   0.64413   0.00000  Uiso   1.00
C1195  C     0.81100   0.18664   0.85653   0.00000  Uiso   1.00
C1196  C     0.79721   0.18987   0.90033   0.00000  Uiso   1.00
C1197  C     0.86538   0.13636   0.60152   0.00000  Uiso   1.00
C1198  C     0.74767   0.21164   0.96365   0.00000  Uiso   1.00
C1199  C     0.72622   0.24107   0.56804   0.00000  Uiso   1.00
C1200  C     0.81489   0.16515   0.91990   0.00000  Uiso   1.00
C1201  C     0.68499   0.25654   0.59581   0.00000  Uiso   1.00
C1202  C     0.99449   0.11805   0.81735   0.00000  Uiso   1.00
C1203  C     0.95824   0.09890   0.84963   0.00000  Uiso   1.00
C1204  C     0.96147   0.13442   0.60325   0.00000  Uiso   1.00
C1205  C     0.97791   0.12578   0.63679   0.00000  Uiso   1.00
C1206  C     0.67430   0.20541   0.97759   0.00000  Uiso   1.00
C1207  C     0.96719   0.22050   0.50715   0.00000  Uiso   1.00
C1208  C     0.75777   0.27907   0.90909   0.00000  Uiso   1.00
C1209  C     0.72950   0.30343   0.89504   0.00000  Uiso   1.00
C1210  C     0.81122   0.09514   0.90175   0.00000  Uiso   1.00
C1211  C     0.80643   0.17124   0.96133   0.00000  Uiso   1.00
C1212  C     0.83795   0.05961   0.88103   0.00000  Uiso   1.00
C1213  C     0.76964   0.19125   0.98347   0.00000  Uiso   1.00
C1214  C     0.83239   0.15589   0.98106   0.00000  Uiso   1.00
C1215  C     0.81710   0.15331   0.52227   0.00000  Uiso   1.00
C1216  C     0.77458   0.16386   0.54205   0.00000  Uiso   1.00
C1217  C     0.75421   0.18775   0.52435   0.00000  Uiso   1.00
H1218  H     0.68329   0.18729   0.71273   0.00000  Uiso   1.00
H1219  H     0.99692   0.26323   0.57879   0.00000  Uiso   1.00
H1220  H     0.97635   0.10805   0.51831   0.00000  Uiso   1.00
H1221  H     0.94674   0.06140   0.52673   0.00000  Uiso   1.00
H1222  H     0.68552   0.13611   0.83112   0.00000  Uiso   1.00
H1223  H     0.67591   0.09219   0.79601   0.00000  Uiso   1.00
H1224  H     0.93385   0.07988   0.83662   0.00000  Uiso   1.00
H1225  H     0.97132   0.07859   0.86495   0.00000  Uiso   1.00
H1226  H     0.94258   0.12384   0.87135   0.00000  Uiso   1.00
H1227  H     0.75402   0.00449   0.79137   0.00000  Uiso   1.00
H1228  H     0.78640   0.01417   0.82148   0.00000  Uiso   1.00
H1229  H     0.87233   0.00209   0.71554   0.00000  Uiso   1.00
H1230  H     0.95072   0.16631   0.61008   0.00000  Uiso   1.00
H1231  H     0.98876   0.13407   0.57602   0.00000  Uiso   1.00
H1232  H     0.99333   0.09625   0.62899   0.00000  Uiso   1.00
H1233  H     0.66863   0.15167   0.64258   0.00000  Uiso   1.00
H1234  H     0.95067   0.12300   0.66389   0.00000  Uiso   1.00
H1235  H     0.67501   0.17203   0.98111   0.00000  Uiso   1.00
H1236  H     0.67201   0.20782   0.94754   0.00000  Uiso   1.00
H1237  H     0.96778   0.25477   0.50783   0.00000  Uiso   1.00
H1238  H     0.93816   0.20529   0.99868   0.00000  Uiso   1.00
H1239  H     0.96504   0.21249   0.53693   0.00000  Uiso   1.00
H1240  H     0.81251   0.16660   0.60073   0.00000  Uiso   1.00
H1241  H     0.79182   0.28519   0.89116   0.00000  Uiso   1.00
H1242  H     0.75523   0.29061   0.94048   0.00000  Uiso   1.00
H1243  H     0.74028   0.00393   0.89812   0.00000  Uiso   1.00
H1244  H     0.73147   0.29305   0.86368   0.00000  Uiso   1.00
H1245  H     0.69544   0.29814   0.91298   0.00000  Uiso   1.00
H1246  H     0.78514   0.09549   0.88748   0.00000  Uiso   1.00
H1247  H     0.79653   0.08901   0.93307   0.00000  Uiso   1.00
H1248  H     0.86423   0.05864   0.89478   0.00000  Uiso   1.00
H1249  H     0.81732   0.02949   0.88351   0.00000  Uiso   1.00
H1250  H     0.85225   0.06403   0.84940   0.00000  Uiso   1.00
H1251  H     0.92898   0.11689   0.96132   0.00000  Uiso   1.00
H1252  H     0.76002   0.11864   0.58065   0.00000  Uiso   1.00
H1253  H     0.74592   0.16746   0.60145   0.00000  Uiso   1.00
H1254  H     0.88974   0.15081   0.93074   0.00000  Uiso   1.00
H1255  H     0.74224   0.26519   0.54766   0.00000  Uiso   1.00
H1256  H     0.74779   0.23725   0.58616   0.00000  Uiso   1.00
H1257  H     0.66785   0.23268   0.61597   0.00000  Uiso   1.00
H1258  H     0.69295   0.28565   0.61361   0.00000  Uiso   1.00
N1259  N     0.94825   0.08978   0.51557   0.00000  Uiso   1.00
N1260  N     0.78288   0.33099   0.79516   0.00000  Uiso   1.00
N1261  N     0.74828   0.14559   0.57682   0.00000  Uiso   1.00
O1262  O     0.83333   0.16667   0.75000   0.00000  Uiso   1.00
O1263  O     0.82360   0.12393   0.66625   0.00000  Uiso   1.00
O1264  O     0.79354   0.20646   0.83749   0.00000  Uiso   1.00
O1265  O     0.87755   0.17493   0.65877   0.00000  Uiso   1.00
O1266  O     0.83865   0.16135   0.83749   0.00000  Uiso   1.00
O1267  O     0.71603   0.20312   0.54662   0.00000  Uiso   1.00
O1268  O     0.97739   0.14458   0.79888   0.00000  Uiso   1.00
O1269  O     0.92814   0.10300   0.59878   0.00000  Uiso   1.00
O1270  O     0.71096   0.23059   0.98433   0.00000  Uiso   1.00
O1271  O     0.74372   0.23622   0.90425   0.00000  Uiso   1.00
O1272  O     0.83833   0.13304   0.89851   0.00000  Uiso   1.00
O1273  O     0.84515   0.08101   0.77820   0.00000  Uiso   1.00
O1274  O     0.81247   0.26136   0.76767   0.00000  Uiso   1.00
O1275  O     0.74119   0.13251   0.73607   0.00000  Uiso   1.00
O1276  O     0.93452   0.19179   0.71805   0.00000  Uiso   1.00
O1277  O     0.73656   0.18960   0.77820   0.00000  Uiso   1.00
O1278  O     0.92106   0.15277   0.76767   0.00000  Uiso   1.00
O1279  O     0.80467   0.06903   0.73607   0.00000  Uiso   1.00
O1280  O     0.87104   0.25527   0.71805   0.00000  Uiso   1.00
Zn1281 Zn    0.85910   0.14090   0.78277   0.00000  Uiso   1.00
Zn1282 Zn    0.80125   0.12378   0.72257   0.00000  Uiso   1.00
Zn1283 Zn    0.87833   0.19664   0.71188   0.00000  Uiso   1.00
Zn1284 Zn    0.79465   0.20535   0.78277   0.00000  Uiso   1.00
C1285  C     0.05281   0.49382   0.75849   0.00000  Uiso   1.00
C1286  C     0.20737   0.47786   0.96073   0.00000  Uiso   1.00
C1287  C     0.23125   0.45964   0.97890   0.00000  Uiso   1.00
C1288  C     0.28096   0.50675   0.74146   0.00000  Uiso   1.00
C1289  C     0.21784   0.45820   0.51955   0.00000  Uiso   1.00
C1290  C     0.17868   0.47453   0.54186   0.00000  Uiso   1.00
C1291  C     0.24496   0.44412   0.53844   0.00000  Uiso   1.00
C1292  C     0.23587   0.45084   0.57967   0.00000  Uiso   1.00
C1293  C     0.17129   0.48201   0.58281   0.00000  Uiso   1.00
C1294  C     0.32672   0.50735   0.73786   0.00000  Uiso   1.00
C1295  C     0.00679   0.49101   0.76436   0.00000  Uiso   1.00
C1296  C     0.09767   0.54782   0.92276   0.00000  Uiso   1.00
C1297  C     0.17952   0.65534   0.73868   0.00000  Uiso   1.00
C1298  C     0.15106   0.34628   0.76351   0.00000  Uiso   1.00
C1299  C     0.15639   0.38972   0.75875   0.00000  Uiso   1.00
C1300  C     0.17661   0.61097   0.74156   0.00000  Uiso   1.00
C1301  C     0.18868   0.47839   0.64413   0.00000  Uiso   1.00
C1302  C     0.14433   0.51997   0.85653   0.00000  Uiso   1.00
C1303  C     0.13054   0.52321   0.90033   0.00000  Uiso   1.00
C1304  C     0.19871   0.46969   0.60152   0.00000  Uiso   1.00
C1305  C     0.08100   0.54497   0.96365   0.00000  Uiso   1.00
C1306  C     0.05956   0.57440   0.56804   0.00000  Uiso   1.00
C1307  C     0.14823   0.49848   0.91990   0.00000  Uiso   1.00
C1308  C     0.01832   0.58987   0.59581   0.00000  Uiso   1.00
C1309  C     0.32783   0.45138   0.81735   0.00000  Uiso   1.00
C1310  C     0.29157   0.43223   0.84963   0.00000  Uiso   1.00
C1311  C     0.29480   0.46775   0.60325   0.00000  Uiso   1.00
C1312  C     0.31125   0.45911   0.63679   0.00000  Uiso   1.00
C1313  C     0.00764   0.53874   0.97759   0.00000  Uiso   1.00
C1314  C     0.30052   0.55383   0.50715   0.00000  Uiso   1.00
C1315  C     0.09111   0.61241   0.90909   0.00000  Uiso   1.00
C1316  C     0.06284   0.63677   0.89504   0.00000  Uiso   1.00
C1317  C     0.14456   0.42847   0.90175   0.00000  Uiso   1.00
C1318  C     0.13976   0.50458   0.96133   0.00000  Uiso   1.00
C1319  C     0.17129   0.39294   0.88103   0.00000  Uiso   1.00
C1320  C     0.10298   0.52458   0.98347   0.00000  Uiso   1.00
C1321  C     0.16572   0.48922   0.98106   0.00000  Uiso   1.00
C1322  C     0.15044   0.48665   0.52227   0.00000  Uiso   1.00
C1323  C     0.10791   0.49720   0.54205   0.00000  Uiso   1.00
C1324  C     0.08754   0.52109   0.52435   0.00000  Uiso   1.00
H1325  H     0.01662   0.52062   0.71273   0.00000  Uiso   1.00
H1326  H     0.33026   0.59656   0.57879   0.00000  Uiso   1.00
H1327  H     0.30969   0.44138   0.51831   0.00000  Uiso   1.00
H1328  H     0.28008   0.39473   0.52673   0.00000  Uiso   1.00
H1329  H     0.01886   0.46944   0.83112   0.00000  Uiso   1.00
H1330  H     0.00924   0.42553   0.79601   0.00000  Uiso   1.00
H1331  H     0.26718   0.41321   0.83662   0.00000  Uiso   1.00
H1332  H     0.30466   0.41192   0.86495   0.00000  Uiso   1.00
H1333  H     0.27591   0.45717   0.87135   0.00000  Uiso   1.00
H1334  H     0.08736   0.33782   0.79137   0.00000  Uiso   1.00
H1335  H     0.11973   0.34750   0.82148   0.00000  Uiso   1.00
H1336  H     0.20566   0.33543   0.71554   0.00000  Uiso   1.00
H1337  H     0.28406   0.49964   0.61008   0.00000  Uiso   1.00
H1338  H     0.32209   0.46740   0.57602   0.00000  Uiso   1.00
H1339  H     0.32667   0.42958   0.62899   0.00000  Uiso   1.00
H1340  H     0.00196   0.48500   0.64258   0.00000  Uiso   1.00
H1341  H     0.28401   0.45633   0.66389   0.00000  Uiso   1.00
H1342  H     0.00835   0.50536   0.98111   0.00000  Uiso   1.00
H1343  H     0.00535   0.54115   0.94754   0.00000  Uiso   1.00
H1344  H     0.30111   0.58810   0.50783   0.00000  Uiso   1.00
H1345  H     0.27149   0.53862   0.99868   0.00000  Uiso   1.00
H1346  H     0.29837   0.54582   0.53693   0.00000  Uiso   1.00
H1347  H     0.14585   0.49994   0.60073   0.00000  Uiso   1.00
H1348  H     0.12516   0.61852   0.89116   0.00000  Uiso   1.00
H1349  H     0.08856   0.62394   0.94048   0.00000  Uiso   1.00
H1350  H     0.07362   0.33727   0.89812   0.00000  Uiso   1.00
H1351  H     0.06480   0.62638   0.86368   0.00000  Uiso   1.00
H1352  H     0.02877   0.63147   0.91298   0.00000  Uiso   1.00
H1353  H     0.11847   0.42882   0.88748   0.00000  Uiso   1.00
H1354  H     0.12986   0.42235   0.93307   0.00000  Uiso   1.00
H1355  H     0.19756   0.39197   0.89478   0.00000  Uiso   1.00
H1356  H     0.15065   0.36283   0.88351   0.00000  Uiso   1.00
H1357  H     0.18558   0.39737   0.84940   0.00000  Uiso   1.00
H1358  H     0.26231   0.45022   0.96132   0.00000  Uiso   1.00
H1359  H     0.09335   0.45198   0.58065   0.00000  Uiso   1.00
H1360  H     0.07925   0.50080   0.60145   0.00000  Uiso   1.00
H1361  H     0.22308   0.48415   0.93074   0.00000  Uiso   1.00
H1362  H     0.07558   0.59853   0.54766   0.00000  Uiso   1.00
H1363  H     0.08112   0.57059   0.58616   0.00000  Uiso   1.00
H1364  H     0.00118   0.56601   0.61597   0.00000  Uiso   1.00
H1365  H     0.02629   0.61898   0.61361   0.00000  Uiso   1.00
N1366  N     0.28158   0.42311   0.51557   0.00000  Uiso   1.00
N1367  N     0.11622   0.66432   0.79516   0.00000  Uiso   1.00
N1368  N     0.08162   0.47892   0.57682   0.00000  Uiso   1.00
O1369  O     0.16667   0.50000   0.75000   0.00000  Uiso   1.00
O1370  O     0.15693   0.45726   0.66625   0.00000  Uiso   1.00
O1371  O     0.12687   0.53979   0.83749   0.00000  Uiso   1.00
O1372  O     0.21088   0.50826   0.65877   0.00000  Uiso   1.00
O1373  O     0.17198   0.49468   0.83749   0.00000  Uiso   1.00
O1374  O     0.04936   0.53645   0.54662   0.00000  Uiso   1.00
O1375  O     0.31072   0.47791   0.79888   0.00000  Uiso   1.00
O1376  O     0.26148   0.43633   0.59878   0.00000  Uiso   1.00
O1377  O     0.04430   0.56392   0.98433   0.00000  Uiso   1.00
O1378  O     0.07705   0.56956   0.90425   0.00000  Uiso   1.00
O1379  O     0.17166   0.46637   0.89851   0.00000  Uiso   1.00
O1380  O     0.17849   0.41434   0.77820   0.00000  Uiso   1.00
O1381  O     0.14581   0.59469   0.76767   0.00000  Uiso   1.00
O1382  O     0.07452   0.46584   0.73607   0.00000  Uiso   1.00
O1383  O     0.26785   0.52512   0.71805   0.00000  Uiso   1.00
O1384  O     0.06990   0.52293   0.77820   0.00000  Uiso   1.00
O1385  O     0.25440   0.48610   0.76767   0.00000  Uiso   1.00
O1386  O     0.13800   0.40236   0.73607   0.00000  Uiso   1.00
O1387  O     0.20437   0.58860   0.71805   0.00000  Uiso   1.00
Zn1388 Zn    0.19244   0.47423   0.78277   0.00000  Uiso   1.00
Zn1389 Zn    0.13459   0.45711   0.72257   0.00000  Uiso   1.00
Zn1390 Zn    0.21166   0.52997   0.71188   0.00000  Uiso   1.00
Zn1391 Zn    0.12798   0.53868   0.78277   0.00000  Uiso   1.00
C1392  C     0.38614   0.49382   0.75849   0.00000  Uiso   1.00
C1393  C     0.54070   0.47786   0.96073   0.00000  Uiso   1.00
C1394  C     0.56458   0.45964   0.97890   0.00000  Uiso   1.00
C1395  C     0.61429   0.50675   0.74146   0.00000  Uiso   1.00
C1396  C     0.55117   0.45820   0.51955   0.00000  Uiso   1.00
C1397  C     0.51202   0.47453   0.54186   0.00000  Uiso   1.00
C1398  C     0.57830   0.44412   0.53844   0.00000  Uiso   1.00
C1399  C     0.56921   0.45084   0.57967   0.00000  Uiso   1.00
C1400  C     0.50462   0.48201   0.58281   0.00000  Uiso   1.00
C1401  C     0.66005   0.50735   0.73786   0.00000  Uiso   1.00
C1402  C     0.34012   0.49101   0.76436   0.00000  Uiso   1.00
C1403  C     0.43100   0.54782   0.92276   0.00000  Uiso   1.00
C1404  C     0.51285   0.65534   0.73868   0.00000  Uiso   1.00
C1405  C     0.48440   0.34628   0.76351   0.00000  Uiso   1.00
C1406  C     0.48972   0.38972   0.75875   0.00000  Uiso   1.00
C1407  C     0.50994   0.61097   0.74156   0.00000  Uiso   1.00
C1408  C     0.52201   0.47839   0.64413   0.00000  Uiso   1.00
C1409  C     0.47767   0.51997   0.85653   0.00000  Uiso   1.00
C1410  C     0.46388   0.52321   0.90033   0.00000  Uiso   1.00
C1411  C     0.53205   0.46969   0.60152   0.00000  Uiso   1.00
C1412  C     0.41433   0.54497   0.96365   0.00000  Uiso   1.00
C1413  C     0.39289   0.57440   0.56804   0.00000  Uiso   1.00
C1414  C     0.48156   0.49848   0.91990   0.00000  Uiso   1.00
C1415  C     0.35166   0.58987   0.59581   0.00000  Uiso   1.00
C1416  C     0.66116   0.45138   0.81735   0.00000  Uiso   1.00
C1417  C     0.62490   0.43223   0.84963   0.00000  Uiso   1.00
C1418  C     0.62813   0.46775   0.60325   0.00000  Uiso   1.00
C1419  C     0.64458   0.45911   0.63679   0.00000  Uiso   1.00
C1420  C     0.34097   0.53874   0.97759   0.00000  Uiso   1.00
C1421  C     0.63386   0.55383   0.50715   0.00000  Uiso   1.00
C1422  C     0.42444   0.61241   0.90909   0.00000  Uiso   1.00
C1423  C     0.39617   0.63677   0.89504   0.00000  Uiso   1.00
C1424  C     0.47789   0.42847   0.90175   0.00000  Uiso   1.00
C1425  C     0.47309   0.50458   0.96133   0.00000  Uiso   1.00
C1426  C     0.50462   0.39294   0.88103   0.00000  Uiso   1.00
C1427  C     0.43631   0.52458   0.98347   0.00000  Uiso   1.00
C1428  C     0.49905   0.48922   0.98106   0.00000  Uiso   1.00
C1429  C     0.48377   0.48665   0.52227   0.00000  Uiso   1.00
C1430  C     0.44125   0.49720   0.54205   0.00000  Uiso   1.00
C1431  C     0.42088   0.52109   0.52435   0.00000  Uiso   1.00
H1432  H     0.34995   0.52062   0.71273   0.00000  Uiso   1.00
H1433  H     0.66359   0.59656   0.57879   0.00000  Uiso   1.00
H1434  H     0.64302   0.44138   0.51831   0.00000  Uiso   1.00
H1435  H     0.61341   0.39473   0.52673   0.00000  Uiso   1.00
H1436  H     0.35219   0.46944   0.83112   0.00000  Uiso   1.00
H1437  H     0.34257   0.42553   0.79601   0.00000  Uiso   1.00
H1438  H     0.60052   0.41321   0.83662   0.00000  Uiso   1.00
H1439  H     0.63799   0.41192   0.86495   0.00000  Uiso   1.00
H1440  H     0.60924   0.45717   0.87135   0.00000  Uiso   1.00
H1441  H     0.42069   0.33782   0.79137   0.00000  Uiso   1.00
H1442  H     0.45307   0.34750   0.82148   0.00000  Uiso   1.00
H1443  H     0.53899   0.33543   0.71554   0.00000  Uiso   1.00
H1444  H     0.61739   0.49964   0.61008   0.00000  Uiso   1.00
H1445  H     0.65542   0.46740   0.57602   0.00000  Uiso   1.00
H1446  H     0.66000   0.42958   0.62899   0.00000  Uiso   1.00
H1447  H     0.33529   0.48500   0.64258   0.00000  Uiso   1.00
H1448  H     0.61734   0.45633   0.66389   0.00000  Uiso   1.00
H1449  H     0.34168   0.50536   0.98111   0.00000  Uiso   1.00
H1450  H     0.33868   0.54115   0.94754   0.00000  Uiso   1.00
H1451  H     0.63445   0.58810   0.50783   0.00000  Uiso   1.00
H1452  H     0.60483   0.53862   0.99868   0.00000  Uiso   1.00
H1453  H     0.63171   0.54582   0.53693   0.00000  Uiso   1.00
H1454  H     0.47918   0.49994   0.60073   0.00000  Uiso   1.00
H1455  H     0.45849   0.61852   0.89116   0.00000  Uiso   1.00
H1456  H     0.42190   0.62394   0.94048   0.00000  Uiso   1.00
H1457  H     0.40695   0.33727   0.89812   0.00000  Uiso   1.00
H1458  H     0.39813   0.62638   0.86368   0.00000  Uiso   1.00
H1459  H     0.36210   0.63147   0.91298   0.00000  Uiso   1.00
H1460  H     0.45180   0.42882   0.88748   0.00000  Uiso   1.00
H1461  H     0.46320   0.42235   0.93307   0.00000  Uiso   1.00
H1462  H     0.53089   0.39197   0.89478   0.00000  Uiso   1.00
H1463  H     0.48398   0.36283   0.88351   0.00000  Uiso   1.00
H1464  H     0.51891   0.39737   0.84940   0.00000  Uiso   1.00
H1465  H     0.59564   0.45022   0.96132   0.00000  Uiso   1.00
H1466  H     0.42668   0.45198   0.58065   0.00000  Uiso   1.00
H1467  H     0.41258   0.50080   0.60145   0.00000  Uiso   1.00
H1468  H     0.55641   0.48415   0.93074   0.00000  Uiso   1.00
H1469  H     0.40891   0.59853   0.54766   0.00000  Uiso   1.00
H1470  H     0.41446   0.57059   0.58616   0.00000  Uiso   1.00
H1471  H     0.33452   0.56601   0.61597   0.00000  Uiso   1.00
H1472  H     0.35962   0.61898   0.61361   0.00000  Uiso   1.00
N1473  N     0.61492   0.42311   0.51557   0.00000  Uiso   1.00
N1474  N     0.44955   0.66432   0.79516   0.00000  Uiso   1.00
N1475  N     0.41495   0.47892   0.57682   0.00000  Uiso   1.00
O1476  O     0.50000   0.50000   0.75000   0.00000  Uiso   1.00
O1477  O     0.49027   0.45726   0.66625   0.00000  Uiso   1.00
O1478  O     0.46020   0.53979   0.83749   0.00000  Uiso   1.00
O1479  O     0.54421   0.50826   0.65877   0.00000  Uiso   1.00
O1480  O     0.50532   0.49468   0.83749   0.00000  Uiso   1.00
O1481  O     0.38270   0.53645   0.54662   0.00000  Uiso   1.00
O1482  O     0.64405   0.47791   0.79888   0.00000  Uiso   1.00
O1483  O     0.59481   0.43633   0.59878   0.00000  Uiso   1.00
O1484  O     0.37763   0.56392   0.98433   0.00000  Uiso   1.00
O1485  O     0.41038   0.56956   0.90425   0.00000  Uiso   1.00
O1486  O     0.50499   0.46637   0.89851   0.00000  Uiso   1.00
O1487  O     0.51182   0.41434   0.77820   0.00000  Uiso   1.00
O1488  O     0.47914   0.59469   0.76767   0.00000  Uiso   1.00
O1489  O     0.40785   0.46584   0.73607   0.00000  Uiso   1.00
O1490  O     0.60119   0.52512   0.71805   0.00000  Uiso   1.00
O1491  O     0.40323   0.52293   0.77820   0.00000  Uiso   1.00
O1492  O     0.58773   0.48610   0.76767   0.00000  Uiso   1.00
O1493  O     0.47133   0.40236   0.73607   0.00000  Uiso   1.00
O1494  O     0.53771   0.58860   0.71805   0.00000  Uiso   1.00
Zn1495 Zn    0.52577   0.47423   0.78277   0.00000  Uiso   1.00
Zn1496 Zn    0.46792   0.45711   0.72257   0.00000  Uiso   1.00
Zn1497 Zn    0.54500   0.52997   0.71188   0.00000  Uiso   1.00
Zn1498 Zn    0.46131   0.53868   0.78277   0.00000  Uiso   1.00
C1499  C     0.71948   0.49382   0.75849   0.00000  Uiso   1.00
C1500  C     0.87403   0.47786   0.96073   0.00000  Uiso   1.00
C1501  C     0.89792   0.45964   0.97890   0.00000  Uiso   1.00
C1502  C     0.94763   0.50675   0.74146   0.00000  Uiso   1.00
C1503  C     0.88451   0.45820   0.51955   0.00000  Uiso   1.00
C1504  C     0.84535   0.47453   0.54186   0.00000  Uiso   1.00
C1505  C     0.91163   0.44412   0.53844   0.00000  Uiso   1.00
C1506  C     0.90254   0.45084   0.57967   0.00000  Uiso   1.00
C1507  C     0.83795   0.48201   0.58281   0.00000  Uiso   1.00
C1508  C     0.99339   0.50735   0.73786   0.00000  Uiso   1.00
C1509  C     0.67346   0.49101   0.76436   0.00000  Uiso   1.00
C1510  C     0.76434   0.54782   0.92276   0.00000  Uiso   1.00
C1511  C     0.84618   0.65534   0.73868   0.00000  Uiso   1.00
C1512  C     0.81773   0.34628   0.76351   0.00000  Uiso   1.00
C1513  C     0.82306   0.38972   0.75875   0.00000  Uiso   1.00
C1514  C     0.84327   0.61097   0.74156   0.00000  Uiso   1.00
C1515  C     0.85535   0.47839   0.64413   0.00000  Uiso   1.00
C1516  C     0.81100   0.51997   0.85653   0.00000  Uiso   1.00
C1517  C     0.79721   0.52321   0.90033   0.00000  Uiso   1.00
C1518  C     0.86538   0.46969   0.60152   0.00000  Uiso   1.00
C1519  C     0.74767   0.54497   0.96365   0.00000  Uiso   1.00
C1520  C     0.72622   0.57440   0.56804   0.00000  Uiso   1.00
C1521  C     0.81489   0.49848   0.91990   0.00000  Uiso   1.00
C1522  C     0.68499   0.58987   0.59581   0.00000  Uiso   1.00
C1523  C     0.99449   0.45138   0.81735   0.00000  Uiso   1.00
C1524  C     0.95824   0.43223   0.84963   0.00000  Uiso   1.00
C1525  C     0.96147   0.46775   0.60325   0.00000  Uiso   1.00
C1526  C     0.97791   0.45911   0.63679   0.00000  Uiso   1.00
C1527  C     0.67430   0.53874   0.97759   0.00000  Uiso   1.00
C1528  C     0.96719   0.55383   0.50715   0.00000  Uiso   1.00
C1529  C     0.75777   0.61241   0.90909   0.00000  Uiso   1.00
C1530  C     0.72950   0.63677   0.89504   0.00000  Uiso   1.00
C1531  C     0.81122   0.42847   0.90175   0.00000  Uiso   1.00
C1532  C     0.80643   0.50458   0.96133   0.00000  Uiso   1.00
C1533  C     0.83795   0.39294   0.88103   0.00000  Uiso   1.00
C1534  C     0.76964   0.52458   0.98347   0.00000  Uiso   1.00
C1535  C     0.83239   0.48922   0.98106   0.00000  Uiso   1.00
C1536  C     0.81710   0.48665   0.52227   0.00000  Uiso   1.00
C1537  C     0.77458   0.49720   0.54205   0.00000  Uiso   1.00
C1538  C     0.75421   0.52109   0.52435   0.00000  Uiso   1.00
H1539  H     0.68329   0.52062   0.71273   0.00000  Uiso   1.00
H1540  H     0.99692   0.59656   0.57879   0.00000  Uiso   1.00
H1541  H     0.97635   0.44138   0.51831   0.00000  Uiso   1.00
H1542  H     0.94674   0.39473   0.52673   0.00000  Uiso   1.00
H1543  H     0.68552   0.46944   0.83112   0.00000  Uiso   1.00
H1544  H     0.67591   0.42553   0.79601   0.00000  Uiso   1.00
H1545  H     0.93385   0.41321   0.83662   0.00000  Uiso   1.00
H1546  H     0.97132   0.41192   0.86495   0.00000  Uiso   1.00
H1547  H     0.94258   0.45717   0.87135   0.00000  Uiso   1.00
H1548  H     0.75402   0.33782   0.79137   0.00000  Uiso   1.00
H1549  H     0.78640   0.34750   0.82148   0.00000  Uiso   1.00
H1550  H     0.87233   0.33543   0.71554   0.00000  Uiso   1.00
H1551  H     0.95072   0.49964   0.61008   0.00000  Uiso   1.00
H1552  H     0.98876   0.46740   0.57602   0.00000  Uiso   1.00
H1553  H     0.99333   0.42958   0.62899   0.00000  Uiso   1.00
H1554  H     0.66863   0.48500   0.64258   0.00000  Uiso   1.00
H1555  H     0.95067   0.45633   0.66389   0.00000  Uiso   1.00
H1556  H     0.67501   0.50536   0.98111   0.00000  Uiso   1.00
H1557  H     0.67201   0.54115   0.94754   0.00000  Uiso   1.00
H1558  H     0.96778   0.58810   0.50783   0.00000  Uiso   1.00
H1559  H     0.93816   0.53862   0.99868   0.00000  Uiso   1.00
H1560  H     0.96504   0.54582   0.53693   0.00000  Uiso   1.00
H1561  H     0.81251   0.49994   0.60073   0.00000  Uiso   1.00
H1562  H     0.79182   0.61852   0.89116   0.00000  Uiso   1.00
H1563  H     0.75523   0.62394   0.94048   0.00000  Uiso   1.00
H1564  H     0.74028   0.33727   0.89812   0.00000  Uiso   1.00
H1565  H     0.73147   0.62638   0.86368   0.00000  Uiso   1.00
H1566  H     0.69544   0.63147   0.91298   0.00000  Uiso   1.00
H1567  H     0.78514   0.42882   0.88748   0.00000  Uiso   1.00
H1568  H     0.79653   0.42235   0.93307   0.00000  Uiso   1.00
H1569  H     0.86423   0.39197   0.89478   0.00000  Uiso   1.00
H1570  H     0.81732   0.36283   0.88351   0.00000  Uiso   1.00
H1571  H     0.85225   0.39737   0.84940   0.00000  Uiso   1.00
H1572  H     0.92898   0.45022   0.96132   0.00000  Uiso   1.00
H1573  H     0.76002   0.45198   0.58065   0.00000  Uiso   1.00
H1574  H     0.74592   0.50080   0.60145   0.00000  Uiso   1.00
H1575  H     0.88974   0.48415   0.93074   0.00000  Uiso   1.00
H1576  H     0.74224   0.59853   0.54766   0.00000  Uiso   1.00
H1577  H     0.74779   0.57059   0.58616   0.00000  Uiso   1.00
H1578  H     0.66785   0.56601   0.61597   0.00000  Uiso   1.00
H1579  H     0.69295   0.61898   0.61361   0.00000  Uiso   1.00
N1580  N     0.94825   0.42311   0.51557   0.00000  Uiso   1.00
N1581  N     0.78288   0.66432   0.79516   0.00000  Uiso   1.00
N1582  N     0.74828   0.47892   0.57682   0.00000  Uiso   1.00
O1583  O     0.83333   0.50000   0.75000   0.00000  Uiso   1.00
O1584  O     0.82360   0.45726   0.66625   0.00000  Uiso   1.00
O1585  O     0.79354   0.53979   0.83749   0.00000  Uiso   1.00
O1586  O     0.87755   0.50826   0.65877   0.00000  Uiso   1.00
O1587  O     0.83865   0.49468   0.83749   0.00000  Uiso   1.00
O1588  O     0.71603   0.53645   0.54662   0.00000  Uiso   1.00
O1589  O     0.97739   0.47791   0.79888   0.00000  Uiso   1.00
O1590  O     0.92814   0.43633   0.59878   0.00000  Uiso   1.00
O1591  O     0.71096   0.56392   0.98433   0.00000  Uiso   1.00
O1592  O     0.74372   0.56956   0.90425   0.00000  Uiso   1.00
O1593  O     0.83833   0.46637   0.89851   0.00000  Uiso   1.00
O1594  O     0.84515   0.41434   0.77820   0.00000  Uiso   1.00
O1595  O     0.81247   0.59469   0.76767   0.00000  Uiso   1.00
O1596  O     0.74119   0.46584   0.73607   0.00000  Uiso   1.00
O1597  O     0.93452   0.52512   0.71805   0.00000  Uiso   1.00
O1598  O     0.73656   0.52293   0.77820   0.00000  Uiso   1.00
O1599  O     0.92106   0.48610   0.76767   0.00000  Uiso   1.00
O1600  O     0.80467   0.40236   0.73607   0.00000  Uiso   1.00
O1601  O     0.87104   0.58860   0.71805   0.00000  Uiso   1.00
Zn1602 Zn    0.85910   0.47423   0.78277   0.00000  Uiso   1.00
Zn1603 Zn    0.80125   0.45711   0.72257   0.00000  Uiso   1.00
Zn1604 Zn    0.87833   0.52997   0.71188   0.00000  Uiso   1.00
Zn1605 Zn    0.79465   0.53868   0.78277   0.00000  Uiso   1.00
C1606  C     0.05281   0.82715   0.75849   0.00000  Uiso   1.00
C1607  C     0.20737   0.81120   0.96073   0.00000  Uiso   1.00
C1608  C     0.23125   0.79298   0.97890   0.00000  Uiso   1.00
C1609  C     0.28096   0.84008   0.74146   0.00000  Uiso   1.00
C1610  C     0.21784   0.79153   0.51955   0.00000  Uiso   1.00
C1611  C     0.17868   0.80786   0.54186   0.00000  Uiso   1.00
C1612  C     0.24496   0.77745   0.53844   0.00000  Uiso   1.00
C1613  C     0.23587   0.78417   0.57967   0.00000  Uiso   1.00
C1614  C     0.17129   0.81534   0.58281   0.00000  Uiso   1.00
C1615  C     0.32672   0.84068   0.73786   0.00000  Uiso   1.00
C1616  C     0.00679   0.82434   0.76436   0.00000  Uiso   1.00
C1617  C     0.09767   0.88116   0.92276   0.00000  Uiso   1.00
C1618  C     0.17952   0.98867   0.73868   0.00000  Uiso   1.00
C1619  C     0.15106   0.67961   0.76351   0.00000  Uiso   1.00
C1620  C     0.15639   0.72305   0.75875   0.00000  Uiso   1.00
C1621  C     0.17661   0.94430   0.74156   0.00000  Uiso   1.00
C1622  C     0.18868   0.81173   0.64413   0.00000  Uiso   1.00
C1623  C     0.14433   0.85330   0.85653   0.00000  Uiso   1.00
C1624  C     0.13054   0.85654   0.90033   0.00000  Uiso   1.00
C1625  C     0.19871   0.80303   0.60152   0.00000  Uiso   1.00
C1626  C     0.08100   0.87831   0.96365   0.00000  Uiso   1.00
C1627  C     0.05956   0.90774   0.56804   0.00000  Uiso   1.00
C1628  C     0.14823   0.83181   0.91990   0.00000  Uiso   1.00
C1629  C     0.01832   0.92321   0.59581   0.00000  Uiso   1.00
C1630  C     0.32783   0.78472   0.81735   0.00000  Uiso   1.00
C1631  C     0.29157   0.76556   0.84963   0.00000  Uiso   1.00
C1632  C     0.29480   0.80108   0.60325   0.00000  Uiso   1.00
C1633  C     0.31125   0.79244   0.63679   0.00000  Uiso   1.00
C1634  C     0.00764   0.87208   0.97759   0.00000  Uiso   1.00
C1635  C     0.30052   0.88717   0.50715   0.00000  Uiso   1.00
C1636  C     0.09111   0.94574   0.90909   0.00000  Uiso   1.00
C1637  C     0.06284   0.97010   0.89504   0.00000  Uiso   1.00
C1638  C     0.14456   0.76180   0.90175   0.00000  Uiso   1.00
C1639  C     0.13976   0.83791   0.96133   0.00000  Uiso   1.00
C1640  C     0.17129   0.72627   0.88103   0.00000  Uiso   1.00
C1641  C     0.10298   0.85792   0.98347   0.00000  Uiso   1.00
C1642  C     0.16572   0.82256   0.98106   0.00000  Uiso   1.00
C1643  C     0.15044   0.81998   0.52227   0.00000  Uiso   1.00
C1644  C     0.10791   0.83053   0.54205   0.00000  Uiso   1.00
C1645  C     0.08754   0.85442   0.52435   0.00000  Uiso   1.00
H1646  H     0.01662   0.85396   0.71273   0.00000  Uiso   1.00
H1647  H     0.33026   0.92990   0.57879   0.00000  Uiso   1.00
H1648  H     0.30969   0.77472   0.51831   0.00000  Uiso   1.00
H1649  H     0.28008   0.72806   0.52673   0.00000  Uiso   1.00
H1650  H     0.01886   0.80277   0.83112   0.00000  Uiso   1.00
H1651  H     0.00924   0.75886   0.79601   0.00000  Uiso   1.00
H1652  H     0.26718   0.74655   0.83662   0.00000  Uiso   1.00
H1653  H     0.30466   0.74526   0.86495   0.00000  Uiso   1.00
H1654  H     0.27591   0.79050   0.87135   0.00000  Uiso   1.00
H1655  H     0.08736   0.67115   0.79137   0.00000  Uiso   1.00
H1656  H     0.11973   0.68084   0.82148   0.00000  Uiso   1.00
H1657  H     0.20566   0.66876   0.71554   0.00000  Uiso   1.00
H1658  H     0.28406   0.83298   0.61008   0.00000  Uiso   1.00
H1659  H     0.32209   0.80074   0.57602   0.00000  Uiso   1.00
H1660  H     0.32667   0.76291   0.62899   0.00000  Uiso   1.00
H1661  H     0.00196   0.81833   0.64258   0.00000  Uiso   1.00
H1662  H     0.28401   0.78966   0.66389   0.00000  Uiso   1.00
H1663  H     0.00835   0.83869   0.98111   0.00000  Uiso   1.00
H1664  H     0.00535   0.87448   0.94754   0.00000  Uiso   1.00
H1665  H     0.30111   0.92144   0.50783   0.00000  Uiso   1.00
H1666  H     0.27149   0.87195   0.99868   0.00000  Uiso   1.00
H1667  H     0.29837   0.87916   0.53693   0.00000  Uiso   1.00
H1668  H     0.14585   0.83327   0.60073   0.00000  Uiso   1.00
H1669  H     0.12516   0.95185   0.89116   0.00000  Uiso   1.00
H1670  H     0.08856   0.95728   0.94048   0.00000  Uiso   1.00
H1671  H     0.07362   0.67060   0.89812   0.00000  Uiso   1.00
H1672  H     0.06480   0.95972   0.86368   0.00000  Uiso   1.00
H1673  H     0.02877   0.96481   0.91298   0.00000  Uiso   1.00
H1674  H     0.11847   0.76215   0.88748   0.00000  Uiso   1.00
H1675  H     0.12986   0.75568   0.93307   0.00000  Uiso   1.00
H1676  H     0.19756   0.72531   0.89478   0.00000  Uiso   1.00
H1677  H     0.15065   0.69616   0.88351   0.00000  Uiso   1.00
H1678  H     0.18558   0.73070   0.84940   0.00000  Uiso   1.00
H1679  H     0.26231   0.78356   0.96132   0.00000  Uiso   1.00
H1680  H     0.09335   0.78531   0.58065   0.00000  Uiso   1.00
H1681  H     0.07925   0.83413   0.60145   0.00000  Uiso   1.00
H1682  H     0.22308   0.81748   0.93074   0.00000  Uiso   1.00
H1683  H     0.07558   0.93186   0.54766   0.00000  Uiso   1.00
H1684  H     0.08112   0.90392   0.58616   0.00000  Uiso   1.00
H1685  H     0.00118   0.89935   0.61597   0.00000  Uiso   1.00
H1686  H     0.02629   0.95232   0.61361   0.00000  Uiso   1.00
N1687  N     0.28158   0.75644   0.51557   0.00000  Uiso   1.00
N1688  N     0.11622   0.99766   0.79516   0.00000  Uiso   1.00
N1689  N     0.08162   0.81226   0.57682   0.00000  Uiso   1.00
O1690  O     0.16667   0.83333   0.75000   0.00000  Uiso   1.00
O1691  O     0.15693   0.79060   0.66625   0.00000  Uiso   1.00
O1692  O     0.12687   0.87313   0.83749   0.00000  Uiso   1.00
O1693  O     0.21088   0.84159   0.65877   0.00000  Uiso   1.00
O1694  O     0.17198   0.82802   0.83749   0.00000  Uiso   1.00
O1695  O     0.04936   0.86978   0.54662   0.00000  Uiso   1.00
O1696  O     0.31072   0.81125   0.79888   0.00000  Uiso   1.00
O1697  O     0.26148   0.76967   0.59878   0.00000  Uiso   1.00
O1698  O     0.04430   0.89725   0.98433   0.00000  Uiso   1.00
O1699  O     0.07705   0.90289   0.90425   0.00000  Uiso   1.00
O1700  O     0.17166   0.79970   0.89851   0.00000  Uiso   1.00
O1701  O     0.17849   0.74768   0.77820   0.00000  Uiso   1.00
O1702  O     0.14581   0.92803   0.76767   0.00000  Uiso   1.00
O1703  O     0.07452   0.79917   0.73607   0.00000  Uiso   1.00
O1704  O     0.26785   0.85845   0.71805   0.00000  Uiso   1.00
O1705  O     0.06990   0.85627   0.77820   0.00000  Uiso   1.00
O1706  O     0.25440   0.81944   0.76767   0.00000  Uiso   1.00
O1707  O     0.13800   0.73570   0.73607   0.00000  Uiso   1.00
O1708  O     0.20437   0.92193   0.71805   0.00000  Uiso   1.00
Zn1709 Zn    0.19244   0.80756   0.78277   0.00000  Uiso   1.00
Zn1710 Zn    0.13459   0.79044   0.72257   0.00000  Uiso   1.00
Zn1711 Zn    0.21166   0.86331   0.71188   0.00000  Uiso   1.00
Zn1712 Zn    0.12798   0.87202   0.78277   0.00000  Uiso   1.00
C1713  C     0.38614   0.82715   0.75849   0.00000  Uiso   1.00
C1714  C     0.54070   0.81120   0.96073   0.00000  Uiso   1.00
C1715  C     0.56458   0.79298   0.97890   0.00000  Uiso   1.00
C1716  C     0.61429   0.84008   0.74146   0.00000  Uiso   1.00
C1717  C     0.55117   0.79153   0.51955   0.00000  Uiso   1.00
C1718  C     0.51202   0.80786   0.54186   0.00000  Uiso   1.00
C1719  C     0.57830   0.77745   0.53844   0.00000  Uiso   1.00
C1720  C     0.56921   0.78417   0.57967   0.00000  Uiso   1.00
C1721  C     0.50462   0.81534   0.58281   0.00000  Uiso   1.00
C1722  C     0.66005   0.84068   0.73786   0.00000  Uiso   1.00
C1723  C     0.34012   0.82434   0.76436   0.00000  Uiso   1.00
C1724  C     0.43100   0.88116   0.92276   0.00000  Uiso   1.00
C1725  C     0.51285   0.98867   0.73868   0.00000  Uiso   1.00
C1726  C     0.48440   0.67961   0.76351   0.00000  Uiso   1.00
C1727  C     0.48972   0.72305   0.75875   0.00000  Uiso   1.00
C1728  C     0.50994   0.94430   0.74156   0.00000  Uiso   1.00
C1729  C     0.52201   0.81173   0.64413   0.00000  Uiso   1.00
C1730  C     0.47767   0.85330   0.85653   0.00000  Uiso   1.00
C1731  C     0.46388   0.85654   0.90033   0.00000  Uiso   1.00
C1732  C     0.53205   0.80303   0.60152   0.00000  Uiso   1.00
C1733  C     0.41433   0.87831   0.96365   0.00000  Uiso   1.00
C1734  C     0.39289   0.90774   0.56804   0.00000  Uiso   1.00
C1735  C     0.48156   0.83181   0.91990   0.00000  Uiso   1.00
C1736  C     0.35166   0.92321   0.59581   0.00000  Uiso   1.00
C1737  C     0.66116   0.78472   0.81735   0.00000  Uiso   1.00
C1738  C     0.62490   0.76556   0.84963   0.00000  Uiso   1.00
C1739  C     0.62813   0.80108   0.60325   0.00000  Uiso   1.00
C1740  C     0.64458   0.79244   0.63679   0.00000  Uiso   1.00
C1741  C     0.34097   0.87208   0.97759   0.00000  Uiso   1.00
C1742  C     0.63386   0.88717   0.50715   0.00000  Uiso   1.00
C1743  C     0.42444   0.94574   0.90909   0.00000  Uiso   1.00
C1744  C     0.39617   0.97010   0.89504   0.00000  Uiso   1.00
C1745  C     0.47789   0.76180   0.90175   0.00000  Uiso   1.00
C1746  C     0.47309   0.83791   0.96133   0.00000  Uiso   1.00
C1747  C     0.50462   0.72627   0.88103   0.00000  Uiso   1.00
C1748  C     0.43631   0.85792   0.98347   0.00000  Uiso   1.00
C1749  C     0.49905   0.82256   0.98106   0.00000  Uiso   1.00
C1750  C     0.48377   0.81998   0.52227   0.00000  Uiso   1.00
C1751  C     0.44125   0.83053   0.54205   0.00000  Uiso   1.00
C1752  C     0.42088   0.85442   0.52435   0.00000  Uiso   1.00
H1753  H     0.34995   0.85396   0.71273   0.00000  Uiso   1.00
H1754  H     0.66359   0.92990   0.57879   0.00000  Uiso   1.00
H1755  H     0.64302   0.77472   0.51831   0.00000  Uiso   1.00
H1756  H     0.61341   0.72806   0.52673   0.00000  Uiso   1.00
H1757  H     0.35219   0.80277   0.83112   0.00000  Uiso   1.00
H1758  H     0.34257   0.75886   0.79601   0.00000  Uiso   1.00
H1759  H     0.60052   0.74655   0.83662   0.00000  Uiso   1.00
H1760  H     0.63799   0.74526   0.86495   0.00000  Uiso   1.00
H1761  H     0.60924   0.79050   0.87135   0.00000  Uiso   1.00
H1762  H     0.42069   0.67115   0.79137   0.00000  Uiso   1.00
H1763  H     0.45307   0.68084   0.82148   0.00000  Uiso   1.00
H1764  H     0.53899   0.66876   0.71554   0.00000  Uiso   1.00
H1765  H     0.61739   0.83298   0.61008   0.00000  Uiso   1.00
H1766  H     0.65542   0.80074   0.57602   0.00000  Uiso   1.00
H1767  H     0.66000   0.76291   0.62899   0.00000  Uiso   1.00
H1768  H     0.33529   0.81833   0.64258   0.00000  Uiso   1.00
H1769  H     0.61734   0.78966   0.66389   0.00000  Uiso   1.00
H1770  H     0.34168   0.83869   0.98111   0.00000  Uiso   1.00
H1771  H     0.33868   0.87448   0.94754   0.00000  Uiso   1.00
H1772  H     0.63445   0.92144   0.50783   0.00000  Uiso   1.00
H1773  H     0.60483   0.87195   0.99868   0.00000  Uiso   1.00
H1774  H     0.63171   0.87916   0.53693   0.00000  Uiso   1.00
H1775  H     0.47918   0.83327   0.60073   0.00000  Uiso   1.00
H1776  H     0.45849   0.95185   0.89116   0.00000  Uiso   1.00
H1777  H     0.42190   0.95728   0.94048   0.00000  Uiso   1.00
H1778  H     0.40695   0.67060   0.89812   0.00000  Uiso   1.00
H1779  H     0.39813   0.95972   0.86368   0.00000  Uiso   1.00
H1780  H     0.36210   0.96481   0.91298   0.00000  Uiso   1.00
H1781  H     0.45180   0.76215   0.88748   0.00000  Uiso   1.00
H1782  H     0.46320   0.75568   0.93307   0.00000  Uiso   1.00
H1783  H     0.53089   0.72531   0.89478   0.00000  Uiso   1.00
H1784  H     0.48398   0.69616   0.88351   0.00000  Uiso   1.00
H1785  H     0.51891   0.73070   0.84940   0.00000  Uiso   1.00
H1786  H     0.59564   0.78356   0.96132   0.00000  Uiso   1.00
H1787  H     0.42668   0.78531   0.58065   0.00000  Uiso   1.00
H1788  H     0.41258   0.83413   0.60145   0.00000  Uiso   1.00
H1789  H     0.55641   0.81748   0.93074   0.00000  Uiso   1.00
H1790  H     0.40891   0.93186   0.54766   0.00000  Uiso   1.00
H1791  H     0.41446   0.90392   0.58616   0.00000  Uiso   1.00
H1792  H     0.33452   0.89935   0.61597   0.00000  Uiso   1.00
H1793  H     0.35962   0.95232   0.61361   0.00000  Uiso   1.00
N1794  N     0.61492   0.75644   0.51557   0.00000  Uiso   1.00
N1795  N     0.44955   0.99766   0.79516   0.00000  Uiso   1.00
N1796  N     0.41495   0.81226   0.57682   0.00000  Uiso   1.00
O1797  O     0.50000   0.83333   0.75000   0.00000  Uiso   1.00
O1798  O     0.49027   0.79060   0.66625   0.00000  Uiso   1.00
O1799  O     0.46020   0.87313   0.83749   0.00000  Uiso   1.00
O1800  O     0.54421   0.84159   0.65877   0.00000  Uiso   1.00
O1801  O     0.50532   0.82802   0.83749   0.00000  Uiso   1.00
O1802  O     0.38270   0.86978   0.54662   0.00000  Uiso   1.00
O1803  O     0.64405   0.81125   0.79888   0.00000  Uiso   1.00
O1804  O     0.59481   0.76967   0.59878   0.00000  Uiso   1.00
O1805  O     0.37763   0.89725   0.98433   0.00000  Uiso   1.00
O1806  O     0.41038   0.90289   0.90425   0.00000  Uiso   1.00
O1807  O     0.50499   0.79970   0.89851   0.00000  Uiso   1.00
O1808  O     0.51182   0.74768   0.77820   0.00000  Uiso   1.00
O1809  O     0.47914   0.92803   0.76767   0.00000  Uiso   1.00
O1810  O     0.40785   0.79917   0.73607   0.00000  Uiso   1.00
O1811  O     0.60119   0.85845   0.71805   0.00000  Uiso   1.00
O1812  O     0.40323   0.85627   0.77820   0.00000  Uiso   1.00
O1813  O     0.58773   0.81944   0.76767   0.00000  Uiso   1.00
O1814  O     0.47133   0.73570   0.73607   0.00000  Uiso   1.00
O1815  O     0.53771   0.92193   0.71805   0.00000  Uiso   1.00
Zn1816 Zn    0.52577   0.80756   0.78277   0.00000  Uiso   1.00
Zn1817 Zn    0.46792   0.79044   0.72257   0.00000  Uiso   1.00
Zn1818 Zn    0.54500   0.86331   0.71188   0.00000  Uiso   1.00
Zn1819 Zn    0.46131   0.87202   0.78277   0.00000  Uiso   1.00
C1820  C     0.71948   0.82715   0.75849   0.00000  Uiso   1.00
C1821  C     0.87403   0.81120   0.96073   0.00000  Uiso   1.00
C1822  C     0.89792   0.79298   0.97890   0.00000  Uiso   1.00
C1823  C     0.94763   0.84008   0.74146   0.00000  Uiso   1.00
C1824  C     0.88451   0.79153   0.51955   0.00000  Uiso   1.00
C1825  C     0.84535   0.80786   0.54186   0.00000  Uiso   1.00
C1826  C     0.91163   0.77745   0.53844   0.00000  Uiso   1.00
C1827  C     0.90254   0.78417   0.57967   0.00000  Uiso   1.00
C1828  C     0.83795   0.81534   0.58281   0.00000  Uiso   1.00
C1829  C     0.99339   0.84068   0.73786   0.00000  Uiso   1.00
C1830  C     0.67346   0.82434   0.76436   0.00000  Uiso   1.00
C1831  C     0.76434   0.88116   0.92276   0.00000  Uiso   1.00
C1832  C     0.84618   0.98867   0.73868   0.00000  Uiso   1.00
C1833  C     0.81773   0.67961   0.76351   0.00000  Uiso   1.00
C1834  C     0.82306   0.72305   0.75875   0.00000  Uiso   1.00
C1835  C     0.84327   0.94430   0.74156   0.00000  Uiso   1.00
C1836  C     0.85535   0.81173   0.64413   0.00000  Uiso   1.00
C1837  C     0.81100   0.85330   0.85653   0.00000  Uiso   1.00
C1838  C     0.79721   0.85654   0.90033   0.00000  Uiso   1.00
C1839  C     0.86538   0.80303   0.60152   0.00000  Uiso   1.00
C1840  C     0.74767   0.87831   0.96365   0.00000  Uiso   1.00
C1841  C     0.72622   0.90774   0.56804   0.00000  Uiso   1.00
C1842  C     0.81489   0.83181   0.91990   0.00000  Uiso   1.00
C1843  C     0.68499   0.92321   0.59581   0.00000  Uiso   1.00
C1844  C     0.99449   0.78472   0.81735   0.00000  Uiso   1.00
C1845  C     0.95824   0.76556   0.84963   0.00000  Uiso   1.00
C1846  C     0.96147   0.80108   0.60325   0.00000  Uiso   1.00
C1847  C     0.97791   0.79244   0.63679   0.00000  Uiso   1.00
C1848  C     0.67430   0.87208   0.97759   0.00000  Uiso   1.00
C1849  C     0.96719   0.88717   0.50715   0.00000  Uiso   1.00
C1850  C     0.75777   0.94574   0.90909   0.00000  Uiso   1.00
C1851  C     0.72950   0.97010   0.89504   0.00000  Uiso   1.00
C1852  C     0.81122   0.76180   0.90175   0.00000  Uiso   1.00
C1853  C     0.80643   0.83791   0.96133   0.00000  Uiso   1.00
C1854  C     0.83795   0.72627   0.88103   0.00000  Uiso   1.00
C1855  C     0.76964   0.85792   0.98347   0.00000  Uiso   1.00
C1856  C     0.83239   0.82256   0.98106   0.00000  Uiso   1.00
C1857  C     0.81710   0.81998   0.52227   0.00000  Uiso   1.00
C1858  C     0.77458   0.83053   0.54205   0.00000  Uiso   1.00
C1859  C     0.75421   0.85442   0.52435   0.00000  Uiso   1.00
H1860  H     0.68329   0.85396   0.71273   0.00000  Uiso   1.00
H1861  H     0.99692   0.92990   0.57879   0.00000  Uiso   1.00
H1862  H     0.97635   0.77472   0.51831   0.00000  Uiso   1.00
H1863  H     0.94674   0.72806   0.52673   0.00000  Uiso   1.00
H1864  H     0.68552   0.80277   0.83112   0.00000  Uiso   1.00
H1865  H     0.67591   0.75886   0.79601   0.00000  Uiso   1.00
H1866  H     0.93385   0.74655   0.83662   0.00000  Uiso   1.00
H1867  H     0.97132   0.74526   0.86495   0.00000  Uiso   1.00
H1868  H     0.94258   0.79050   0.87135   0.00000  Uiso   1.00
H1869  H     0.75402   0.67115   0.79137   0.00000  Uiso   1.00
H1870  H     0.78640   0.68084   0.82148   0.00000  Uiso   1.00
H1871  H     0.87233   0.66876   0.71554   0.00000  Uiso   1.00
H1872  H     0.95072   0.83298   0.61008   0.00000  Uiso   1.00
H1873  H     0.98876   0.80074   0.57602   0.00000  Uiso   1.00
H1874  H     0.99333   0.76291   0.62899   0.00000  Uiso   1.00
H1875  H     0.66863   0.81833   0.64258   0.00000  Uiso   1.00
H1876  H     0.95067   0.78966   0.66389   0.00000  Uiso   1.00
H1877  H     0.67501   0.83869   0.98111   0.00000  Uiso   1.00
H1878  H     0.67201   0.87448   0.94754   0.00000  Uiso   1.00
H1879  H     0.96778   0.92144   0.50783   0.00000  Uiso   1.00
H1880  H     0.93816   0.87195   0.99868   0.00000  Uiso   1.00
H1881  H     0.96504   0.87916   0.53693   0.00000  Uiso   1.00
H1882  H     0.81251   0.83327   0.60073   0.00000  Uiso   1.00
H1883  H     0.79182   0.95185   0.89116   0.00000  Uiso   1.00
H1884  H     0.75523   0.95728   0.94048   0.00000  Uiso   1.00
H1885  H     0.74028   0.67060   0.89812   0.00000  Uiso   1.00
H1886  H     0.73147   0.95972   0.86368   0.00000  Uiso   1.00
H1887  H     0.69544   0.96481   0.91298   0.00000  Uiso   1.00
H1888  H     0.78514   0.76215   0.88748   0.00000  Uiso   1.00
H1889  H     0.79653   0.75568   0.93307   0.00000  Uiso   1.00
H1890  H     0.86423   0.72531   0.89478   0.00000  Uiso   1.00
H1891  H     0.81732   0.69616   0.88351   0.00000  Uiso   1.00
H1892  H     0.85225   0.73070   0.84940   0.00000  Uiso   1.00
H1893  H     0.92898   0.78356   0.96132   0.00000  Uiso   1.00
H1894  H     0.76002   0.78531   0.58065   0.00000  Uiso   1.00
H1895  H     0.74592   0.83413   0.60145   0.00000  Uiso   1.00
H1896  H     0.88974   0.81748   0.93074   0.00000  Uiso   1.00
H1897  H     0.74224   0.93186   0.54766   0.00000  Uiso   1.00
H1898  H     0.74779   0.90392   0.58616   0.00000  Uiso   1.00
H1899  H     0.66785   0.89935   0.61597   0.00000  Uiso   1.00
H1900  H     0.69295   0.95232   0.61361   0.00000  Uiso   1.00
N1901  N     0.94825   0.75644   0.51557   0.00000  Uiso   1.00
N1902  N     0.78288   0.99766   0.79516   0.00000  Uiso   1.00
N1903  N     0.74828   0.81226   0.57682   0.00000  Uiso   1.00
O1904  O     0.83333   0.83333   0.75000   0.00000  Uiso   1.00
O1905  O     0.82360   0.79060   0.66625   0.00000  Uiso   1.00
O1906  O     0.79354   0.87313   0.83749   0.00000  Uiso   1.00
O1907  O     0.87755   0.84159   0.65877   0.00000  Uiso   1.00
O1908  O     0.83865   0.82802   0.83749   0.00000  Uiso   1.00
O1909  O     0.71603   0.86978   0.54662   0.00000  Uiso   1.00
O1910  O     0.97739   0.81125   0.79888   0.00000  Uiso   1.00
O1911  O     0.92814   0.76967   0.59878   0.00000  Uiso   1.00
O1912  O     0.71096   0.89725   0.98433   0.00000  Uiso   1.00
O1913  O     0.74372   0.90289   0.90425   0.00000  Uiso   1.00
O1914  O     0.83833   0.79970   0.89851   0.00000  Uiso   1.00
O1915  O     0.84515   0.74768   0.77820   0.00000  Uiso   1.00
O1916  O     0.81247   0.92803   0.76767   0.00000  Uiso   1.00
O1917  O     0.74119   0.79917   0.73607   0.00000  Uiso   1.00
O1918  O     0.93452   0.85845   0.71805   0.00000  Uiso   1.00
O1919  O     0.73656   0.85627   0.77820   0.00000  Uiso   1.00
O1920  O     0.92106   0.81944   0.76767   0.00000  Uiso   1.00
O1921  O     0.80467   0.73570   0.73607   0.00000  Uiso   1.00
O1922  O     0.87104   0.92193   0.71805   0.00000  Uiso   1.00
Zn1923 Zn    0.85910   0.80756   0.78277   0.00000  Uiso   1.00
Zn1924 Zn    0.80125   0.79044   0.72257   0.00000  Uiso   1.00
Zn1925 Zn    0.87833   0.86331   0.71188   0.00000  Uiso   1.00
Zn1926 Zn    0.79465   0.87202   0.78277   0.00000  Uiso   1.00
loop_
_geom_bond_atom_site_label_1
_geom_bond_atom_site_label_2
_geom_bond_distance
_geom_bond_site_symmetry_2
_ccdc_geom_bond_type
C1     C11     1.444   .     S
C1     O100    1.267   .     A
C1     O98     1.272   .     A
C2     C3      1.382   .     A
C2     H77     1.077   .     S
C2     C37     1.412   .     A
C3     H74     1.083   .     S
C3     C968    1.394   .     S
C4     O99     1.287   .     A
C4     O101    1.271   .     A
C4     C10     1.457   .     S
C5     C7      1.412   .     A
C5     C6      1.422   .     A
C5     C966    1.394   1_554 S
C6     C9      1.403   .     A
C6     C38     1.431   .     A
C7     C8      1.406   .     A
C7     N82     1.436   .     S
C8     C20     1.405   .     A
C8     O92     1.384   .     S
C9     C20     1.389   .     A
C9     H63     1.076   .     S
C10    C118    1.347   .     S
C10    H148    1.088   .     S
C11    C224    1.347   1_455 S
C11    O305    1.400   1_455 S
C12    O94     1.382   .     S
C12    C21     1.413   .     A
C12    C19     1.411   .     A
C13    C16     1.451   .     S
C13    C335    1.342   .     S
C13    H373    1.088   .     S
C14    C15     1.429   .     S
C14    C655    1.342   1_545 S
C14    N725    1.436   1_545 S
C15    O96     1.275   .     A
C15    O102    1.277   .     A
C16    O103    1.274   .     A
C16    O97     1.265   .     A
C17    O88     1.277   .     A
C17    C20     1.456   .     S
C17    O86     1.282   .     A
C18    C19     1.489   .     S
C18    O89     1.283   .     A
C18    O87     1.285   .     A
C19    C23     1.410   .     A
C21    C36     1.419   .     A
C21    O93     1.385   .     S
C22    H79     1.114   .     S
C22    H78     1.114   .     S
C22    O90     1.414   .     S
C22    C24     1.521   .     S
C23    C34     1.414   .     A
C23    O95     1.386   .     S
C24    H80     1.110   .     S
C24    H81     1.110   .     S
C24    H256    1.109   1_455 S
C25    O91     1.414   .     S
C25    C26     1.520   .     S
C25    H152    1.113   .     S
C25    H153    1.114   .     S
C26    H48     1.110   .     S
C26    H49     1.110   .     S
C26    H47     1.110   .     S
C27    H54     1.109   .     S
C27    O92     1.415   .     S
C27    H53     1.114   .     S
C27    C28     1.520   .     S
C28    H57     1.110   .     S
C28    H55     1.111   .     S
C28    H163    1.110   .     S
C29    H59     1.112   .     S
C29    O93     1.415   .     S
C29    H58     1.116   .     S
C29    C1207   1.521   1_455 S
C30    H60     1.111   .     S
C30    H62     1.110   .     S
C30    C1099   1.521   1_554 S
C30    H1024   1.109   1_554 S
C31    C32     1.521   .     S
C31    H65     1.115   .     S
C31    H64     1.113   .     S
C31    O94     1.411   .     S
C32    H68     1.111   .     S
C32    H67     1.110   .     S
C32    H387    1.110   .     S
C33    O95     1.413   .     S
C33    H70     1.114   .     S
C33    H69     1.114   .     S
C33    C35     1.520   .     S
C34    C37     1.424   .     A
C34    C36     1.416   .     A
C35    H71     1.111   .     S
C35    H72     1.109   .     S
C35    H73     1.110   .     S
C36    C1003   1.413   .     S
C37    C1001   1.419   .     S
C38    C39     1.425   .     A
C38    C1000   1.419   1_554 S
C39    C40     1.404   .     A
C39    N84     1.439   .     S
C40    O90     1.384   .     S
C40    C999    1.413   1_554 S
H41    C224    1.088   1_455 S
H42    C131    1.109   .     S
H43    N82     1.043   .     S
H44    N82     1.045   .     S
H45    C239    1.113   1_455 S
H46    C239    1.114   1_455 S
H50    N725    1.046   1_545 S
H51    N725    1.045   1_545 S
H52    C655    1.088   1_545 S
H56    C242    1.110   1_455 S
H61    C993    1.109   .     S
H66    C674    1.110   1_545 S
H75    N84     1.045   .     S
H76    N84     1.044   .     S
N83    C335    1.436   .     S
N83    H372    1.045   .     S
N83    H371    1.046   .     S
O85    Zn105   1.955   .     S
O85    Zn104   1.955   .     S
O85    Zn106   1.939   .     S
O85    Zn107   1.928   .     S
O86    Zn105   1.929   .     S
O87    Zn107   1.939   .     S
O88    Zn106   1.937   .     S
O89    Zn104   1.926   .     S
O91    C118    1.400   .     S
O96    Zn104   1.936   .     S
O97    Zn107   1.937   .     S
O98    Zn105   1.926   .     S
O99    Zn106   1.938   .     S
O100   Zn107   1.940   .     S
O101   Zn104   1.929   .     S
O102   Zn105   1.936   .     S
O103   Zn106   1.931   .     S
C108   C118    1.444   .     S
C108   O207    1.267   .     A
C108   O205    1.272   .     A
C109   C110    1.382   .     A
C109   H184    1.077   .     S
C109   C144    1.412   .     A
C110   H181    1.083   .     S
C110   C1075   1.394   .     S
C111   O206    1.287   .     A
C111   O208    1.271   .     A
C111   C117    1.457   .     S
C112   C114    1.412   .     A
C112   C113    1.422   .     A
C112   C1073   1.394   1_554 S
C113   C116    1.403   .     A
C113   C145    1.431   .     A
C114   C115    1.406   .     A
C114   N189    1.436   .     S
C115   C127    1.405   .     A
C115   O199    1.384   .     S
C116   C127    1.389   .     A
C116   H170    1.076   .     S
C117   C225    1.347   .     S
C117   H255    1.088   .     S
C119   O201    1.382   .     S
C119   C128    1.413   .     A
C119   C126    1.411   .     A
C120   C123    1.451   .     S
C120   C442    1.342   .     S
C120   H480    1.088   .     S
C121   C122    1.429   .     S
C121   C762    1.342   1_545 S
C121   N832    1.436   1_545 S
C122   O203    1.275   .     A
C122   O209    1.277   .     A
C123   O210    1.274   .     A
C123   O204    1.265   .     A
C124   O195    1.277   .     A
C124   C127    1.456   .     S
C124   O193    1.282   .     A
C125   C126    1.489   .     S
C125   O196    1.283   .     A
C125   O194    1.285   .     A
C126   C130    1.410   .     A
C128   C143    1.419   .     A
C128   O200    1.385   .     S
C129   H186    1.114   .     S
C129   H185    1.114   .     S
C129   O197    1.414   .     S
C129   C131    1.521   .     S
C130   C141    1.414   .     A
C130   O202    1.386   .     S
C131   H187    1.110   .     S
C131   H188    1.110   .     S
C132   O198    1.414   .     S
C132   C133    1.520   .     S
C132   H259    1.113   .     S
C132   H260    1.114   .     S
C133   H155    1.110   .     S
C133   H156    1.110   .     S
C133   H154    1.110   .     S
C134   H161    1.109   .     S
C134   O199    1.415   .     S
C134   H160    1.114   .     S
C134   C135    1.520   .     S
C135   H164    1.110   .     S
C135   H162    1.111   .     S
C135   H270    1.110   .     S
C136   H166    1.112   .     S
C136   O200    1.415   .     S
C136   H165    1.116   .     S
C136   C993    1.521   .     S
C137   H167    1.111   .     S
C137   H169    1.110   .     S
C137   C1206   1.521   1_554 S
C137   H1131   1.109   1_554 S
C138   C139    1.521   .     S
C138   H172    1.115   .     S
C138   H171    1.113   .     S
C138   O201    1.411   .     S
C139   H175    1.111   .     S
C139   H174    1.110   .     S
C139   H494    1.110   .     S
C140   O202    1.413   .     S
C140   H177    1.114   .     S
C140   H176    1.114   .     S
C140   C142    1.520   .     S
C141   C144    1.424   .     A
C141   C143    1.416   .     A
C142   H178    1.111   .     S
C142   H179    1.109   .     S
C142   H180    1.110   .     S
C143   C1110   1.413   .     S
C144   C1108   1.419   .     S
C145   C146    1.425   .     A
C145   C1107   1.419   1_554 S
C146   C147    1.404   .     A
C146   N191    1.439   .     S
C147   O197    1.384   .     S
C147   C1106   1.413   1_554 S
H149   C238    1.109   .     S
H150   N189    1.043   .     S
H151   N189    1.045   .     S
H157   N832    1.046   1_545 S
H158   N832    1.045   1_545 S
H159   C762    1.088   1_545 S
H168   C1100   1.109   .     S
H173   C781    1.110   1_545 S
H182   N191    1.045   .     S
H183   N191    1.044   .     S
N190   C442    1.436   .     S
N190   H479    1.045   .     S
N190   H478    1.046   .     S
O192   Zn212   1.955   .     S
O192   Zn211   1.955   .     S
O192   Zn213   1.939   .     S
O192   Zn214   1.928   .     S
O193   Zn212   1.929   .     S
O194   Zn214   1.939   .     S
O195   Zn213   1.937   .     S
O196   Zn211   1.926   .     S
O198   C225    1.400   .     S
O203   Zn211   1.936   .     S
O204   Zn214   1.937   .     S
O205   Zn212   1.926   .     S
O206   Zn213   1.938   .     S
O207   Zn214   1.940   .     S
O208   Zn211   1.929   .     S
O209   Zn212   1.936   .     S
O210   Zn213   1.931   .     S
C215   C225    1.444   .     S
C215   O314    1.267   .     A
C215   O312    1.272   .     A
C216   C217    1.382   .     A
C216   H291    1.077   .     S
C216   C251    1.412   .     A
C217   H288    1.083   .     S
C217   C1182   1.394   .     S
C218   O313    1.287   .     A
C218   O315    1.271   .     A
C218   C224    1.457   .     S
C219   C221    1.412   .     A
C219   C220    1.422   .     A
C219   C1180   1.394   1_554 S
C220   C223    1.403   .     A
C220   C252    1.431   .     A
C221   C222    1.406   .     A
C221   N296    1.436   .     S
C222   C234    1.405   .     A
C222   O306    1.384   .     S
C223   C234    1.389   .     A
C223   H277    1.076   .     S
C224   C11     1.347   1_655 S
C224   H41     1.088   1_655 S
C226   O308    1.382   .     S
C226   C235    1.413   .     A
C226   C233    1.411   .     A
C227   C230    1.451   .     S
C227   C549    1.342   .     S
C227   H587    1.088   .     S
C228   C229    1.429   .     S
C228   C869    1.342   1_545 S
C228   N939    1.436   1_545 S
C229   O310    1.275   .     A
C229   O316    1.277   .     A
C230   O317    1.274   .     A
C230   O311    1.265   .     A
C231   O302    1.277   .     A
C231   C234    1.456   .     S
C231   O300    1.282   .     A
C232   C233    1.489   .     S
C232   O303    1.283   .     A
C232   O301    1.285   .     A
C233   C237    1.410   .     A
C235   C250    1.419   .     A
C235   O307    1.385   .     S
C236   H293    1.114   .     S
C236   H292    1.114   .     S
C236   O304    1.414   .     S
C236   C238    1.521   .     S
C237   C248    1.414   .     A
C237   O309    1.386   .     S
C238   H294    1.110   .     S
C238   H295    1.110   .     S
C239   O305    1.414   .     S
C239   C240    1.520   .     S
C239   H45     1.113   1_655 S
C239   H46     1.114   1_655 S
C240   H262    1.110   .     S
C240   H263    1.110   .     S
C240   H261    1.110   .     S
C241   H268    1.109   .     S
C241   O306    1.415   .     S
C241   H267    1.114   .     S
C241   C242    1.520   .     S
C242   H271    1.110   .     S
C242   H269    1.111   .     S
C242   H56     1.110   1_655 S
C243   H273    1.112   .     S
C243   O307    1.415   .     S
C243   H272    1.116   .     S
C243   C1100   1.521   .     S
C244   H274    1.111   .     S
C244   H276    1.110   .     S
C244   C992    1.521   1_654 S
C244   H1238   1.109   1_554 S
C245   C246    1.521   .     S
C245   H279    1.115   .     S
C245   H278    1.113   .     S
C245   O308    1.411   .     S
C246   H282    1.111   .     S
C246   H281    1.110   .     S
C246   H601    1.110   .     S
C247   O309    1.413   .     S
C247   H284    1.114   .     S
C247   H283    1.114   .     S
C247   C249    1.520   .     S
C248   C251    1.424   .     A
C248   C250    1.416   .     A
C249   H285    1.111   .     S
C249   H286    1.109   .     S
C249   H287    1.110   .     S
C250   C1217   1.413   .     S
C251   C1215   1.419   .     S
C252   C253    1.425   .     A
C252   C1214   1.419   1_554 S
C253   C254    1.404   .     A
C253   N298    1.439   .     S
C254   O304    1.384   .     S
C254   C1213   1.413   1_554 S
H256   C24     1.109   1_655 S
H257   N296    1.043   .     S
H258   N296    1.045   .     S
H264   N939    1.046   1_545 S
H265   N939    1.045   1_545 S
H266   C869    1.088   1_545 S
H275   C1207   1.109   .     S
H280   C888    1.110   1_545 S
H289   N298    1.045   .     S
H290   N298    1.044   .     S
N297   C549    1.436   .     S
N297   H586    1.045   .     S
N297   H585    1.046   .     S
O299   Zn319   1.955   .     S
O299   Zn318   1.955   .     S
O299   Zn320   1.939   .     S
O299   Zn321   1.928   .     S
O300   Zn319   1.929   .     S
O301   Zn321   1.939   .     S
O302   Zn320   1.937   .     S
O303   Zn318   1.926   .     S
O305   C11     1.400   1_655 S
O310   Zn318   1.936   .     S
O311   Zn321   1.937   .     S
O312   Zn319   1.926   .     S
O313   Zn320   1.938   .     S
O314   Zn321   1.940   .     S
O315   Zn318   1.929   .     S
O316   Zn319   1.936   .     S
O317   Zn320   1.931   .     S
C322   C332    1.444   .     S
C322   O421    1.267   .     A
C322   O419    1.272   .     A
C323   C324    1.382   .     A
C323   H398    1.077   .     S
C323   C358    1.412   .     A
C324   H395    1.083   .     S
C324   C1289   1.394   .     S
C325   O420    1.287   .     A
C325   O422    1.271   .     A
C325   C331    1.457   .     S
C326   C328    1.412   .     A
C326   C327    1.422   .     A
C326   C1287   1.394   1_554 S
C327   C330    1.403   .     A
C327   C359    1.431   .     A
C328   C329    1.406   .     A
C328   N403    1.436   .     S
C329   C341    1.405   .     A
C329   O413    1.384   .     S
C330   C341    1.389   .     A
C330   H384    1.076   .     S
C331   C439    1.347   .     S
C331   H469    1.088   .     S
C332   C545    1.347   1_455 S
C332   O626    1.400   1_455 S
C333   O415    1.382   .     S
C333   C342    1.413   .     A
C333   C340    1.411   .     A
C334   C337    1.451   .     S
C334   C656    1.342   .     S
C334   H694    1.088   .     S
C335   C336    1.429   .     S
C336   O417    1.275   .     A
C336   O423    1.277   .     A
C337   O424    1.274   .     A
C337   O418    1.265   .     A
C338   O409    1.277   .     A
C338   C341    1.456   .     S
C338   O407    1.282   .     A
C339   C340    1.489   .     S
C339   O410    1.283   .     A
C339   O408    1.285   .     A
C340   C344    1.410   .     A
C342   C357    1.419   .     A
C342   O414    1.385   .     S
C343   H400    1.114   .     S
C343   H399    1.114   .     S
C343   O411    1.414   .     S
C343   C345    1.521   .     S
C344   C355    1.414   .     A
C344   O416    1.386   .     S
C345   H401    1.110   .     S
C345   H402    1.110   .     S
C345   H577    1.109   1_455 S
C346   O412    1.414   .     S
C346   C347    1.520   .     S
C346   H473    1.113   .     S
C346   H474    1.114   .     S
C347   H369    1.110   .     S
C347   H370    1.110   .     S
C347   H368    1.110   .     S
C348   H375    1.109   .     S
C348   O413    1.415   .     S
C348   H374    1.114   .     S
C348   C349    1.520   .     S
C349   H378    1.110   .     S
C349   H376    1.111   .     S
C349   H484    1.110   .     S
C350   H380    1.112   .     S
C350   O414    1.415   .     S
C350   H379    1.116   .     S
C350   C1528   1.521   1_455 S
C351   H381    1.111   .     S
C351   H383    1.110   .     S
C351   C1420   1.521   1_554 S
C351   H1345   1.109   1_554 S
C352   C353    1.521   .     S
C352   H386    1.115   .     S
C352   H385    1.113   .     S
C352   O415    1.411   .     S
C353   H389    1.111   .     S
C353   H388    1.110   .     S
C353   H708    1.110   .     S
C354   O416    1.413   .     S
C354   H391    1.114   .     S
C354   H390    1.114   .     S
C354   C356    1.520   .     S
C355   C358    1.424   .     A
C355   C357    1.416   .     A
C356   H392    1.111   .     S
C356   H393    1.109   .     S
C356   H394    1.110   .     S
C357   C1324   1.413   .     S
C358   C1322   1.419   .     S
C359   C360    1.425   .     A
C359   C1321   1.419   1_554 S
C360   C361    1.404   .     A
C360   N405    1.439   .     S
C361   O411    1.384   .     S
C361   C1320   1.413   1_554 S
H362   C545    1.088   1_455 S
H363   C452    1.109   .     S
H364   N403    1.043   .     S
H365   N403    1.045   .     S
H366   C560    1.113   1_455 S
H367   C560    1.114   1_455 S
H377   C563    1.110   1_455 S
H382   C1314   1.109   .     S
H396   N405    1.045   .     S
H397   N405    1.044   .     S
N404   C656    1.436   .     S
N404   H693    1.045   .     S
N404   H692    1.046   .     S
O406   Zn426   1.955   .     S
O406   Zn425   1.955   .     S
O406   Zn427   1.939   .     S
O406   Zn428   1.928   .     S
O407   Zn426   1.929   .     S
O408   Zn428   1.939   .     S
O409   Zn427   1.937   .     S
O410   Zn425   1.926   .     S
O412   C439    1.400   .     S
O417   Zn425   1.936   .     S
O418   Zn428   1.937   .     S
O419   Zn426   1.926   .     S
O420   Zn427   1.938   .     S
O421   Zn428   1.940   .     S
O422   Zn425   1.929   .     S
O423   Zn426   1.936   .     S
O424   Zn427   1.931   .     S
C429   C439    1.444   .     S
C429   O528    1.267   .     A
C429   O526    1.272   .     A
C430   C431    1.382   .     A
C430   H505    1.077   .     S
C430   C465    1.412   .     A
C431   H502    1.083   .     S
C431   C1396   1.394   .     S
C432   O527    1.287   .     A
C432   O529    1.271   .     A
C432   C438    1.457   .     S
C433   C435    1.412   .     A
C433   C434    1.422   .     A
C433   C1394   1.394   1_554 S
C434   C437    1.403   .     A
C434   C466    1.431   .     A
C435   C436    1.406   .     A
C435   N510    1.436   .     S
C436   C448    1.405   .     A
C436   O520    1.384   .     S
C437   C448    1.389   .     A
C437   H491    1.076   .     S
C438   C546    1.347   .     S
C438   H576    1.088   .     S
C440   O522    1.382   .     S
C440   C449    1.413   .     A
C440   C447    1.411   .     A
C441   C444    1.451   .     S
C441   C763    1.342   .     S
C441   H801    1.088   .     S
C442   C443    1.429   .     S
C443   O524    1.275   .     A
C443   O530    1.277   .     A
C444   O531    1.274   .     A
C444   O525    1.265   .     A
C445   O516    1.277   .     A
C445   C448    1.456   .     S
C445   O514    1.282   .     A
C446   C447    1.489   .     S
C446   O517    1.283   .     A
C446   O515    1.285   .     A
C447   C451    1.410   .     A
C449   C464    1.419   .     A
C449   O521    1.385   .     S
C450   H507    1.114   .     S
C450   H506    1.114   .     S
C450   O518    1.414   .     S
C450   C452    1.521   .     S
C451   C462    1.414   .     A
C451   O523    1.386   .     S
C452   H508    1.110   .     S
C452   H509    1.110   .     S
C453   O519    1.414   .     S
C453   C454    1.520   .     S
C453   H580    1.113   .     S
C453   H581    1.114   .     S
C454   H476    1.110   .     S
C454   H477    1.110   .     S
C454   H475    1.110   .     S
C455   H482    1.109   .     S
C455   O520    1.415   .     S
C455   H481    1.114   .     S
C455   C456    1.520   .     S
C456   H485    1.110   .     S
C456   H483    1.111   .     S
C456   H591    1.110   .     S
C457   H487    1.112   .     S
C457   O521    1.415   .     S
C457   H486    1.116   .     S
C457   C1314   1.521   .     S
C458   H488    1.111   .     S
C458   H490    1.110   .     S
C458   C1527   1.521   1_554 S
C458   H1452   1.109   1_554 S
C459   C460    1.521   .     S
C459   H493    1.115   .     S
C459   H492    1.113   .     S
C459   O522    1.411   .     S
C460   H496    1.111   .     S
C460   H495    1.110   .     S
C460   H815    1.110   .     S
C461   O523    1.413   .     S
C461   H498    1.114   .     S
C461   H497    1.114   .     S
C461   C463    1.520   .     S
C462   C465    1.424   .     A
C462   C464    1.416   .     A
C463   H499    1.111   .     S
C463   H500    1.109   .     S
C463   H501    1.110   .     S
C464   C1431   1.413   .     S
C465   C1429   1.419   .     S
C466   C467    1.425   .     A
C466   C1428   1.419   1_554 S
C467   C468    1.404   .     A
C467   N512    1.439   .     S
C468   O518    1.384   .     S
C468   C1427   1.413   1_554 S
H470   C559    1.109   .     S
H471   N510    1.043   .     S
H472   N510    1.045   .     S
H489   C1421   1.109   .     S
H503   N512    1.045   .     S
H504   N512    1.044   .     S
N511   C763    1.436   .     S
N511   H800    1.045   .     S
N511   H799    1.046   .     S
O513   Zn533   1.955   .     S
O513   Zn532   1.955   .     S
O513   Zn534   1.939   .     S
O513   Zn535   1.928   .     S
O514   Zn533   1.929   .     S
O515   Zn535   1.939   .     S
O516   Zn534   1.937   .     S
O517   Zn532   1.926   .     S
O519   C546    1.400   .     S
O524   Zn532   1.936   .     S
O525   Zn535   1.937   .     S
O526   Zn533   1.926   .     S
O527   Zn534   1.938   .     S
O528   Zn535   1.940   .     S
O529   Zn532   1.929   .     S
O530   Zn533   1.936   .     S
O531   Zn534   1.931   .     S
C536   C546    1.444   .     S
C536   O635    1.267   .     A
C536   O633    1.272   .     A
C537   C538    1.382   .     A
C537   H612    1.077   .     S
C537   C572    1.412   .     A
C538   H609    1.083   .     S
C538   C1503   1.394   .     S
C539   O634    1.287   .     A
C539   O636    1.271   .     A
C539   C545    1.457   .     S
C540   C542    1.412   .     A
C540   C541    1.422   .     A
C540   C1501   1.394   1_554 S
C541   C544    1.403   .     A
C541   C573    1.431   .     A
C542   C543    1.406   .     A
C542   N617    1.436   .     S
C543   C555    1.405   .     A
C543   O627    1.384   .     S
C544   C555    1.389   .     A
C544   H598    1.076   .     S
C545   C332    1.347   1_655 S
C545   H362    1.088   1_655 S
C547   O629    1.382   .     S
C547   C556    1.413   .     A
C547   C554    1.411   .     A
C548   C551    1.451   .     S
C548   C870    1.342   .     S
C548   H908    1.088   .     S
C549   C550    1.429   .     S
C550   O631    1.275   .     A
C550   O637    1.277   .     A
C551   O638    1.274   .     A
C551   O632    1.265   .     A
C552   O623    1.277   .     A
C552   C555    1.456   .     S
C552   O621    1.282   .     A
C553   C554    1.489   .     S
C553   O624    1.283   .     A
C553   O622    1.285   .     A
C554   C558    1.410   .     A
C556   C571    1.419   .     A
C556   O628    1.385   .     S
C557   H614    1.114   .     S
C557   H613    1.114   .     S
C557   O625    1.414   .     S
C557   C559    1.521   .     S
C558   C569    1.414   .     A
C558   O630    1.386   .     S
C559   H615    1.110   .     S
C559   H616    1.110   .     S
C560   O626    1.414   .     S
C560   C561    1.520   .     S
C560   H366    1.113   1_655 S
C560   H367    1.114   1_655 S
C561   H583    1.110   .     S
C561   H584    1.110   .     S
C561   H582    1.110   .     S
C562   H589    1.109   .     S
C562   O627    1.415   .     S
C562   H588    1.114   .     S
C562   C563    1.520   .     S
C563   H592    1.110   .     S
C563   H590    1.111   .     S
C563   H377    1.110   1_655 S
C564   H594    1.112   .     S
C564   O628    1.415   .     S
C564   H593    1.116   .     S
C564   C1421   1.521   .     S
C565   H595    1.111   .     S
C565   H597    1.110   .     S
C565   C1313   1.521   1_654 S
C565   H1559   1.109   1_554 S
C566   C567    1.521   .     S
C566   H600    1.115   .     S
C566   H599    1.113   .     S
C566   O629    1.411   .     S
C567   H603    1.111   .     S
C567   H602    1.110   .     S
C567   H922    1.110   .     S
C568   O630    1.413   .     S
C568   H605    1.114   .     S
C568   H604    1.114   .     S
C568   C570    1.520   .     S
C569   C572    1.424   .     A
C569   C571    1.416   .     A
C570   H606    1.111   .     S
C570   H607    1.109   .     S
C570   H608    1.110   .     S
C571   C1538   1.413   .     S
C572   C1536   1.419   .     S
C573   C574    1.425   .     A
C573   C1535   1.419   1_554 S
C574   C575    1.404   .     A
C574   N619    1.439   .     S
C575   O625    1.384   .     S
C575   C1534   1.413   1_554 S
H577   C345    1.109   1_655 S
H578   N617    1.043   .     S
H579   N617    1.045   .     S
H596   C1528   1.109   .     S
H610   N619    1.045   .     S
H611   N619    1.044   .     S
N618   C870    1.436   .     S
N618   H907    1.045   .     S
N618   H906    1.046   .     S
O620   Zn640   1.955   .     S
O620   Zn639   1.955   .     S
O620   Zn641   1.939   .     S
O620   Zn642   1.928   .     S
O621   Zn640   1.929   .     S
O622   Zn642   1.939   .     S
O623   Zn641   1.937   .     S
O624   Zn639   1.926   .     S
O626   C332    1.400   1_655 S
O631   Zn639   1.936   .     S
O632   Zn642   1.937   .     S
O633   Zn640   1.926   .     S
O634   Zn641   1.938   .     S
O635   Zn642   1.940   .     S
O636   Zn639   1.929   .     S
O637   Zn640   1.936   .     S
O638   Zn641   1.931   .     S
C643   C653    1.444   .     S
C643   O742    1.267   .     A
C643   O740    1.272   .     A
C644   C645    1.382   .     A
C644   H719    1.077   .     S
C644   C679    1.412   .     A
C645   H716    1.083   .     S
C645   C1610   1.394   .     S
C646   O741    1.287   .     A
C646   O743    1.271   .     A
C646   C652    1.457   .     S
C647   C649    1.412   .     A
C647   C648    1.422   .     A
C647   C1608   1.394   1_554 S
C648   C651    1.403   .     A
C648   C680    1.431   .     A
C649   C650    1.406   .     A
C649   N724    1.436   .     S
C650   C662    1.405   .     A
C650   O734    1.384   .     S
C651   C662    1.389   .     A
C651   H705    1.076   .     S
C652   C760    1.347   .     S
C652   H790    1.088   .     S
C653   C866    1.347   1_455 S
C653   O947    1.400   1_455 S
C654   O736    1.382   .     S
C654   C663    1.413   .     A
C654   C661    1.411   .     A
C655   C658    1.451   .     S
C655   C14     1.342   1_565 S
C655   H52     1.088   1_565 S
C656   C657    1.429   .     S
C657   O738    1.275   .     A
C657   O744    1.277   .     A
C658   O745    1.274   .     A
C658   O739    1.265   .     A
C659   O730    1.277   .     A
C659   C662    1.456   .     S
C659   O728    1.282   .     A
C660   C661    1.489   .     S
C660   O731    1.283   .     A
C660   O729    1.285   .     A
C661   C665    1.410   .     A
C663   C678    1.419   .     A
C663   O735    1.385   .     S
C664   H721    1.114   .     S
C664   H720    1.114   .     S
C664   O732    1.414   .     S
C664   C666    1.521   .     S
C665   C676    1.414   .     A
C665   O737    1.386   .     S
C666   H722    1.110   .     S
C666   H723    1.110   .     S
C666   H898    1.109   1_455 S
C667   O733    1.414   .     S
C667   C668    1.520   .     S
C667   H794    1.113   .     S
C667   H795    1.114   .     S
C668   H690    1.110   .     S
C668   H691    1.110   .     S
C668   H689    1.110   .     S
C669   H696    1.109   .     S
C669   O734    1.415   .     S
C669   H695    1.114   .     S
C669   C670    1.520   .     S
C670   H699    1.110   .     S
C670   H697    1.111   .     S
C670   H805    1.110   .     S
C671   H701    1.112   .     S
C671   O735    1.415   .     S
C671   H700    1.116   .     S
C671   C1849   1.521   1_455 S
C672   H702    1.111   .     S
C672   H704    1.110   .     S
C672   C1741   1.521   1_554 S
C672   H1666   1.109   1_554 S
C673   C674    1.521   .     S
C673   H707    1.115   .     S
C673   H706    1.113   .     S
C673   O736    1.411   .     S
C674   H710    1.111   .     S
C674   H709    1.110   .     S
C674   H66     1.110   1_565 S
C675   O737    1.413   .     S
C675   H712    1.114   .     S
C675   H711    1.114   .     S
C675   C677    1.520   .     S
C676   C679    1.424   .     A
C676   C678    1.416   .     A
C677   H713    1.111   .     S
C677   H714    1.109   .     S
C677   H715    1.110   .     S
C678   C1645   1.413   .     S
C679   C1643   1.419   .     S
C680   C681    1.425   .     A
C680   C1642   1.419   1_554 S
C681   C682    1.404   .     A
C681   N726    1.439   .     S
C682   O732    1.384   .     S
C682   C1641   1.413   1_554 S
H683   C866    1.088   1_455 S
H684   C773    1.109   .     S
H685   N724    1.043   .     S
H686   N724    1.045   .     S
H687   C881    1.113   1_455 S
H688   C881    1.114   1_455 S
H698   C884    1.110   1_455 S
H703   C1635   1.109   .     S
H717   N726    1.045   .     S
H718   N726    1.044   .     S
N725   C14     1.436   1_565 S
N725   H51     1.045   1_565 S
N725   H50     1.046   1_565 S
O727   Zn747   1.955   .     S
O727   Zn746   1.955   .     S
O727   Zn748   1.939   .     S
O727   Zn749   1.928   .     S
O728   Zn747   1.929   .     S
O729   Zn749   1.939   .     S
O730   Zn748   1.937   .     S
O731   Zn746   1.926   .     S
O733   C760    1.400   .     S
O738   Zn746   1.936   .     S
O739   Zn749   1.937   .     S
O740   Zn747   1.926   .     S
O741   Zn748   1.938   .     S
O742   Zn749   1.940   .     S
O743   Zn746   1.929   .     S
O744   Zn747   1.936   .     S
O745   Zn748   1.931   .     S
C750   C760    1.444   .     S
C750   O849    1.267   .     A
C750   O847    1.272   .     A
C751   C752    1.382   .     A
C751   H826    1.077   .     S
C751   C786    1.412   .     A
C752   H823    1.083   .     S
C752   C1717   1.394   .     S
C753   O848    1.287   .     A
C753   O850    1.271   .     A
C753   C759    1.457   .     S
C754   C756    1.412   .     A
C754   C755    1.422   .     A
C754   C1715   1.394   1_554 S
C755   C758    1.403   .     A
C755   C787    1.431   .     A
C756   C757    1.406   .     A
C756   N831    1.436   .     S
C757   C769    1.405   .     A
C757   O841    1.384   .     S
C758   C769    1.389   .     A
C758   H812    1.076   .     S
C759   C867    1.347   .     S
C759   H897    1.088   .     S
C761   O843    1.382   .     S
C761   C770    1.413   .     A
C761   C768    1.411   .     A
C762   C765    1.451   .     S
C762   C121    1.342   1_565 S
C762   H159    1.088   1_565 S
C763   C764    1.429   .     S
C764   O845    1.275   .     A
C764   O851    1.277   .     A
C765   O852    1.274   .     A
C765   O846    1.265   .     A
C766   O837    1.277   .     A
C766   C769    1.456   .     S
C766   O835    1.282   .     A
C767   C768    1.489   .     S
C767   O838    1.283   .     A
C767   O836    1.285   .     A
C768   C772    1.410   .     A
C770   C785    1.419   .     A
C770   O842    1.385   .     S
C771   H828    1.114   .     S
C771   H827    1.114   .     S
C771   O839    1.414   .     S
C771   C773    1.521   .     S
C772   C783    1.414   .     A
C772   O844    1.386   .     S
C773   H829    1.110   .     S
C773   H830    1.110   .     S
C774   O840    1.414   .     S
C774   C775    1.520   .     S
C774   H901    1.113   .     S
C774   H902    1.114   .     S
C775   H797    1.110   .     S
C775   H798    1.110   .     S
C775   H796    1.110   .     S
C776   H803    1.109   .     S
C776   O841    1.415   .     S
C776   H802    1.114   .     S
C776   C777    1.520   .     S
C777   H806    1.110   .     S
C777   H804    1.111   .     S
C777   H912    1.110   .     S
C778   H808    1.112   .     S
C778   O842    1.415   .     S
C778   H807    1.116   .     S
C778   C1635   1.521   .     S
C779   H809    1.111   .     S
C779   H811    1.110   .     S
C779   C1848   1.521   1_554 S
C779   H1773   1.109   1_554 S
C780   C781    1.521   .     S
C780   H814    1.115   .     S
C780   H813    1.113   .     S
C780   O843    1.411   .     S
C781   H817    1.111   .     S
C781   H816    1.110   .     S
C781   H173    1.110   1_565 S
C782   O844    1.413   .     S
C782   H819    1.114   .     S
C782   H818    1.114   .     S
C782   C784    1.520   .     S
C783   C786    1.424   .     A
C783   C785    1.416   .     A
C784   H820    1.111   .     S
C784   H821    1.109   .     S
C784   H822    1.110   .     S
C785   C1752   1.413   .     S
C786   C1750   1.419   .     S
C787   C788    1.425   .     A
C787   C1749   1.419   1_554 S
C788   C789    1.404   .     A
C788   N833    1.439   .     S
C789   O839    1.384   .     S
C789   C1748   1.413   1_554 S
H791   C880    1.109   .     S
H792   N831    1.043   .     S
H793   N831    1.045   .     S
H810   C1742   1.109   .     S
H824   N833    1.045   .     S
H825   N833    1.044   .     S
N832   C121    1.436   1_565 S
N832   H158    1.045   1_565 S
N832   H157    1.046   1_565 S
O834   Zn854   1.955   .     S
O834   Zn853   1.955   .     S
O834   Zn855   1.939   .     S
O834   Zn856   1.928   .     S
O835   Zn854   1.929   .     S
O836   Zn856   1.939   .     S
O837   Zn855   1.937   .     S
O838   Zn853   1.926   .     S
O840   C867    1.400   .     S
O845   Zn853   1.936   .     S
O846   Zn856   1.937   .     S
O847   Zn854   1.926   .     S
O848   Zn855   1.938   .     S
O849   Zn856   1.940   .     S
O850   Zn853   1.929   .     S
O851   Zn854   1.936   .     S
O852   Zn855   1.931   .     S
C857   C867    1.444   .     S
C857   O956    1.267   .     A
C857   O954    1.272   .     A
C858   C859    1.382   .     A
C858   H933    1.077   .     S
C858   C893    1.412   .     A
C859   H930    1.083   .     S
C859   C1824   1.394   .     S
C860   O955    1.287   .     A
C860   O957    1.271   .     A
C860   C866    1.457   .     S
C861   C863    1.412   .     A
C861   C862    1.422   .     A
C861   C1822   1.394   1_554 S
C862   C865    1.403   .     A
C862   C894    1.431   .     A
C863   C864    1.406   .     A
C863   N938    1.436   .     S
C864   C876    1.405   .     A
C864   O948    1.384   .     S
C865   C876    1.389   .     A
C865   H919    1.076   .     S
C866   C653    1.347   1_655 S
C866   H683    1.088   1_655 S
C868   O950    1.382   .     S
C868   C877    1.413   .     A
C868   C875    1.411   .     A
C869   C872    1.451   .     S
C869   C228    1.342   1_565 S
C869   H266    1.088   1_565 S
C870   C871    1.429   .     S
C871   O952    1.275   .     A
C871   O958    1.277   .     A
C872   O959    1.274   .     A
C872   O953    1.265   .     A
C873   O944    1.277   .     A
C873   C876    1.456   .     S
C873   O942    1.282   .     A
C874   C875    1.489   .     S
C874   O945    1.283   .     A
C874   O943    1.285   .     A
C875   C879    1.410   .     A
C877   C892    1.419   .     A
C877   O949    1.385   .     S
C878   H935    1.114   .     S
C878   H934    1.114   .     S
C878   O946    1.414   .     S
C878   C880    1.521   .     S
C879   C890    1.414   .     A
C879   O951    1.386   .     S
C880   H936    1.110   .     S
C880   H937    1.110   .     S
C881   O947    1.414   .     S
C881   C882    1.520   .     S
C881   H687    1.113   1_655 S
C881   H688    1.114   1_655 S
C882   H904    1.110   .     S
C882   H905    1.110   .     S
C882   H903    1.110   .     S
C883   H910    1.109   .     S
C883   O948    1.415   .     S
C883   H909    1.114   .     S
C883   C884    1.520   .     S
C884   H913    1.110   .     S
C884   H911    1.111   .     S
C884   H698    1.110   1_655 S
C885   H915    1.112   .     S
C885   O949    1.415   .     S
C885   H914    1.116   .     S
C885   C1742   1.521   .     S
C886   H916    1.111   .     S
C886   H918    1.110   .     S
C886   C1634   1.521   1_654 S
C886   H1880   1.109   1_554 S
C887   C888    1.521   .     S
C887   H921    1.115   .     S
C887   H920    1.113   .     S
C887   O950    1.411   .     S
C888   H924    1.111   .     S
C888   H923    1.110   .     S
C888   H280    1.110   1_565 S
C889   O951    1.413   .     S
C889   H926    1.114   .     S
C889   H925    1.114   .     S
C889   C891    1.520   .     S
C890   C893    1.424   .     A
C890   C892    1.416   .     A
C891   H927    1.111   .     S
C891   H928    1.109   .     S
C891   H929    1.110   .     S
C892   C1859   1.413   .     S
C893   C1857   1.419   .     S
C894   C895    1.425   .     A
C894   C1856   1.419   1_554 S
C895   C896    1.404   .     A
C895   N940    1.439   .     S
C896   O946    1.384   .     S
C896   C1855   1.413   1_554 S
H898   C666    1.109   1_655 S
H899   N938    1.043   .     S
H900   N938    1.045   .     S
H917   C1849   1.109   .     S
H931   N940    1.045   .     S
H932   N940    1.044   .     S
N939   C228    1.436   1_565 S
N939   H265    1.045   1_565 S
N939   H264    1.046   1_565 S
O941   Zn961   1.955   .     S
O941   Zn960   1.955   .     S
O941   Zn962   1.939   .     S
O941   Zn963   1.928   .     S
O942   Zn961   1.929   .     S
O943   Zn963   1.939   .     S
O944   Zn962   1.937   .     S
O945   Zn960   1.926   .     S
O947   C653    1.400   1_655 S
O952   Zn960   1.936   .     S
O953   Zn963   1.937   .     S
O954   Zn961   1.926   .     S
O955   Zn962   1.938   .     S
O956   Zn963   1.940   .     S
O957   Zn960   1.929   .     S
O958   Zn961   1.936   .     S
O959   Zn962   1.931   .     S
C964   C974    1.444   .     S
C964   O1063   1.267   .     A
C964   O1061   1.272   .     A
C965   C966    1.382   .     A
C965   H1040   1.077   .     S
C965   C1000   1.412   .     A
C966   H1037   1.083   .     S
C966   C5      1.394   1_556 S
C967   O1062   1.287   .     A
C967   O1064   1.271   .     A
C967   C973    1.457   .     S
C968   C970    1.412   .     A
C968   C969    1.422   .     A
C969   C972    1.403   .     A
C969   C1001   1.431   .     A
C970   C971    1.406   .     A
C970   N1045   1.436   .     S
C971   C983    1.405   .     A
C971   O1055   1.384   .     S
C972   C983    1.389   .     A
C972   H1026   1.076   .     S
C973   C1081   1.347   .     S
C973   H1111   1.088   .     S
C974   C1187   1.347   1_455 S
C974   O1268   1.400   1_455 S
C975   O1057   1.382   .     S
C975   C984    1.413   .     A
C975   C982    1.411   .     A
C976   C979    1.451   .     S
C976   C1298   1.342   .     S
C976   H1336   1.088   .     S
C977   C978    1.429   .     S
C977   C1618   1.342   1_545 S
C977   N1688   1.436   1_545 S
C978   O1059   1.275   .     A
C978   O1065   1.277   .     A
C979   O1066   1.274   .     A
C979   O1060   1.265   .     A
C980   O1051   1.277   .     A
C980   C983    1.456   .     S
C980   O1049   1.282   .     A
C981   C982    1.489   .     S
C981   O1052   1.283   .     A
C981   O1050   1.285   .     A
C982   C986    1.410   .     A
C984   C999    1.419   .     A
C984   O1056   1.385   .     S
C985   H1042   1.114   .     S
C985   H1041   1.114   .     S
C985   O1053   1.414   .     S
C985   C987    1.521   .     S
C986   C997    1.414   .     A
C986   O1058   1.386   .     S
C987   H1043   1.110   .     S
C987   H1044   1.110   .     S
C987   H1219   1.109   1_455 S
C988   O1054   1.414   .     S
C988   C989    1.520   .     S
C988   H1115   1.113   .     S
C988   H1116   1.114   .     S
C989   H1011   1.110   .     S
C989   H1012   1.110   .     S
C989   H1010   1.110   .     S
C990   H1017   1.109   .     S
C990   O1055   1.415   .     S
C990   H1016   1.114   .     S
C990   C991    1.520   .     S
C991   H1020   1.110   .     S
C991   H1018   1.111   .     S
C991   H1126   1.110   .     S
C992   H1022   1.112   .     S
C992   O1056   1.415   .     S
C992   H1021   1.116   .     S
C992   C244    1.521   1_456 S
C993   H1023   1.111   .     S
C993   H1025   1.110   .     S
C994   C995    1.521   .     S
C994   H1028   1.115   .     S
C994   H1027   1.113   .     S
C994   O1057   1.411   .     S
C995   H1031   1.111   .     S
C995   H1030   1.110   .     S
C995   H1350   1.110   .     S
C996   O1058   1.413   .     S
C996   H1033   1.114   .     S
C996   H1032   1.114   .     S
C996   C998    1.520   .     S
C997   C1000   1.424   .     A
C997   C999    1.416   .     A
C998   H1034   1.111   .     S
C998   H1035   1.109   .     S
C998   H1036   1.110   .     S
C999   C40     1.413   1_556 S
C1000  C38     1.419   1_556 S
C1001  C1002   1.425   .     A
C1002  C1003   1.404   .     A
C1002  N1047   1.439   .     S
C1003  O1053   1.384   .     S
H1004  C1187   1.088   1_455 S
H1005  C1094   1.109   .     S
H1006  N1045   1.043   .     S
H1007  N1045   1.045   .     S
H1008  C1202   1.113   1_455 S
H1009  C1202   1.114   1_455 S
H1013  N1688   1.046   1_545 S
H1014  N1688   1.045   1_545 S
H1015  C1618   1.088   1_545 S
H1019  C1205   1.110   1_455 S
H1024  C30     1.109   1_556 S
H1029  C1637   1.110   1_545 S
H1038  N1047   1.045   .     S
H1039  N1047   1.044   .     S
N1046  C1298   1.436   .     S
N1046  H1335   1.045   .     S
N1046  H1334   1.046   .     S
O1048  Zn1068  1.955   .     S
O1048  Zn1067  1.955   .     S
O1048  Zn1069  1.939   .     S
O1048  Zn1070  1.928   .     S
O1049  Zn1068  1.929   .     S
O1050  Zn1070  1.939   .     S
O1051  Zn1069  1.937   .     S
O1052  Zn1067  1.926   .     S
O1054  C1081   1.400   .     S
O1059  Zn1067  1.936   .     S
O1060  Zn1070  1.937   .     S
O1061  Zn1068  1.926   .     S
O1062  Zn1069  1.938   .     S
O1063  Zn1070  1.940   .     S
O1064  Zn1067  1.929   .     S
O1065  Zn1068  1.936   .     S
O1066  Zn1069  1.931   .     S
C1071  C1081   1.444   .     S
C1071  O1170   1.267   .     A
C1071  O1168   1.272   .     A
C1072  C1073   1.382   .     A
C1072  H1147   1.077   .     S
C1072  C1107   1.412   .     A
C1073  H1144   1.083   .     S
C1073  C112    1.394   1_556 S
C1074  O1169   1.287   .     A
C1074  O1171   1.271   .     A
C1074  C1080   1.457   .     S
C1075  C1077   1.412   .     A
C1075  C1076   1.422   .     A
C1076  C1079   1.403   .     A
C1076  C1108   1.431   .     A
C1077  C1078   1.406   .     A
C1077  N1152   1.436   .     S
C1078  C1090   1.405   .     A
C1078  O1162   1.384   .     S
C1079  C1090   1.389   .     A
C1079  H1133   1.076   .     S
C1080  C1188   1.347   .     S
C1080  H1218   1.088   .     S
C1082  O1164   1.382   .     S
C1082  C1091   1.413   .     A
C1082  C1089   1.411   .     A
C1083  C1086   1.451   .     S
C1083  C1405   1.342   .     S
C1083  H1443   1.088   .     S
C1084  C1085   1.429   .     S
C1084  C1725   1.342   1_545 S
C1084  N1795   1.436   1_545 S
C1085  O1166   1.275   .     A
C1085  O1172   1.277   .     A
C1086  O1173   1.274   .     A
C1086  O1167   1.265   .     A
C1087  O1158   1.277   .     A
C1087  C1090   1.456   .     S
C1087  O1156   1.282   .     A
C1088  C1089   1.489   .     S
C1088  O1159   1.283   .     A
C1088  O1157   1.285   .     A
C1089  C1093   1.410   .     A
C1091  C1106   1.419   .     A
C1091  O1163   1.385   .     S
C1092  H1149   1.114   .     S
C1092  H1148   1.114   .     S
C1092  O1160   1.414   .     S
C1092  C1094   1.521   .     S
C1093  C1104   1.414   .     A
C1093  O1165   1.386   .     S
C1094  H1150   1.110   .     S
C1094  H1151   1.110   .     S
C1095  O1161   1.414   .     S
C1095  C1096   1.520   .     S
C1095  H1222   1.113   .     S
C1095  H1223   1.114   .     S
C1096  H1118   1.110   .     S
C1096  H1119   1.110   .     S
C1096  H1117   1.110   .     S
C1097  H1124   1.109   .     S
C1097  O1162   1.415   .     S
C1097  H1123   1.114   .     S
C1097  C1098   1.520   .     S
C1098  H1127   1.110   .     S
C1098  H1125   1.111   .     S
C1098  H1233   1.110   .     S
C1099  H1129   1.112   .     S
C1099  O1163   1.415   .     S
C1099  H1128   1.116   .     S
C1099  C30     1.521   1_556 S
C1100  H1130   1.111   .     S
C1100  H1132   1.110   .     S
C1101  C1102   1.521   .     S
C1101  H1135   1.115   .     S
C1101  H1134   1.113   .     S
C1101  O1164   1.411   .     S
C1102  H1138   1.111   .     S
C1102  H1137   1.110   .     S
C1102  H1457   1.110   .     S
C1103  O1165   1.413   .     S
C1103  H1140   1.114   .     S
C1103  H1139   1.114   .     S
C1103  C1105   1.520   .     S
C1104  C1107   1.424   .     A
C1104  C1106   1.416   .     A
C1105  H1141   1.111   .     S
C1105  H1142   1.109   .     S
C1105  H1143   1.110   .     S
C1106  C147    1.413   1_556 S
C1107  C145    1.419   1_556 S
C1108  C1109   1.425   .     A
C1109  C1110   1.404   .     A
C1109  N1154   1.439   .     S
C1110  O1160   1.384   .     S
H1112  C1201   1.109   .     S
H1113  N1152   1.043   .     S
H1114  N1152   1.045   .     S
H1120  N1795   1.046   1_545 S
H1121  N1795   1.045   1_545 S
H1122  C1725   1.088   1_545 S
H1131  C137    1.109   1_556 S
H1136  C1744   1.110   1_545 S
H1145  N1154   1.045   .     S
H1146  N1154   1.044   .     S
N1153  C1405   1.436   .     S
N1153  H1442   1.045   .     S
N1153  H1441   1.046   .     S
O1155  Zn1175  1.955   .     S
O1155  Zn1174  1.955   .     S
O1155  Zn1176  1.939   .     S
O1155  Zn1177  1.928   .     S
O1156  Zn1175  1.929   .     S
O1157  Zn1177  1.939   .     S
O1158  Zn1176  1.937   .     S
O1159  Zn1174  1.926   .     S
O1161  C1188   1.400   .     S
O1166  Zn1174  1.936   .     S
O1167  Zn1177  1.937   .     S
O1168  Zn1175  1.926   .     S
O1169  Zn1176  1.938   .     S
O1170  Zn1177  1.940   .     S
O1171  Zn1174  1.929   .     S
O1172  Zn1175  1.936   .     S
O1173  Zn1176  1.931   .     S
C1178  C1188   1.444   .     S
C1178  O1277   1.267   .     A
C1178  O1275   1.272   .     A
C1179  C1180   1.382   .     A
C1179  H1254   1.077   .     S
C1179  C1214   1.412   .     A
C1180  H1251   1.083   .     S
C1180  C219    1.394   1_556 S
C1181  O1276   1.287   .     A
C1181  O1278   1.271   .     A
C1181  C1187   1.457   .     S
C1182  C1184   1.412   .     A
C1182  C1183   1.422   .     A
C1183  C1186   1.403   .     A
C1183  C1215   1.431   .     A
C1184  C1185   1.406   .     A
C1184  N1259   1.436   .     S
C1185  C1197   1.405   .     A
C1185  O1269   1.384   .     S
C1186  C1197   1.389   .     A
C1186  H1240   1.076   .     S
C1187  C974    1.347   1_655 S
C1187  H1004   1.088   1_655 S
C1189  O1271   1.382   .     S
C1189  C1198   1.413   .     A
C1189  C1196   1.411   .     A
C1190  C1193   1.451   .     S
C1190  C1512   1.342   .     S
C1190  H1550   1.088   .     S
C1191  C1192   1.429   .     S
C1191  C1832   1.342   1_545 S
C1191  N1902   1.436   1_545 S
C1192  O1273   1.275   .     A
C1192  O1279   1.277   .     A
C1193  O1280   1.274   .     A
C1193  O1274   1.265   .     A
C1194  O1265   1.277   .     A
C1194  C1197   1.456   .     S
C1194  O1263   1.282   .     A
C1195  C1196   1.489   .     S
C1195  O1266   1.283   .     A
C1195  O1264   1.285   .     A
C1196  C1200   1.410   .     A
C1198  C1213   1.419   .     A
C1198  O1270   1.385   .     S
C1199  H1256   1.114   .     S
C1199  H1255   1.114   .     S
C1199  O1267   1.414   .     S
C1199  C1201   1.521   .     S
C1200  C1211   1.414   .     A
C1200  O1272   1.386   .     S
C1201  H1257   1.110   .     S
C1201  H1258   1.110   .     S
C1202  O1268   1.414   .     S
C1202  C1203   1.520   .     S
C1202  H1008   1.113   1_655 S
C1202  H1009   1.114   1_655 S
C1203  H1225   1.110   .     S
C1203  H1226   1.110   .     S
C1203  H1224   1.110   .     S
C1204  H1231   1.109   .     S
C1204  O1269   1.415   .     S
C1204  H1230   1.114   .     S
C1204  C1205   1.520   .     S
C1205  H1234   1.110   .     S
C1205  H1232   1.111   .     S
C1205  H1019   1.110   1_655 S
C1206  H1236   1.112   .     S
C1206  O1270   1.415   .     S
C1206  H1235   1.116   .     S
C1206  C137    1.521   1_556 S
C1207  H1237   1.111   .     S
C1207  H1239   1.110   .     S
C1207  C29     1.521   1_655 S
C1208  C1209   1.521   .     S
C1208  H1242   1.115   .     S
C1208  H1241   1.113   .     S
C1208  O1271   1.411   .     S
C1209  H1245   1.111   .     S
C1209  H1244   1.110   .     S
C1209  H1564   1.110   .     S
C1210  O1272   1.413   .     S
C1210  H1247   1.114   .     S
C1210  H1246   1.114   .     S
C1210  C1212   1.520   .     S
C1211  C1214   1.424   .     A
C1211  C1213   1.416   .     A
C1212  H1248   1.111   .     S
C1212  H1249   1.109   .     S
C1212  H1250   1.110   .     S
C1213  C254    1.413   1_556 S
C1214  C252    1.419   1_556 S
C1215  C1216   1.425   .     A
C1216  C1217   1.404   .     A
C1216  N1261   1.439   .     S
C1217  O1267   1.384   .     S
H1219  C987    1.109   1_655 S
H1220  N1259   1.043   .     S
H1221  N1259   1.045   .     S
H1227  N1902   1.046   1_545 S
H1228  N1902   1.045   1_545 S
H1229  C1832   1.088   1_545 S
H1238  C244    1.109   1_556 S
H1243  C1851   1.110   1_545 S
H1252  N1261   1.045   .     S
H1253  N1261   1.044   .     S
N1260  C1512   1.436   .     S
N1260  H1549   1.045   .     S
N1260  H1548   1.046   .     S
O1262  Zn1282  1.955   .     S
O1262  Zn1281  1.955   .     S
O1262  Zn1283  1.939   .     S
O1262  Zn1284  1.928   .     S
O1263  Zn1282  1.929   .     S
O1264  Zn1284  1.939   .     S
O1265  Zn1283  1.937   .     S
O1266  Zn1281  1.926   .     S
O1268  C974    1.400   1_655 S
O1273  Zn1281  1.936   .     S
O1274  Zn1284  1.937   .     S
O1275  Zn1282  1.926   .     S
O1276  Zn1283  1.938   .     S
O1277  Zn1284  1.940   .     S
O1278  Zn1281  1.929   .     S
O1279  Zn1282  1.936   .     S
O1280  Zn1283  1.931   .     S
C1285  C1295   1.444   .     S
C1285  O1384   1.267   .     A
C1285  O1382   1.272   .     A
C1286  C1287   1.382   .     A
C1286  H1361   1.077   .     S
C1286  C1321   1.412   .     A
C1287  H1358   1.083   .     S
C1287  C326    1.394   1_556 S
C1288  O1383   1.287   .     A
C1288  O1385   1.271   .     A
C1288  C1294   1.457   .     S
C1289  C1291   1.412   .     A
C1289  C1290   1.422   .     A
C1290  C1293   1.403   .     A
C1290  C1322   1.431   .     A
C1291  C1292   1.406   .     A
C1291  N1366   1.436   .     S
C1292  C1304   1.405   .     A
C1292  O1376   1.384   .     S
C1293  C1304   1.389   .     A
C1293  H1347   1.076   .     S
C1294  C1402   1.347   .     S
C1294  H1432   1.088   .     S
C1295  C1508   1.347   1_455 S
C1295  O1589   1.400   1_455 S
C1296  O1378   1.382   .     S
C1296  C1305   1.413   .     A
C1296  C1303   1.411   .     A
C1297  C1300   1.451   .     S
C1297  C1619   1.342   .     S
C1297  H1657   1.088   .     S
C1298  C1299   1.429   .     S
C1299  O1380   1.275   .     A
C1299  O1386   1.277   .     A
C1300  O1387   1.274   .     A
C1300  O1381   1.265   .     A
C1301  O1372   1.277   .     A
C1301  C1304   1.456   .     S
C1301  O1370   1.282   .     A
C1302  C1303   1.489   .     S
C1302  O1373   1.283   .     A
C1302  O1371   1.285   .     A
C1303  C1307   1.410   .     A
C1305  C1320   1.419   .     A
C1305  O1377   1.385   .     S
C1306  H1363   1.114   .     S
C1306  H1362   1.114   .     S
C1306  O1374   1.414   .     S
C1306  C1308   1.521   .     S
C1307  C1318   1.414   .     A
C1307  O1379   1.386   .     S
C1308  H1364   1.110   .     S
C1308  H1365   1.110   .     S
C1308  H1540   1.109   1_455 S
C1309  O1375   1.414   .     S
C1309  C1310   1.520   .     S
C1309  H1436   1.113   .     S
C1309  H1437   1.114   .     S
C1310  H1332   1.110   .     S
C1310  H1333   1.110   .     S
C1310  H1331   1.110   .     S
C1311  H1338   1.109   .     S
C1311  O1376   1.415   .     S
C1311  H1337   1.114   .     S
C1311  C1312   1.520   .     S
C1312  H1341   1.110   .     S
C1312  H1339   1.111   .     S
C1312  H1447   1.110   .     S
C1313  H1343   1.112   .     S
C1313  O1377   1.415   .     S
C1313  H1342   1.116   .     S
C1313  C565    1.521   1_456 S
C1314  H1344   1.111   .     S
C1314  H1346   1.110   .     S
C1315  C1316   1.521   .     S
C1315  H1349   1.115   .     S
C1315  H1348   1.113   .     S
C1315  O1378   1.411   .     S
C1316  H1352   1.111   .     S
C1316  H1351   1.110   .     S
C1316  H1671   1.110   .     S
C1317  O1379   1.413   .     S
C1317  H1354   1.114   .     S
C1317  H1353   1.114   .     S
C1317  C1319   1.520   .     S
C1318  C1321   1.424   .     A
C1318  C1320   1.416   .     A
C1319  H1355   1.111   .     S
C1319  H1356   1.109   .     S
C1319  H1357   1.110   .     S
C1320  C361    1.413   1_556 S
C1321  C359    1.419   1_556 S
C1322  C1323   1.425   .     A
C1323  C1324   1.404   .     A
C1323  N1368   1.439   .     S
C1324  O1374   1.384   .     S
H1325  C1508   1.088   1_455 S
H1326  C1415   1.109   .     S
H1327  N1366   1.043   .     S
H1328  N1366   1.045   .     S
H1329  C1523   1.113   1_455 S
H1330  C1523   1.114   1_455 S
H1340  C1526   1.110   1_455 S
H1345  C351    1.109   1_556 S
H1359  N1368   1.045   .     S
H1360  N1368   1.044   .     S
N1367  C1619   1.436   .     S
N1367  H1656   1.045   .     S
N1367  H1655   1.046   .     S
O1369  Zn1389  1.955   .     S
O1369  Zn1388  1.955   .     S
O1369  Zn1390  1.939   .     S
O1369  Zn1391  1.928   .     S
O1370  Zn1389  1.929   .     S
O1371  Zn1391  1.939   .     S
O1372  Zn1390  1.937   .     S
O1373  Zn1388  1.926   .     S
O1375  C1402   1.400   .     S
O1380  Zn1388  1.936   .     S
O1381  Zn1391  1.937   .     S
O1382  Zn1389  1.926   .     S
O1383  Zn1390  1.938   .     S
O1384  Zn1391  1.940   .     S
O1385  Zn1388  1.929   .     S
O1386  Zn1389  1.936   .     S
O1387  Zn1390  1.931   .     S
C1392  C1402   1.444   .     S
C1392  O1491   1.267   .     A
C1392  O1489   1.272   .     A
C1393  C1394   1.382   .     A
C1393  H1468   1.077   .     S
C1393  C1428   1.412   .     A
C1394  H1465   1.083   .     S
C1394  C433    1.394   1_556 S
C1395  O1490   1.287   .     A
C1395  O1492   1.271   .     A
C1395  C1401   1.457   .     S
C1396  C1398   1.412   .     A
C1396  C1397   1.422   .     A
C1397  C1400   1.403   .     A
C1397  C1429   1.431   .     A
C1398  C1399   1.406   .     A
C1398  N1473   1.436   .     S
C1399  C1411   1.405   .     A
C1399  O1483   1.384   .     S
C1400  C1411   1.389   .     A
C1400  H1454   1.076   .     S
C1401  C1509   1.347   .     S
C1401  H1539   1.088   .     S
C1403  O1485   1.382   .     S
C1403  C1412   1.413   .     A
C1403  C1410   1.411   .     A
C1404  C1407   1.451   .     S
C1404  C1726   1.342   .     S
C1404  H1764   1.088   .     S
C1405  C1406   1.429   .     S
C1406  O1487   1.275   .     A
C1406  O1493   1.277   .     A
C1407  O1494   1.274   .     A
C1407  O1488   1.265   .     A
C1408  O1479   1.277   .     A
C1408  C1411   1.456   .     S
C1408  O1477   1.282   .     A
C1409  C1410   1.489   .     S
C1409  O1480   1.283   .     A
C1409  O1478   1.285   .     A
C1410  C1414   1.410   .     A
C1412  C1427   1.419   .     A
C1412  O1484   1.385   .     S
C1413  H1470   1.114   .     S
C1413  H1469   1.114   .     S
C1413  O1481   1.414   .     S
C1413  C1415   1.521   .     S
C1414  C1425   1.414   .     A
C1414  O1486   1.386   .     S
C1415  H1471   1.110   .     S
C1415  H1472   1.110   .     S
C1416  O1482   1.414   .     S
C1416  C1417   1.520   .     S
C1416  H1543   1.113   .     S
C1416  H1544   1.114   .     S
C1417  H1439   1.110   .     S
C1417  H1440   1.110   .     S
C1417  H1438   1.110   .     S
C1418  H1445   1.109   .     S
C1418  O1483   1.415   .     S
C1418  H1444   1.114   .     S
C1418  C1419   1.520   .     S
C1419  H1448   1.110   .     S
C1419  H1446   1.111   .     S
C1419  H1554   1.110   .     S
C1420  H1450   1.112   .     S
C1420  O1484   1.415   .     S
C1420  H1449   1.116   .     S
C1420  C351    1.521   1_556 S
C1421  H1451   1.111   .     S
C1421  H1453   1.110   .     S
C1422  C1423   1.521   .     S
C1422  H1456   1.115   .     S
C1422  H1455   1.113   .     S
C1422  O1485   1.411   .     S
C1423  H1459   1.111   .     S
C1423  H1458   1.110   .     S
C1423  H1778   1.110   .     S
C1424  O1486   1.413   .     S
C1424  H1461   1.114   .     S
C1424  H1460   1.114   .     S
C1424  C1426   1.520   .     S
C1425  C1428   1.424   .     A
C1425  C1427   1.416   .     A
C1426  H1462   1.111   .     S
C1426  H1463   1.109   .     S
C1426  H1464   1.110   .     S
C1427  C468    1.413   1_556 S
C1428  C466    1.419   1_556 S
C1429  C1430   1.425   .     A
C1430  C1431   1.404   .     A
C1430  N1475   1.439   .     S
C1431  O1481   1.384   .     S
H1433  C1522   1.109   .     S
H1434  N1473   1.043   .     S
H1435  N1473   1.045   .     S
H1452  C458    1.109   1_556 S
H1466  N1475   1.045   .     S
H1467  N1475   1.044   .     S
N1474  C1726   1.436   .     S
N1474  H1763   1.045   .     S
N1474  H1762   1.046   .     S
O1476  Zn1496  1.955   .     S
O1476  Zn1495  1.955   .     S
O1476  Zn1497  1.939   .     S
O1476  Zn1498  1.928   .     S
O1477  Zn1496  1.929   .     S
O1478  Zn1498  1.939   .     S
O1479  Zn1497  1.937   .     S
O1480  Zn1495  1.926   .     S
O1482  C1509   1.400   .     S
O1487  Zn1495  1.936   .     S
O1488  Zn1498  1.937   .     S
O1489  Zn1496  1.926   .     S
O1490  Zn1497  1.938   .     S
O1491  Zn1498  1.940   .     S
O1492  Zn1495  1.929   .     S
O1493  Zn1496  1.936   .     S
O1494  Zn1497  1.931   .     S
C1499  C1509   1.444   .     S
C1499  O1598   1.267   .     A
C1499  O1596   1.272   .     A
C1500  C1501   1.382   .     A
C1500  H1575   1.077   .     S
C1500  C1535   1.412   .     A
C1501  H1572   1.083   .     S
C1501  C540    1.394   1_556 S
C1502  O1597   1.287   .     A
C1502  O1599   1.271   .     A
C1502  C1508   1.457   .     S
C1503  C1505   1.412   .     A
C1503  C1504   1.422   .     A
C1504  C1507   1.403   .     A
C1504  C1536   1.431   .     A
C1505  C1506   1.406   .     A
C1505  N1580   1.436   .     S
C1506  C1518   1.405   .     A
C1506  O1590   1.384   .     S
C1507  C1518   1.389   .     A
C1507  H1561   1.076   .     S
C1508  C1295   1.347   1_655 S
C1508  H1325   1.088   1_655 S
C1510  O1592   1.382   .     S
C1510  C1519   1.413   .     A
C1510  C1517   1.411   .     A
C1511  C1514   1.451   .     S
C1511  C1833   1.342   .     S
C1511  H1871   1.088   .     S
C1512  C1513   1.429   .     S
C1513  O1594   1.275   .     A
C1513  O1600   1.277   .     A
C1514  O1601   1.274   .     A
C1514  O1595   1.265   .     A
C1515  O1586   1.277   .     A
C1515  C1518   1.456   .     S
C1515  O1584   1.282   .     A
C1516  C1517   1.489   .     S
C1516  O1587   1.283   .     A
C1516  O1585   1.285   .     A
C1517  C1521   1.410   .     A
C1519  C1534   1.419   .     A
C1519  O1591   1.385   .     S
C1520  H1577   1.114   .     S
C1520  H1576   1.114   .     S
C1520  O1588   1.414   .     S
C1520  C1522   1.521   .     S
C1521  C1532   1.414   .     A
C1521  O1593   1.386   .     S
C1522  H1578   1.110   .     S
C1522  H1579   1.110   .     S
C1523  O1589   1.414   .     S
C1523  C1524   1.520   .     S
C1523  H1329   1.113   1_655 S
C1523  H1330   1.114   1_655 S
C1524  H1546   1.110   .     S
C1524  H1547   1.110   .     S
C1524  H1545   1.110   .     S
C1525  H1552   1.109   .     S
C1525  O1590   1.415   .     S
C1525  H1551   1.114   .     S
C1525  C1526   1.520   .     S
C1526  H1555   1.110   .     S
C1526  H1553   1.111   .     S
C1526  H1340   1.110   1_655 S
C1527  H1557   1.112   .     S
C1527  O1591   1.415   .     S
C1527  H1556   1.116   .     S
C1527  C458    1.521   1_556 S
C1528  H1558   1.111   .     S
C1528  H1560   1.110   .     S
C1528  C350    1.521   1_655 S
C1529  C1530   1.521   .     S
C1529  H1563   1.115   .     S
C1529  H1562   1.113   .     S
C1529  O1592   1.411   .     S
C1530  H1566   1.111   .     S
C1530  H1565   1.110   .     S
C1530  H1885   1.110   .     S
C1531  O1593   1.413   .     S
C1531  H1568   1.114   .     S
C1531  H1567   1.114   .     S
C1531  C1533   1.520   .     S
C1532  C1535   1.424   .     A
C1532  C1534   1.416   .     A
C1533  H1569   1.111   .     S
C1533  H1570   1.109   .     S
C1533  H1571   1.110   .     S
C1534  C575    1.413   1_556 S
C1535  C573    1.419   1_556 S
C1536  C1537   1.425   .     A
C1537  C1538   1.404   .     A
C1537  N1582   1.439   .     S
C1538  O1588   1.384   .     S
H1540  C1308   1.109   1_655 S
H1541  N1580   1.043   .     S
H1542  N1580   1.045   .     S
H1559  C565    1.109   1_556 S
H1573  N1582   1.045   .     S
H1574  N1582   1.044   .     S
N1581  C1833   1.436   .     S
N1581  H1870   1.045   .     S
N1581  H1869   1.046   .     S
O1583  Zn1603  1.955   .     S
O1583  Zn1602  1.955   .     S
O1583  Zn1604  1.939   .     S
O1583  Zn1605  1.928   .     S
O1584  Zn1603  1.929   .     S
O1585  Zn1605  1.939   .     S
O1586  Zn1604  1.937   .     S
O1587  Zn1602  1.926   .     S
O1589  C1295   1.400   1_655 S
O1594  Zn1602  1.936   .     S
O1595  Zn1605  1.937   .     S
O1596  Zn1603  1.926   .     S
O1597  Zn1604  1.938   .     S
O1598  Zn1605  1.940   .     S
O1599  Zn1602  1.929   .     S
O1600  Zn1603  1.936   .     S
O1601  Zn1604  1.931   .     S
C1606  C1616   1.444   .     S
C1606  O1705   1.267   .     A
C1606  O1703   1.272   .     A
C1607  C1608   1.382   .     A
C1607  H1682   1.077   .     S
C1607  C1642   1.412   .     A
C1608  H1679   1.083   .     S
C1608  C647    1.394   1_556 S
C1609  O1704   1.287   .     A
C1609  O1706   1.271   .     A
C1609  C1615   1.457   .     S
C1610  C1612   1.412   .     A
C1610  C1611   1.422   .     A
C1611  C1614   1.403   .     A
C1611  C1643   1.431   .     A
C1612  C1613   1.406   .     A
C1612  N1687   1.436   .     S
C1613  C1625   1.405   .     A
C1613  O1697   1.384   .     S
C1614  C1625   1.389   .     A
C1614  H1668   1.076   .     S
C1615  C1723   1.347   .     S
C1615  H1753   1.088   .     S
C1616  C1829   1.347   1_455 S
C1616  O1910   1.400   1_455 S
C1617  O1699   1.382   .     S
C1617  C1626   1.413   .     A
C1617  C1624   1.411   .     A
C1618  C1621   1.451   .     S
C1618  C977    1.342   1_565 S
C1618  H1015   1.088   1_565 S
C1619  C1620   1.429   .     S
C1620  O1701   1.275   .     A
C1620  O1707   1.277   .     A
C1621  O1708   1.274   .     A
C1621  O1702   1.265   .     A
C1622  O1693   1.277   .     A
C1622  C1625   1.456   .     S
C1622  O1691   1.282   .     A
C1623  C1624   1.489   .     S
C1623  O1694   1.283   .     A
C1623  O1692   1.285   .     A
C1624  C1628   1.410   .     A
C1626  C1641   1.419   .     A
C1626  O1698   1.385   .     S
C1627  H1684   1.114   .     S
C1627  H1683   1.114   .     S
C1627  O1695   1.414   .     S
C1627  C1629   1.521   .     S
C1628  C1639   1.414   .     A
C1628  O1700   1.386   .     S
C1629  H1685   1.110   .     S
C1629  H1686   1.110   .     S
C1629  H1861   1.109   1_455 S
C1630  O1696   1.414   .     S
C1630  C1631   1.520   .     S
C1630  H1757   1.113   .     S
C1630  H1758   1.114   .     S
C1631  H1653   1.110   .     S
C1631  H1654   1.110   .     S
C1631  H1652   1.110   .     S
C1632  H1659   1.109   .     S
C1632  O1697   1.415   .     S
C1632  H1658   1.114   .     S
C1632  C1633   1.520   .     S
C1633  H1662   1.110   .     S
C1633  H1660   1.111   .     S
C1633  H1768   1.110   .     S
C1634  H1664   1.112   .     S
C1634  O1698   1.415   .     S
C1634  H1663   1.116   .     S
C1634  C886    1.521   1_456 S
C1635  H1665   1.111   .     S
C1635  H1667   1.110   .     S
C1636  C1637   1.521   .     S
C1636  H1670   1.115   .     S
C1636  H1669   1.113   .     S
C1636  O1699   1.411   .     S
C1637  H1673   1.111   .     S
C1637  H1672   1.110   .     S
C1637  H1029   1.110   1_565 S
C1638  O1700   1.413   .     S
C1638  H1675   1.114   .     S
C1638  H1674   1.114   .     S
C1638  C1640   1.520   .     S
C1639  C1642   1.424   .     A
C1639  C1641   1.416   .     A
C1640  H1676   1.111   .     S
C1640  H1677   1.109   .     S
C1640  H1678   1.110   .     S
C1641  C682    1.413   1_556 S
C1642  C680    1.419   1_556 S
C1643  C1644   1.425   .     A
C1644  C1645   1.404   .     A
C1644  N1689   1.439   .     S
C1645  O1695   1.384   .     S
H1646  C1829   1.088   1_455 S
H1647  C1736   1.109   .     S
H1648  N1687   1.043   .     S
H1649  N1687   1.045   .     S
H1650  C1844   1.113   1_455 S
H1651  C1844   1.114   1_455 S
H1661  C1847   1.110   1_455 S
H1666  C672    1.109   1_556 S
H1680  N1689   1.045   .     S
H1681  N1689   1.044   .     S
N1688  C977    1.436   1_565 S
N1688  H1014   1.045   1_565 S
N1688  H1013   1.046   1_565 S
O1690  Zn1710  1.955   .     S
O1690  Zn1709  1.955   .     S
O1690  Zn1711  1.939   .     S
O1690  Zn1712  1.928   .     S
O1691  Zn1710  1.929   .     S
O1692  Zn1712  1.939   .     S
O1693  Zn1711  1.937   .     S
O1694  Zn1709  1.926   .     S
O1696  C1723   1.400   .     S
O1701  Zn1709  1.936   .     S
O1702  Zn1712  1.937   .     S
O1703  Zn1710  1.926   .     S
O1704  Zn1711  1.938   .     S
O1705  Zn1712  1.940   .     S
O1706  Zn1709  1.929   .     S
O1707  Zn1710  1.936   .     S
O1708  Zn1711  1.931   .     S
C1713  C1723   1.444   .     S
C1713  O1812   1.267   .     A
C1713  O1810   1.272   .     A
C1714  C1715   1.382   .     A
C1714  H1789   1.077   .     S
C1714  C1749   1.412   .     A
C1715  H1786   1.083   .     S
C1715  C754    1.394   1_556 S
C1716  O1811   1.287   .     A
C1716  O1813   1.271   .     A
C1716  C1722   1.457   .     S
C1717  C1719   1.412   .     A
C1717  C1718   1.422   .     A
C1718  C1721   1.403   .     A
C1718  C1750   1.431   .     A
C1719  C1720   1.406   .     A
C1719  N1794   1.436   .     S
C1720  C1732   1.405   .     A
C1720  O1804   1.384   .     S
C1721  C1732   1.389   .     A
C1721  H1775   1.076   .     S
C1722  C1830   1.347   .     S
C1722  H1860   1.088   .     S
C1724  O1806   1.382   .     S
C1724  C1733   1.413   .     A
C1724  C1731   1.411   .     A
C1725  C1728   1.451   .     S
C1725  C1084   1.342   1_565 S
C1725  H1122   1.088   1_565 S
C1726  C1727   1.429   .     S
C1727  O1808   1.275   .     A
C1727  O1814   1.277   .     A
C1728  O1815   1.274   .     A
C1728  O1809   1.265   .     A
C1729  O1800   1.277   .     A
C1729  C1732   1.456   .     S
C1729  O1798   1.282   .     A
C1730  C1731   1.489   .     S
C1730  O1801   1.283   .     A
C1730  O1799   1.285   .     A
C1731  C1735   1.410   .     A
C1733  C1748   1.419   .     A
C1733  O1805   1.385   .     S
C1734  H1791   1.114   .     S
C1734  H1790   1.114   .     S
C1734  O1802   1.414   .     S
C1734  C1736   1.521   .     S
C1735  C1746   1.414   .     A
C1735  O1807   1.386   .     S
C1736  H1792   1.110   .     S
C1736  H1793   1.110   .     S
C1737  O1803   1.414   .     S
C1737  C1738   1.520   .     S
C1737  H1864   1.113   .     S
C1737  H1865   1.114   .     S
C1738  H1760   1.110   .     S
C1738  H1761   1.110   .     S
C1738  H1759   1.110   .     S
C1739  H1766   1.109   .     S
C1739  O1804   1.415   .     S
C1739  H1765   1.114   .     S
C1739  C1740   1.520   .     S
C1740  H1769   1.110   .     S
C1740  H1767   1.111   .     S
C1740  H1875   1.110   .     S
C1741  H1771   1.112   .     S
C1741  O1805   1.415   .     S
C1741  H1770   1.116   .     S
C1741  C672    1.521   1_556 S
C1742  H1772   1.111   .     S
C1742  H1774   1.110   .     S
C1743  C1744   1.521   .     S
C1743  H1777   1.115   .     S
C1743  H1776   1.113   .     S
C1743  O1806   1.411   .     S
C1744  H1780   1.111   .     S
C1744  H1779   1.110   .     S
C1744  H1136   1.110   1_565 S
C1745  O1807   1.413   .     S
C1745  H1782   1.114   .     S
C1745  H1781   1.114   .     S
C1745  C1747   1.520   .     S
C1746  C1749   1.424   .     A
C1746  C1748   1.416   .     A
C1747  H1783   1.111   .     S
C1747  H1784   1.109   .     S
C1747  H1785   1.110   .     S
C1748  C789    1.413   1_556 S
C1749  C787    1.419   1_556 S
C1750  C1751   1.425   .     A
C1751  C1752   1.404   .     A
C1751  N1796   1.439   .     S
C1752  O1802   1.384   .     S
H1754  C1843   1.109   .     S
H1755  N1794   1.043   .     S
H1756  N1794   1.045   .     S
H1773  C779    1.109   1_556 S
H1787  N1796   1.045   .     S
H1788  N1796   1.044   .     S
N1795  C1084   1.436   1_565 S
N1795  H1121   1.045   1_565 S
N1795  H1120   1.046   1_565 S
O1797  Zn1817  1.955   .     S
O1797  Zn1816  1.955   .     S
O1797  Zn1818  1.939   .     S
O1797  Zn1819  1.928   .     S
O1798  Zn1817  1.929   .     S
O1799  Zn1819  1.939   .     S
O1800  Zn1818  1.937   .     S
O1801  Zn1816  1.926   .     S
O1803  C1830   1.400   .     S
O1808  Zn1816  1.936   .     S
O1809  Zn1819  1.937   .     S
O1810  Zn1817  1.926   .     S
O1811  Zn1818  1.938   .     S
O1812  Zn1819  1.940   .     S
O1813  Zn1816  1.929   .     S
O1814  Zn1817  1.936   .     S
O1815  Zn1818  1.931   .     S
C1820  C1830   1.444   .     S
C1820  O1919   1.267   .     A
C1820  O1917   1.272   .     A
C1821  C1822   1.382   .     A
C1821  H1896   1.077   .     S
C1821  C1856   1.412   .     A
C1822  H1893   1.083   .     S
C1822  C861    1.394   1_556 S
C1823  O1918   1.287   .     A
C1823  O1920   1.271   .     A
C1823  C1829   1.457   .     S
C1824  C1826   1.412   .     A
C1824  C1825   1.422   .     A
C1825  C1828   1.403   .     A
C1825  C1857   1.431   .     A
C1826  C1827   1.406   .     A
C1826  N1901   1.436   .     S
C1827  C1839   1.405   .     A
C1827  O1911   1.384   .     S
C1828  C1839   1.389   .     A
C1828  H1882   1.076   .     S
C1829  C1616   1.347   1_655 S
C1829  H1646   1.088   1_655 S
C1831  O1913   1.382   .     S
C1831  C1840   1.413   .     A
C1831  C1838   1.411   .     A
C1832  C1835   1.451   .     S
C1832  C1191   1.342   1_565 S
C1832  H1229   1.088   1_565 S
C1833  C1834   1.429   .     S
C1834  O1915   1.275   .     A
C1834  O1921   1.277   .     A
C1835  O1922   1.274   .     A
C1835  O1916   1.265   .     A
C1836  O1907   1.277   .     A
C1836  C1839   1.456   .     S
C1836  O1905   1.282   .     A
C1837  C1838   1.489   .     S
C1837  O1908   1.283   .     A
C1837  O1906   1.285   .     A
C1838  C1842   1.410   .     A
C1840  C1855   1.419   .     A
C1840  O1912   1.385   .     S
C1841  H1898   1.114   .     S
C1841  H1897   1.114   .     S
C1841  O1909   1.414   .     S
C1841  C1843   1.521   .     S
C1842  C1853   1.414   .     A
C1842  O1914   1.386   .     S
C1843  H1899   1.110   .     S
C1843  H1900   1.110   .     S
C1844  O1910   1.414   .     S
C1844  C1845   1.520   .     S
C1844  H1650   1.113   1_655 S
C1844  H1651   1.114   1_655 S
C1845  H1867   1.110   .     S
C1845  H1868   1.110   .     S
C1845  H1866   1.110   .     S
C1846  H1873   1.109   .     S
C1846  O1911   1.415   .     S
C1846  H1872   1.114   .     S
C1846  C1847   1.520   .     S
C1847  H1876   1.110   .     S
C1847  H1874   1.111   .     S
C1847  H1661   1.110   1_655 S
C1848  H1878   1.112   .     S
C1848  O1912   1.415   .     S
C1848  H1877   1.116   .     S
C1848  C779    1.521   1_556 S
C1849  H1879   1.111   .     S
C1849  H1881   1.110   .     S
C1849  C671    1.521   1_655 S
C1850  C1851   1.521   .     S
C1850  H1884   1.115   .     S
C1850  H1883   1.113   .     S
C1850  O1913   1.411   .     S
C1851  H1887   1.111   .     S
C1851  H1886   1.110   .     S
C1851  H1243   1.110   1_565 S
C1852  O1914   1.413   .     S
C1852  H1889   1.114   .     S
C1852  H1888   1.114   .     S
C1852  C1854   1.520   .     S
C1853  C1856   1.424   .     A
C1853  C1855   1.416   .     A
C1854  H1890   1.111   .     S
C1854  H1891   1.109   .     S
C1854  H1892   1.110   .     S
C1855  C896    1.413   1_556 S
C1856  C894    1.419   1_556 S
C1857  C1858   1.425   .     A
C1858  C1859   1.404   .     A
C1858  N1903   1.439   .     S
C1859  O1909   1.384   .     S
H1861  C1629   1.109   1_655 S
H1862  N1901   1.043   .     S
H1863  N1901   1.045   .     S
H1880  C886    1.109   1_556 S
H1894  N1903   1.045   .     S
H1895  N1903   1.044   .     S
N1902  C1191   1.436   1_565 S
N1902  H1228   1.045   1_565 S
N1902  H1227   1.046   1_565 S
O1904  Zn1924  1.955   .     S
O1904  Zn1923  1.955   .     S
O1904  Zn1925  1.939   .     S
O1904  Zn1926  1.928   .     S
O1905  Zn1924  1.929   .     S
O1906  Zn1926  1.939   .     S
O1907  Zn1925  1.937   .     S
O1908  Zn1923  1.926   .     S
O1910  C1616   1.400   1_655 S
O1915  Zn1923  1.936   .     S
O1916  Zn1926  1.937   .     S
O1917  Zn1924  1.926   .     S
O1918  Zn1925  1.938   .     S
O1919  Zn1926  1.940   .     S
O1920  Zn1923  1.929   .     S
O1921  Zn1924  1.936   .     S
O1922  Zn1925  1.931   .     S
