data_str_m1_o1_o2_pcu_sym.20
_audit_creation_date              2020-01-03
_audit_creation_method            'Materials Studio'
_symmetry_space_group_name_H-M    'P1'
_symmetry_Int_Tables_number       1
_symmetry_cell_setting            triclinic
loop_
_symmetry_equiv_pos_as_xyz
  x,y,z
_cell_length_a                    36.6996
_cell_length_b                    36.6995
_cell_length_c                    34.4266
_cell_angle_alpha                 90.0002
_cell_angle_beta                  90.0003
_cell_angle_gamma                 90.0001
loop_
_atom_site_label
_atom_site_type_symbol
_atom_site_fract_x
_atom_site_fract_y
_atom_site_fract_z
_atom_site_U_iso_or_equiv
_atom_site_adp_type
_atom_site_occupancy
C1     C     0.23569   0.02973   0.04153   0.00000  Uiso   1.00
C2     C     0.01427   0.27975   0.45847   0.00000  Uiso   1.00
C3     C     0.34815   0.40185   0.75000   0.00000  Uiso   1.00
C4     C     0.40186   0.15186   0.25000   0.00000  Uiso   1.00
C5     C     0.09815   0.34815   0.75000   0.00000  Uiso   1.00
C6     C     0.34814   0.40186   0.25000   0.00000  Uiso   1.00
C7     C     0.15185   0.09815   0.75000   0.00000  Uiso   1.00
C8     C     0.09814   0.15186   0.75000   0.00000  Uiso   1.00
C9     C     0.40185   0.34815   0.25000   0.00000  Uiso   1.00
C10    C     0.15186   0.40186   0.75000   0.00000  Uiso   1.00
C11    C     0.34815   0.09815   0.25000   0.00000  Uiso   1.00
C12    C     0.40186   0.34814   0.75000   0.00000  Uiso   1.00
C13    C     0.22036   0.48552   0.54152   0.00000  Uiso   1.00
C14    C     0.09815   0.15185   0.25000   0.00000  Uiso   1.00
C15    C     0.34814   0.09814   0.75000   0.00000  Uiso   1.00
C16    C     0.15185   0.40185   0.25000   0.00000  Uiso   1.00
C17    C     0.25000   0.00000   0.10258   0.00000  Uiso   1.00
C18    C     0.25000  -0.00000   0.89742   0.00000  Uiso   1.00
C19    C    -0.00000   0.25000   0.10258   0.00000  Uiso   1.00
C20    C    -0.00000   0.25000   0.89742   0.00000  Uiso   1.00
C21    C    -0.00000   0.25000   0.60258   0.00000  Uiso   1.00
C22    C     0.00000   0.25000   0.39742   0.00000  Uiso   1.00
C23    C     0.25000   0.00000   0.60257   0.00000  Uiso   1.00
C24    C     0.22021   0.01419   0.45846   0.00000  Uiso   1.00
C25    C     0.25000   0.00000   0.39742   0.00000  Uiso   1.00
C26    C     0.22043   0.06362   0.10238   0.00000  Uiso   1.00
C27    C     0.17889   0.06245   0.10400   0.00000  Uiso   1.00
C28    C     0.27976   0.06354   0.89762   0.00000  Uiso   1.00
C29    C     0.32129   0.06225   0.89601   0.00000  Uiso   1.00
C30    C     0.43647   0.22022   0.10237   0.00000  Uiso   1.00
C31    C     0.43777   0.17869   0.10398   0.00000  Uiso   1.00
C32    C     0.43636   0.27952   0.89761   0.00000  Uiso   1.00
C33    C     0.43750   0.32105   0.89599   0.00000  Uiso   1.00
C34    C     0.27958   0.43638   0.10238   0.00000  Uiso   1.00
C35    C     0.01443   0.22033   0.54153   0.00000  Uiso   1.00
C36    C     0.32111   0.43756   0.10401   0.00000  Uiso   1.00
C37    C     0.22025   0.43646   0.89762   0.00000  Uiso   1.00
C38    C     0.17871   0.43775   0.89601   0.00000  Uiso   1.00
C39    C     0.06353   0.27978   0.10238   0.00000  Uiso   1.00
C40    C     0.06223   0.32131   0.10399   0.00000  Uiso   1.00
C41    C     0.06364   0.22048   0.89761   0.00000  Uiso   1.00
C42    C     0.06251   0.17895   0.89599   0.00000  Uiso   1.00
C43    C     0.47016   0.31350   0.60237   0.00000  Uiso   1.00
C44    C     0.42862   0.31217   0.60397   0.00000  Uiso   1.00
C45    C     0.02951   0.31365   0.39761   0.00000  Uiso   1.00
C46    C     0.48573   0.22025   0.45847   0.00000  Uiso   1.00
C47    C     0.07104   0.31252   0.39600   0.00000  Uiso   1.00
C48    C     0.18654   0.47006   0.60237   0.00000  Uiso   1.00
C49    C     0.18794   0.42853   0.60397   0.00000  Uiso   1.00
C50    C     0.18627   0.02933   0.39760   0.00000  Uiso   1.00
C51    C     0.18729   0.07087   0.39598   0.00000  Uiso   1.00
C52    C     0.02984   0.18650   0.60237   0.00000  Uiso   1.00
C53    C     0.07137   0.18781   0.60396   0.00000  Uiso   1.00
C54    C     0.47049   0.18635   0.39761   0.00000  Uiso   1.00
C55    C     0.42895   0.18748   0.39599   0.00000  Uiso   1.00
C56    C     0.31345   0.02994   0.60237   0.00000  Uiso   1.00
C57    C     0.27964   0.01448   0.54152   0.00000  Uiso   1.00
C58    C     0.31206   0.07147   0.60397   0.00000  Uiso   1.00
C59    C     0.31373   0.47068   0.39761   0.00000  Uiso   1.00
C60    C     0.31272   0.42914   0.39598   0.00000  Uiso   1.00
C61    C     0.27979   0.48581   0.45846   0.00000  Uiso   1.00
C62    C     0.23549   0.03018   0.08211   0.00000  Uiso   1.00
C63    C     0.26460   0.03014   0.91789   0.00000  Uiso   1.00
C64    C     0.46987   0.23539   0.08211   0.00000  Uiso   1.00
C65    C     0.26439   0.02969   0.95847   0.00000  Uiso   1.00
C66    C     0.46980   0.26449   0.91789   0.00000  Uiso   1.00
C67    C     0.26451   0.46982   0.08211   0.00000  Uiso   1.00
C68    C     0.23540   0.46986   0.91789   0.00000  Uiso   1.00
C69    C     0.03013   0.26462   0.08211   0.00000  Uiso   1.00
C70    C     0.03019   0.23551   0.91789   0.00000  Uiso   1.00
C71    C     0.48535   0.28012   0.58211   0.00000  Uiso   1.00
C72    C     0.01448   0.28020   0.41789   0.00000  Uiso   1.00
C73    C     0.21990   0.48531   0.58210   0.00000  Uiso   1.00
C74    C     0.21976   0.01439   0.41788   0.00000  Uiso   1.00
C75    C     0.01464   0.21988   0.58211   0.00000  Uiso   1.00
C76    C     0.47032   0.23559   0.04153   0.00000  Uiso   1.00
C77    C     0.48552   0.21980   0.41789   0.00000  Uiso   1.00
C78    C     0.28010   0.01469   0.58210   0.00000  Uiso   1.00
C79    C     0.28024   0.48561   0.41788   0.00000  Uiso   1.00
C80    C     0.25000  -0.00000   0.02128   0.00000  Uiso   1.00
C81    C     0.25000  -0.00000   0.97872   0.00000  Uiso   1.00
C82    C    -0.00000   0.25000   0.02128   0.00000  Uiso   1.00
C83    C    -0.00000   0.25000   0.97872   0.00000  Uiso   1.00
C84    C     0.00000   0.25000   0.52128   0.00000  Uiso   1.00
C85    C     0.00000   0.25000   0.47872   0.00000  Uiso   1.00
C86    C     0.25000  -0.00000   0.52127   0.00000  Uiso   1.00
C87    C     0.47026   0.26428   0.95847   0.00000  Uiso   1.00
C88    C     0.25000  -0.00000   0.47871   0.00000  Uiso   1.00
C89    C     0.25000  -0.00000   0.35506   0.00000  Uiso   1.00
C90    C     0.25000   0.00000   0.64493   0.00000  Uiso   1.00
C91    C     0.00000   0.25000   0.35506   0.00000  Uiso   1.00
C92    C    -0.00000   0.25000   0.64493   0.00000  Uiso   1.00
C93    C     0.00000   0.25000   0.85506   0.00000  Uiso   1.00
C94    C    -0.00000   0.25000   0.14493   0.00000  Uiso   1.00
C95    C     0.25000  -0.00000   0.85507   0.00000  Uiso   1.00
C96    C     0.25000   0.00000   0.14494   0.00000  Uiso   1.00
C97    C     0.17992   0.07008   0.25000   0.00000  Uiso   1.00
C98    C     0.26430   0.47027   0.04153   0.00000  Uiso   1.00
C99    C     0.32009   0.42991   0.75000   0.00000  Uiso   1.00
C100   C     0.42992   0.17992   0.25000   0.00000  Uiso   1.00
C101   C     0.07009   0.32009   0.75000   0.00000  Uiso   1.00
C102   C     0.32008   0.42992   0.25000   0.00000  Uiso   1.00
C103   C     0.17991   0.07009   0.75000   0.00000  Uiso   1.00
C104   C     0.07008   0.32008   0.25000   0.00000  Uiso   1.00
C105   C     0.42991   0.17991   0.75000   0.00000  Uiso   1.00
C106   C     0.17992   0.42992   0.75000   0.00000  Uiso   1.00
C107   C     0.32009   0.07009   0.25000   0.00000  Uiso   1.00
C108   C     0.42992   0.32008   0.75000   0.00000  Uiso   1.00
C109   C     0.23561   0.47031   0.95847   0.00000  Uiso   1.00
C110   C     0.07009   0.17991   0.25000   0.00000  Uiso   1.00
C111   C     0.32008   0.07008   0.75000   0.00000  Uiso   1.00
C112   C     0.17991   0.42991   0.25000   0.00000  Uiso   1.00
C113   C     0.07008   0.17992   0.75000   0.00000  Uiso   1.00
C114   C     0.42991   0.32009   0.25000   0.00000  Uiso   1.00
C115   C     0.12287   0.40383   0.22355   0.00000  Uiso   1.00
C116   C     0.37710   0.09617   0.77647   0.00000  Uiso   1.00
C117   C     0.09617   0.12287   0.22356   0.00000  Uiso   1.00
C118   C     0.40383   0.37710   0.77647   0.00000  Uiso   1.00
C119   C     0.37713   0.09617   0.22355   0.00000  Uiso   1.00
C120   C     0.02968   0.26441   0.04153   0.00000  Uiso   1.00
C121   C     0.12290   0.40383   0.77647   0.00000  Uiso   1.00
C122   C     0.40383   0.37713   0.22356   0.00000  Uiso   1.00
C123   C     0.09617   0.12290   0.77646   0.00000  Uiso   1.00
C124   C     0.12287   0.09617   0.77644   0.00000  Uiso   1.00
C125   C     0.37710   0.40384   0.22354   0.00000  Uiso   1.00
C126   C     0.09617   0.37713   0.77645   0.00000  Uiso   1.00
C127   C     0.40383   0.12290   0.22353   0.00000  Uiso   1.00
C128   C     0.37713   0.40383   0.77645   0.00000  Uiso   1.00
C129   C     0.12290   0.09616   0.22354   0.00000  Uiso   1.00
C130   C     0.40383   0.12287   0.77645   0.00000  Uiso   1.00
C131   C     0.02974   0.23572   0.95847   0.00000  Uiso   1.00
C132   C     0.09617   0.37710   0.22353   0.00000  Uiso   1.00
C133   C     0.37287   0.15383   0.72355   0.00000  Uiso   1.00
C134   C     0.12710   0.34617   0.27647   0.00000  Uiso   1.00
C135   C     0.34617   0.37287   0.72355   0.00000  Uiso   1.00
C136   C     0.15384   0.12710   0.27646   0.00000  Uiso   1.00
C137   C     0.12713   0.34617   0.72355   0.00000  Uiso   1.00
C138   C     0.37290   0.15383   0.27647   0.00000  Uiso   1.00
C139   C     0.15383   0.12713   0.72355   0.00000  Uiso   1.00
C140   C     0.34616   0.37290   0.27646   0.00000  Uiso   1.00
C141   C     0.37287   0.34617   0.27644   0.00000  Uiso   1.00
C142   C     0.48557   0.27967   0.54152   0.00000  Uiso   1.00
C143   C     0.12710   0.15383   0.72353   0.00000  Uiso   1.00
C144   C     0.34617   0.12713   0.27645   0.00000  Uiso   1.00
C145   C     0.15383   0.37290   0.72353   0.00000  Uiso   1.00
C146   C     0.12713   0.15383   0.27644   0.00000  Uiso   1.00
C147   C     0.37290   0.34617   0.72353   0.00000  Uiso   1.00
C148   C     0.15383   0.37287   0.27645   0.00000  Uiso   1.00
C149   C     0.34617   0.12710   0.72353   0.00000  Uiso   1.00
C150   C     0.09814   0.34814   0.25000   0.00000  Uiso   1.00
C151   C     0.40185   0.15185   0.75000   0.00000  Uiso   1.00
C152   C     0.15186   0.09814   0.25000   0.00000  Uiso   1.00
H153   H     0.22449   0.05263   0.02561   0.00000  Uiso   1.00
H154   H     0.02545   0.30266   0.47439   0.00000  Uiso   1.00
H155   H     0.16345   0.41808   0.61930   0.00000  Uiso   1.00
H156   H     0.18840   0.41698   0.57416   0.00000  Uiso   1.00
H157   H     0.18364   0.48091   0.63230   0.00000  Uiso   1.00
H158   H     0.16157   0.47863   0.58653   0.00000  Uiso   1.00
H159   H     0.21184   0.08028   0.38001   0.00000  Uiso   1.00
H160   H     0.16270   0.08109   0.38066   0.00000  Uiso   1.00
H161   H     0.18767   0.08244   0.42579   0.00000  Uiso   1.00
H162   H     0.18348   0.01845   0.36767   0.00000  Uiso   1.00
H163   H     0.16137   0.02054   0.41344   0.00000  Uiso   1.00
H164   H     0.08062   0.21243   0.61991   0.00000  Uiso   1.00
H165   H     0.19752   0.47418   0.52560   0.00000  Uiso   1.00
H166   H     0.08178   0.16331   0.61929   0.00000  Uiso   1.00
H167   H     0.08291   0.18826   0.57414   0.00000  Uiso   1.00
H168   H     0.01900   0.18362   0.63231   0.00000  Uiso   1.00
H169   H     0.02122   0.16153   0.58654   0.00000  Uiso   1.00
H170   H     0.41960   0.21206   0.38003   0.00000  Uiso   1.00
H171   H     0.41866   0.16292   0.38067   0.00000  Uiso   1.00
H172   H     0.41739   0.18789   0.42581   0.00000  Uiso   1.00
H173   H     0.48136   0.18353   0.36768   0.00000  Uiso   1.00
H174   H     0.47921   0.16142   0.41345   0.00000  Uiso   1.00
H175   H     0.28743   0.08067   0.61993   0.00000  Uiso   1.00
H176   H     0.19727   0.02530   0.47439   0.00000  Uiso   1.00
H177   H     0.33655   0.08192   0.61930   0.00000  Uiso   1.00
H178   H     0.31159   0.08302   0.57416   0.00000  Uiso   1.00
H179   H     0.31636   0.01909   0.63230   0.00000  Uiso   1.00
H180   H     0.33843   0.02137   0.58653   0.00000  Uiso   1.00
H181   H     0.28817   0.41972   0.38001   0.00000  Uiso   1.00
H182   H     0.33731   0.41892   0.38067   0.00000  Uiso   1.00
H183   H     0.31234   0.41757   0.42580   0.00000  Uiso   1.00
H184   H     0.31652   0.48156   0.36767   0.00000  Uiso   1.00
H185   H     0.33863   0.47947   0.41344   0.00000  Uiso   1.00
H186   H     0.02573   0.19748   0.52560   0.00000  Uiso   1.00
H187   H     0.47455   0.19734   0.47439   0.00000  Uiso   1.00
H188   H     0.30247   0.02582   0.52560   0.00000  Uiso   1.00
H189   H     0.30273   0.47470   0.47439   0.00000  Uiso   1.00
H190   H     0.12085   0.42594   0.20283   0.00000  Uiso   1.00
H191   H     0.37909   0.07408   0.79723   0.00000  Uiso   1.00
H192   H     0.07406   0.12084   0.20283   0.00000  Uiso   1.00
H193   H     0.27566   0.05255   0.97440   0.00000  Uiso   1.00
H194   H     0.42592   0.37910   0.79723   0.00000  Uiso   1.00
H195   H     0.37915   0.07406   0.20282   0.00000  Uiso   1.00
H196   H     0.12091   0.42592   0.79723   0.00000  Uiso   1.00
H197   H     0.42594   0.37916   0.20283   0.00000  Uiso   1.00
H198   H     0.07408   0.12090   0.79723   0.00000  Uiso   1.00
H199   H     0.12084   0.07406   0.79717   0.00000  Uiso   1.00
H200   H     0.37910   0.42593   0.20278   0.00000  Uiso   1.00
H201   H     0.07406   0.37915   0.79718   0.00000  Uiso   1.00
H202   H     0.42592   0.12090   0.20277   0.00000  Uiso   1.00
H203   H     0.37915   0.42594   0.79717   0.00000  Uiso   1.00
H204   H     0.44746   0.22432   0.02560   0.00000  Uiso   1.00
H205   H     0.12090   0.07407   0.20277   0.00000  Uiso   1.00
H206   H     0.42594   0.12085   0.79718   0.00000  Uiso   1.00
H207   H     0.07408   0.37910   0.20277   0.00000  Uiso   1.00
H208   H     0.37085   0.17594   0.70282   0.00000  Uiso   1.00
H209   H     0.12909   0.32408   0.29723   0.00000  Uiso   1.00
H210   H     0.32406   0.37084   0.70283   0.00000  Uiso   1.00
H211   H     0.17593   0.12910   0.29722   0.00000  Uiso   1.00
H212   H     0.12915   0.32406   0.70282   0.00000  Uiso   1.00
H213   H     0.37091   0.17592   0.29723   0.00000  Uiso   1.00
H214   H     0.17594   0.12916   0.70283   0.00000  Uiso   1.00
H215   H     0.44735   0.27546   0.97439   0.00000  Uiso   1.00
H216   H     0.32407   0.37090   0.29722   0.00000  Uiso   1.00
H217   H     0.37084   0.32406   0.29717   0.00000  Uiso   1.00
H218   H     0.12910   0.17592   0.70277   0.00000  Uiso   1.00
H219   H     0.32406   0.12915   0.29717   0.00000  Uiso   1.00
H220   H     0.17592   0.37091   0.70277   0.00000  Uiso   1.00
H221   H     0.12916   0.17594   0.29717   0.00000  Uiso   1.00
H222   H     0.37090   0.32408   0.70277   0.00000  Uiso   1.00
H223   H     0.17594   0.37085   0.29717   0.00000  Uiso   1.00
H224   H     0.32408   0.12909   0.70277   0.00000  Uiso   1.00
H225   H     0.16956   0.03787   0.11997   0.00000  Uiso   1.00
H226   H     0.27550   0.44737   0.02561   0.00000  Uiso   1.00
H227   H     0.16857   0.08700   0.11932   0.00000  Uiso   1.00
H228   H     0.16733   0.06203   0.07418   0.00000  Uiso   1.00
H229   H     0.23129   0.06646   0.13232   0.00000  Uiso   1.00
H230   H     0.22912   0.08855   0.08655   0.00000  Uiso   1.00
H231   H     0.33055   0.03764   0.88005   0.00000  Uiso   1.00
H232   H     0.33167   0.08677   0.88069   0.00000  Uiso   1.00
H233   H     0.33285   0.06181   0.92583   0.00000  Uiso   1.00
H234   H     0.26890   0.06641   0.86769   0.00000  Uiso   1.00
H235   H     0.27113   0.08849   0.91346   0.00000  Uiso   1.00
H236   H     0.46238   0.16943   0.11995   0.00000  Uiso   1.00
H237   H     0.22434   0.44745   0.97440   0.00000  Uiso   1.00
H238   H     0.41325   0.16830   0.11931   0.00000  Uiso   1.00
H239   H     0.43821   0.16713   0.07417   0.00000  Uiso   1.00
H240   H     0.43360   0.23108   0.13231   0.00000  Uiso   1.00
H241   H     0.41151   0.22884   0.08654   0.00000  Uiso   1.00
H242   H     0.46207   0.33040   0.88003   0.00000  Uiso   1.00
H243   H     0.41294   0.33135   0.88066   0.00000  Uiso   1.00
H244   H     0.43789   0.33262   0.92580   0.00000  Uiso   1.00
H245   H     0.43353   0.26864   0.86768   0.00000  Uiso   1.00
H246   H     0.41143   0.27080   0.91345   0.00000  Uiso   1.00
H247   H     0.33043   0.46215   0.11997   0.00000  Uiso   1.00
H248   H     0.05254   0.27568   0.02560   0.00000  Uiso   1.00
H249   H     0.33143   0.41302   0.11933   0.00000  Uiso   1.00
H250   H     0.33268   0.43798   0.07419   0.00000  Uiso   1.00
H251   H     0.26871   0.43354   0.13232   0.00000  Uiso   1.00
H252   H     0.27089   0.41145   0.08654   0.00000  Uiso   1.00
H253   H     0.16945   0.46236   0.88005   0.00000  Uiso   1.00
H254   H     0.16833   0.41323   0.88069   0.00000  Uiso   1.00
H255   H     0.16715   0.43819   0.92583   0.00000  Uiso   1.00
H256   H     0.23110   0.43359   0.86769   0.00000  Uiso   1.00
H257   H     0.22887   0.41151   0.91346   0.00000  Uiso   1.00
H258   H     0.03762   0.33057   0.11994   0.00000  Uiso   1.00
H259   H     0.05265   0.22454   0.97439   0.00000  Uiso   1.00
H260   H     0.08674   0.33171   0.11931   0.00000  Uiso   1.00
H261   H     0.06178   0.33287   0.07417   0.00000  Uiso   1.00
H262   H     0.06640   0.26892   0.13231   0.00000  Uiso   1.00
H263   H     0.08848   0.27116   0.08654   0.00000  Uiso   1.00
H264   H     0.03793   0.16960   0.88003   0.00000  Uiso   1.00
H265   H     0.08706   0.16865   0.88067   0.00000  Uiso   1.00
H266   H     0.06210   0.16738   0.92581   0.00000  Uiso   1.00
H267   H     0.06647   0.23135   0.86768   0.00000  Uiso   1.00
H268   H     0.08857   0.22920   0.91345   0.00000  Uiso   1.00
H269   H     0.41939   0.28754   0.61992   0.00000  Uiso   1.00
H270   H     0.47427   0.30252   0.52560   0.00000  Uiso   1.00
H271   H     0.41821   0.33667   0.61930   0.00000  Uiso   1.00
H272   H     0.41707   0.31171   0.57415   0.00000  Uiso   1.00
H273   H     0.48100   0.31638   0.63231   0.00000  Uiso   1.00
H274   H     0.47876   0.33847   0.58654   0.00000  Uiso   1.00
H275   H     0.08040   0.28795   0.38003   0.00000  Uiso   1.00
H276   H     0.08134   0.33708   0.38067   0.00000  Uiso   1.00
H277   H     0.08261   0.31212   0.42581   0.00000  Uiso   1.00
H278   H     0.01864   0.31648   0.36768   0.00000  Uiso   1.00
H279   H     0.02078   0.33858   0.41345   0.00000  Uiso   1.00
H280   H     0.21257   0.41933   0.61993   0.00000  Uiso   1.00
O281   O     0.25000  -0.00000   0.25000   0.00000  Uiso   1.00
O282   O     0.25000   0.46964   0.66317   0.00000  Uiso   1.00
O283   O     0.46964   0.25000   0.33683   0.00000  Uiso   1.00
O284   O     0.03036   0.25000   0.66317   0.00000  Uiso   1.00
O285   O     0.00000   0.21964   0.83683   0.00000  Uiso   1.00
O286   O     0.00000   0.28036   0.16317   0.00000  Uiso   1.00
O287   O     0.28036  -0.00000   0.83683   0.00000  Uiso   1.00
O288   O     0.21964  -0.00000   0.16317   0.00000  Uiso   1.00
O289   O     0.00000   0.28036   0.83683   0.00000  Uiso   1.00
O290   O     0.00000   0.21964   0.16317   0.00000  Uiso   1.00
O291   O     0.21964  -0.00000   0.83683   0.00000  Uiso   1.00
O292   O     0.25000   0.00000   0.75000   0.00000  Uiso   1.00
O293   O     0.28036  -0.00000   0.16317   0.00000  Uiso   1.00
O294   O     0.20725   0.07307   0.27282   0.00000  Uiso   1.00
O295   O     0.29274   0.42693   0.72718   0.00000  Uiso   1.00
O296   O     0.42693   0.20726   0.27282   0.00000  Uiso   1.00
O297   O     0.07307   0.29275   0.72718   0.00000  Uiso   1.00
O298   O     0.29274   0.42693   0.27282   0.00000  Uiso   1.00
O299   O     0.20725   0.07307   0.72718   0.00000  Uiso   1.00
O300   O     0.07307   0.29275   0.27282   0.00000  Uiso   1.00
O301   O     0.42693   0.20726   0.72718   0.00000  Uiso   1.00
O302   O     0.20725   0.42693   0.72718   0.00000  Uiso   1.00
O303   O     0.00000   0.25000   0.25000   0.00000  Uiso   1.00
O304   O     0.29274   0.07307   0.27282   0.00000  Uiso   1.00
O305   O     0.42693   0.29275   0.72718   0.00000  Uiso   1.00
O306   O     0.07307   0.20726   0.27282   0.00000  Uiso   1.00
O307   O     0.29274   0.07307   0.72718   0.00000  Uiso   1.00
O308   O     0.20725   0.42693   0.27282   0.00000  Uiso   1.00
O309   O     0.07307   0.20726   0.72718   0.00000  Uiso   1.00
O310   O     0.42693   0.29275   0.27282   0.00000  Uiso   1.00
O311   O     0.45725   0.32307   0.77282   0.00000  Uiso   1.00
O312   O     0.04274   0.17693   0.22718   0.00000  Uiso   1.00
O313   O     0.17693   0.45726   0.77282   0.00000  Uiso   1.00
O314   O     0.00000   0.25000   0.75000   0.00000  Uiso   1.00
O315   O     0.32307   0.04274   0.22718   0.00000  Uiso   1.00
O316   O     0.04274   0.17693   0.77282   0.00000  Uiso   1.00
O317   O     0.45725   0.32307   0.22718   0.00000  Uiso   1.00
O318   O     0.32307   0.04274   0.77282   0.00000  Uiso   1.00
O319   O     0.17693   0.45726   0.22718   0.00000  Uiso   1.00
O320   O     0.45725   0.17693   0.22718   0.00000  Uiso   1.00
O321   O     0.04274   0.32307   0.77282   0.00000  Uiso   1.00
O322   O     0.17693   0.04274   0.22718   0.00000  Uiso   1.00
O323   O     0.32307   0.45726   0.77282   0.00000  Uiso   1.00
O324   O     0.04274   0.32307   0.22718   0.00000  Uiso   1.00
O325   O     0.25000   0.46964   0.33683   0.00000  Uiso   1.00
O326   O     0.45725   0.17693   0.77282   0.00000  Uiso   1.00
O327   O     0.32307   0.45726   0.22718   0.00000  Uiso   1.00
O328   O     0.17693   0.04274   0.77282   0.00000  Uiso   1.00
O329   O     0.25000   0.03036   0.66317   0.00000  Uiso   1.00
O330   O     0.03036   0.25000   0.33683   0.00000  Uiso   1.00
O331   O     0.46964   0.25000   0.66317   0.00000  Uiso   1.00
O332   O     0.25000   0.03036   0.33683   0.00000  Uiso   1.00
Zn333  Zn    0.20660   0.00000   0.21760   0.00000  Uiso   1.00
Zn334  Zn    0.04340   0.25000   0.28240   0.00000  Uiso   1.00
Zn335  Zn    0.25000   0.45660   0.71760   0.00000  Uiso   1.00
Zn336  Zn    0.25000   0.04340   0.28240   0.00000  Uiso   1.00
Zn337  Zn    0.04340   0.25000   0.71760   0.00000  Uiso   1.00
Zn338  Zn    0.45660   0.25000   0.28240   0.00000  Uiso   1.00
Zn339  Zn    0.25000   0.04340   0.71760   0.00000  Uiso   1.00
Zn340  Zn    0.25000   0.45660   0.28240   0.00000  Uiso   1.00
Zn341  Zn    0.29340  -0.00000   0.78240   0.00000  Uiso   1.00
Zn342  Zn    0.00000   0.20660   0.21760   0.00000  Uiso   1.00
Zn343  Zn    0.00000   0.29340   0.78240   0.00000  Uiso   1.00
Zn344  Zn    0.29340   0.00000   0.21760   0.00000  Uiso   1.00
Zn345  Zn    0.20660  -0.00000   0.78240   0.00000  Uiso   1.00
Zn346  Zn    0.00000   0.29340   0.21760   0.00000  Uiso   1.00
Zn347  Zn    0.00000   0.20660   0.78240   0.00000  Uiso   1.00
Zn348  Zn    0.45660   0.25000   0.71760   0.00000  Uiso   1.00
C349   C     0.73569   0.02973   0.04153   0.00000  Uiso   1.00
C350   C     0.51427   0.27975   0.45847   0.00000  Uiso   1.00
C351   C     0.84815   0.40185   0.75000   0.00000  Uiso   1.00
C352   C     0.90186   0.15186   0.25000   0.00000  Uiso   1.00
C353   C     0.59815   0.34815   0.75000   0.00000  Uiso   1.00
C354   C     0.84814   0.40186   0.25000   0.00000  Uiso   1.00
C355   C     0.65185   0.09815   0.75000   0.00000  Uiso   1.00
C356   C     0.59814   0.15186   0.75000   0.00000  Uiso   1.00
C357   C     0.90185   0.34815   0.25000   0.00000  Uiso   1.00
C358   C     0.65186   0.40186   0.75000   0.00000  Uiso   1.00
C359   C     0.84815   0.09815   0.25000   0.00000  Uiso   1.00
C360   C     0.90186   0.34814   0.75000   0.00000  Uiso   1.00
C361   C     0.72036   0.48552   0.54152   0.00000  Uiso   1.00
C362   C     0.59815   0.15185   0.25000   0.00000  Uiso   1.00
C363   C     0.84814   0.09814   0.75000   0.00000  Uiso   1.00
C364   C     0.65185   0.40185   0.25000   0.00000  Uiso   1.00
C365   C     0.75000   0.00000   0.10258   0.00000  Uiso   1.00
C366   C     0.75000  -0.00000   0.89742   0.00000  Uiso   1.00
C367   C     0.50000   0.25000   0.10258   0.00000  Uiso   1.00
C368   C     0.50000   0.25000   0.89742   0.00000  Uiso   1.00
C369   C     0.50000   0.25000   0.60258   0.00000  Uiso   1.00
C370   C     0.50000   0.25000   0.39742   0.00000  Uiso   1.00
C371   C     0.75000   0.00000   0.60257   0.00000  Uiso   1.00
C372   C     0.72021   0.01419   0.45846   0.00000  Uiso   1.00
C373   C     0.75000   0.00000   0.39742   0.00000  Uiso   1.00
C374   C     0.72043   0.06362   0.10238   0.00000  Uiso   1.00
C375   C     0.67889   0.06245   0.10400   0.00000  Uiso   1.00
C376   C     0.77976   0.06354   0.89762   0.00000  Uiso   1.00
C377   C     0.82129   0.06225   0.89601   0.00000  Uiso   1.00
C378   C     0.93647   0.22022   0.10237   0.00000  Uiso   1.00
C379   C     0.93777   0.17869   0.10398   0.00000  Uiso   1.00
C380   C     0.93636   0.27952   0.89761   0.00000  Uiso   1.00
C381   C     0.93750   0.32105   0.89599   0.00000  Uiso   1.00
C382   C     0.77958   0.43638   0.10238   0.00000  Uiso   1.00
C383   C     0.51443   0.22033   0.54153   0.00000  Uiso   1.00
C384   C     0.82111   0.43756   0.10401   0.00000  Uiso   1.00
C385   C     0.72025   0.43646   0.89762   0.00000  Uiso   1.00
C386   C     0.67871   0.43775   0.89601   0.00000  Uiso   1.00
C387   C     0.56353   0.27978   0.10238   0.00000  Uiso   1.00
C388   C     0.56223   0.32131   0.10399   0.00000  Uiso   1.00
C389   C     0.56364   0.22048   0.89761   0.00000  Uiso   1.00
C390   C     0.56251   0.17895   0.89599   0.00000  Uiso   1.00
C391   C     0.97016   0.31350   0.60237   0.00000  Uiso   1.00
C392   C     0.92862   0.31217   0.60397   0.00000  Uiso   1.00
C393   C     0.52951   0.31365   0.39761   0.00000  Uiso   1.00
C394   C     0.98573   0.22025   0.45847   0.00000  Uiso   1.00
C395   C     0.57104   0.31252   0.39600   0.00000  Uiso   1.00
C396   C     0.68654   0.47006   0.60237   0.00000  Uiso   1.00
C397   C     0.68794   0.42853   0.60397   0.00000  Uiso   1.00
C398   C     0.68627   0.02933   0.39760   0.00000  Uiso   1.00
C399   C     0.68729   0.07087   0.39598   0.00000  Uiso   1.00
C400   C     0.52984   0.18650   0.60237   0.00000  Uiso   1.00
C401   C     0.57137   0.18781   0.60396   0.00000  Uiso   1.00
C402   C     0.97049   0.18635   0.39761   0.00000  Uiso   1.00
C403   C     0.92895   0.18748   0.39599   0.00000  Uiso   1.00
C404   C     0.81345   0.02994   0.60237   0.00000  Uiso   1.00
C405   C     0.77964   0.01448   0.54152   0.00000  Uiso   1.00
C406   C     0.81206   0.07147   0.60397   0.00000  Uiso   1.00
C407   C     0.81373   0.47068   0.39761   0.00000  Uiso   1.00
C408   C     0.81272   0.42914   0.39598   0.00000  Uiso   1.00
C409   C     0.77979   0.48581   0.45846   0.00000  Uiso   1.00
C410   C     0.73549   0.03018   0.08211   0.00000  Uiso   1.00
C411   C     0.76460   0.03014   0.91789   0.00000  Uiso   1.00
C412   C     0.96987   0.23539   0.08211   0.00000  Uiso   1.00
C413   C     0.76439   0.02969   0.95847   0.00000  Uiso   1.00
C414   C     0.96980   0.26449   0.91789   0.00000  Uiso   1.00
C415   C     0.76451   0.46982   0.08211   0.00000  Uiso   1.00
C416   C     0.73540   0.46986   0.91789   0.00000  Uiso   1.00
C417   C     0.53013   0.26462   0.08211   0.00000  Uiso   1.00
C418   C     0.53019   0.23551   0.91789   0.00000  Uiso   1.00
C419   C     0.98535   0.28012   0.58211   0.00000  Uiso   1.00
C420   C     0.51448   0.28020   0.41789   0.00000  Uiso   1.00
C421   C     0.71990   0.48531   0.58210   0.00000  Uiso   1.00
C422   C     0.71976   0.01439   0.41788   0.00000  Uiso   1.00
C423   C     0.51464   0.21988   0.58211   0.00000  Uiso   1.00
C424   C     0.97032   0.23559   0.04153   0.00000  Uiso   1.00
C425   C     0.98552   0.21980   0.41789   0.00000  Uiso   1.00
C426   C     0.78010   0.01469   0.58210   0.00000  Uiso   1.00
C427   C     0.78024   0.48561   0.41788   0.00000  Uiso   1.00
C428   C     0.75000  -0.00000   0.02128   0.00000  Uiso   1.00
C429   C     0.75000  -0.00000   0.97872   0.00000  Uiso   1.00
C430   C     0.50000   0.25000   0.02128   0.00000  Uiso   1.00
C431   C     0.50000   0.25000   0.97872   0.00000  Uiso   1.00
C432   C     0.50000   0.25000   0.52128   0.00000  Uiso   1.00
C433   C     0.50000   0.25000   0.47872   0.00000  Uiso   1.00
C434   C     0.75000  -0.00000   0.52127   0.00000  Uiso   1.00
C435   C     0.97026   0.26428   0.95847   0.00000  Uiso   1.00
C436   C     0.75000  -0.00000   0.47871   0.00000  Uiso   1.00
C437   C     0.75000  -0.00000   0.35506   0.00000  Uiso   1.00
C438   C     0.75000   0.00000   0.64493   0.00000  Uiso   1.00
C439   C     0.50000   0.25000   0.35506   0.00000  Uiso   1.00
C440   C     0.50000   0.25000   0.64493   0.00000  Uiso   1.00
C441   C     0.50000   0.25000   0.85506   0.00000  Uiso   1.00
C442   C     0.50000   0.25000   0.14493   0.00000  Uiso   1.00
C443   C     0.75000  -0.00000   0.85507   0.00000  Uiso   1.00
C444   C     0.75000   0.00000   0.14494   0.00000  Uiso   1.00
C445   C     0.67992   0.07008   0.25000   0.00000  Uiso   1.00
C446   C     0.76430   0.47027   0.04153   0.00000  Uiso   1.00
C447   C     0.82009   0.42991   0.75000   0.00000  Uiso   1.00
C448   C     0.92992   0.17992   0.25000   0.00000  Uiso   1.00
C449   C     0.57009   0.32009   0.75000   0.00000  Uiso   1.00
C450   C     0.82008   0.42992   0.25000   0.00000  Uiso   1.00
C451   C     0.67991   0.07009   0.75000   0.00000  Uiso   1.00
C452   C     0.57008   0.32008   0.25000   0.00000  Uiso   1.00
C453   C     0.92991   0.17991   0.75000   0.00000  Uiso   1.00
C454   C     0.67992   0.42992   0.75000   0.00000  Uiso   1.00
C455   C     0.82009   0.07009   0.25000   0.00000  Uiso   1.00
C456   C     0.92992   0.32008   0.75000   0.00000  Uiso   1.00
C457   C     0.73561   0.47031   0.95847   0.00000  Uiso   1.00
C458   C     0.57009   0.17991   0.25000   0.00000  Uiso   1.00
C459   C     0.82008   0.07008   0.75000   0.00000  Uiso   1.00
C460   C     0.67991   0.42991   0.25000   0.00000  Uiso   1.00
C461   C     0.57008   0.17992   0.75000   0.00000  Uiso   1.00
C462   C     0.92991   0.32009   0.25000   0.00000  Uiso   1.00
C463   C     0.62287   0.40383   0.22355   0.00000  Uiso   1.00
C464   C     0.87710   0.09617   0.77647   0.00000  Uiso   1.00
C465   C     0.59617   0.12287   0.22356   0.00000  Uiso   1.00
C466   C     0.90383   0.37710   0.77647   0.00000  Uiso   1.00
C467   C     0.87713   0.09617   0.22355   0.00000  Uiso   1.00
C468   C     0.52968   0.26441   0.04153   0.00000  Uiso   1.00
C469   C     0.62290   0.40383   0.77647   0.00000  Uiso   1.00
C470   C     0.90383   0.37713   0.22356   0.00000  Uiso   1.00
C471   C     0.59617   0.12290   0.77646   0.00000  Uiso   1.00
C472   C     0.62287   0.09617   0.77644   0.00000  Uiso   1.00
C473   C     0.87710   0.40384   0.22354   0.00000  Uiso   1.00
C474   C     0.59617   0.37713   0.77645   0.00000  Uiso   1.00
C475   C     0.90383   0.12290   0.22353   0.00000  Uiso   1.00
C476   C     0.87713   0.40383   0.77645   0.00000  Uiso   1.00
C477   C     0.62290   0.09616   0.22354   0.00000  Uiso   1.00
C478   C     0.90383   0.12287   0.77645   0.00000  Uiso   1.00
C479   C     0.52974   0.23572   0.95847   0.00000  Uiso   1.00
C480   C     0.59617   0.37710   0.22353   0.00000  Uiso   1.00
C481   C     0.87287   0.15383   0.72355   0.00000  Uiso   1.00
C482   C     0.62710   0.34617   0.27647   0.00000  Uiso   1.00
C483   C     0.84617   0.37287   0.72355   0.00000  Uiso   1.00
C484   C     0.65384   0.12710   0.27646   0.00000  Uiso   1.00
C485   C     0.62713   0.34617   0.72355   0.00000  Uiso   1.00
C486   C     0.87290   0.15383   0.27647   0.00000  Uiso   1.00
C487   C     0.65383   0.12713   0.72355   0.00000  Uiso   1.00
C488   C     0.84616   0.37290   0.27646   0.00000  Uiso   1.00
C489   C     0.87287   0.34617   0.27644   0.00000  Uiso   1.00
C490   C     0.98557   0.27967   0.54152   0.00000  Uiso   1.00
C491   C     0.62710   0.15383   0.72353   0.00000  Uiso   1.00
C492   C     0.84617   0.12713   0.27645   0.00000  Uiso   1.00
C493   C     0.65383   0.37290   0.72353   0.00000  Uiso   1.00
C494   C     0.62713   0.15383   0.27644   0.00000  Uiso   1.00
C495   C     0.87290   0.34617   0.72353   0.00000  Uiso   1.00
C496   C     0.65383   0.37287   0.27645   0.00000  Uiso   1.00
C497   C     0.84617   0.12710   0.72353   0.00000  Uiso   1.00
C498   C     0.59814   0.34814   0.25000   0.00000  Uiso   1.00
C499   C     0.90185   0.15185   0.75000   0.00000  Uiso   1.00
C500   C     0.65186   0.09814   0.25000   0.00000  Uiso   1.00
H501   H     0.72449   0.05263   0.02561   0.00000  Uiso   1.00
H502   H     0.52545   0.30266   0.47439   0.00000  Uiso   1.00
H503   H     0.66345   0.41808   0.61930   0.00000  Uiso   1.00
H504   H     0.68840   0.41698   0.57416   0.00000  Uiso   1.00
H505   H     0.68364   0.48091   0.63230   0.00000  Uiso   1.00
H506   H     0.66157   0.47863   0.58653   0.00000  Uiso   1.00
H507   H     0.71184   0.08028   0.38001   0.00000  Uiso   1.00
H508   H     0.66270   0.08109   0.38066   0.00000  Uiso   1.00
H509   H     0.68767   0.08244   0.42579   0.00000  Uiso   1.00
H510   H     0.68348   0.01845   0.36767   0.00000  Uiso   1.00
H511   H     0.66137   0.02054   0.41344   0.00000  Uiso   1.00
H512   H     0.58062   0.21243   0.61991   0.00000  Uiso   1.00
H513   H     0.69752   0.47418   0.52560   0.00000  Uiso   1.00
H514   H     0.58178   0.16331   0.61929   0.00000  Uiso   1.00
H515   H     0.58291   0.18826   0.57414   0.00000  Uiso   1.00
H516   H     0.51900   0.18362   0.63231   0.00000  Uiso   1.00
H517   H     0.52122   0.16153   0.58654   0.00000  Uiso   1.00
H518   H     0.91960   0.21206   0.38003   0.00000  Uiso   1.00
H519   H     0.91866   0.16292   0.38067   0.00000  Uiso   1.00
H520   H     0.91739   0.18789   0.42581   0.00000  Uiso   1.00
H521   H     0.98136   0.18353   0.36768   0.00000  Uiso   1.00
H522   H     0.97921   0.16142   0.41345   0.00000  Uiso   1.00
H523   H     0.78743   0.08067   0.61993   0.00000  Uiso   1.00
H524   H     0.69727   0.02530   0.47439   0.00000  Uiso   1.00
H525   H     0.83655   0.08192   0.61930   0.00000  Uiso   1.00
H526   H     0.81159   0.08302   0.57416   0.00000  Uiso   1.00
H527   H     0.81636   0.01909   0.63230   0.00000  Uiso   1.00
H528   H     0.83843   0.02137   0.58653   0.00000  Uiso   1.00
H529   H     0.78817   0.41972   0.38001   0.00000  Uiso   1.00
H530   H     0.83731   0.41892   0.38067   0.00000  Uiso   1.00
H531   H     0.81234   0.41757   0.42580   0.00000  Uiso   1.00
H532   H     0.81652   0.48156   0.36767   0.00000  Uiso   1.00
H533   H     0.83863   0.47947   0.41344   0.00000  Uiso   1.00
H534   H     0.52573   0.19748   0.52560   0.00000  Uiso   1.00
H535   H     0.97455   0.19734   0.47439   0.00000  Uiso   1.00
H536   H     0.80247   0.02582   0.52560   0.00000  Uiso   1.00
H537   H     0.80273   0.47470   0.47439   0.00000  Uiso   1.00
H538   H     0.62085   0.42594   0.20283   0.00000  Uiso   1.00
H539   H     0.87909   0.07408   0.79723   0.00000  Uiso   1.00
H540   H     0.57406   0.12084   0.20283   0.00000  Uiso   1.00
H541   H     0.77566   0.05255   0.97440   0.00000  Uiso   1.00
H542   H     0.92592   0.37910   0.79723   0.00000  Uiso   1.00
H543   H     0.87915   0.07406   0.20282   0.00000  Uiso   1.00
H544   H     0.62091   0.42592   0.79723   0.00000  Uiso   1.00
H545   H     0.92594   0.37916   0.20283   0.00000  Uiso   1.00
H546   H     0.57408   0.12090   0.79723   0.00000  Uiso   1.00
H547   H     0.62084   0.07406   0.79717   0.00000  Uiso   1.00
H548   H     0.87910   0.42593   0.20278   0.00000  Uiso   1.00
H549   H     0.57406   0.37915   0.79718   0.00000  Uiso   1.00
H550   H     0.92592   0.12090   0.20277   0.00000  Uiso   1.00
H551   H     0.87915   0.42594   0.79717   0.00000  Uiso   1.00
H552   H     0.94746   0.22432   0.02560   0.00000  Uiso   1.00
H553   H     0.62090   0.07407   0.20277   0.00000  Uiso   1.00
H554   H     0.92594   0.12085   0.79718   0.00000  Uiso   1.00
H555   H     0.57408   0.37910   0.20277   0.00000  Uiso   1.00
H556   H     0.87085   0.17594   0.70282   0.00000  Uiso   1.00
H557   H     0.62909   0.32408   0.29723   0.00000  Uiso   1.00
H558   H     0.82406   0.37084   0.70283   0.00000  Uiso   1.00
H559   H     0.67593   0.12910   0.29722   0.00000  Uiso   1.00
H560   H     0.62915   0.32406   0.70282   0.00000  Uiso   1.00
H561   H     0.87091   0.17592   0.29723   0.00000  Uiso   1.00
H562   H     0.67594   0.12916   0.70283   0.00000  Uiso   1.00
H563   H     0.94735   0.27546   0.97439   0.00000  Uiso   1.00
H564   H     0.82407   0.37090   0.29722   0.00000  Uiso   1.00
H565   H     0.87084   0.32406   0.29717   0.00000  Uiso   1.00
H566   H     0.62910   0.17592   0.70277   0.00000  Uiso   1.00
H567   H     0.82406   0.12915   0.29717   0.00000  Uiso   1.00
H568   H     0.67592   0.37091   0.70277   0.00000  Uiso   1.00
H569   H     0.62916   0.17594   0.29717   0.00000  Uiso   1.00
H570   H     0.87090   0.32408   0.70277   0.00000  Uiso   1.00
H571   H     0.67594   0.37085   0.29717   0.00000  Uiso   1.00
H572   H     0.82408   0.12909   0.70277   0.00000  Uiso   1.00
H573   H     0.66956   0.03787   0.11997   0.00000  Uiso   1.00
H574   H     0.77550   0.44737   0.02561   0.00000  Uiso   1.00
H575   H     0.66857   0.08700   0.11932   0.00000  Uiso   1.00
H576   H     0.66733   0.06203   0.07418   0.00000  Uiso   1.00
H577   H     0.73129   0.06646   0.13232   0.00000  Uiso   1.00
H578   H     0.72912   0.08855   0.08655   0.00000  Uiso   1.00
H579   H     0.83055   0.03764   0.88005   0.00000  Uiso   1.00
H580   H     0.83167   0.08677   0.88069   0.00000  Uiso   1.00
H581   H     0.83285   0.06181   0.92583   0.00000  Uiso   1.00
H582   H     0.76890   0.06641   0.86769   0.00000  Uiso   1.00
H583   H     0.77113   0.08849   0.91346   0.00000  Uiso   1.00
H584   H     0.96238   0.16943   0.11995   0.00000  Uiso   1.00
H585   H     0.72434   0.44745   0.97440   0.00000  Uiso   1.00
H586   H     0.91325   0.16830   0.11931   0.00000  Uiso   1.00
H587   H     0.93821   0.16713   0.07417   0.00000  Uiso   1.00
H588   H     0.93360   0.23108   0.13231   0.00000  Uiso   1.00
H589   H     0.91151   0.22884   0.08654   0.00000  Uiso   1.00
H590   H     0.96207   0.33040   0.88003   0.00000  Uiso   1.00
H591   H     0.91294   0.33135   0.88066   0.00000  Uiso   1.00
H592   H     0.93789   0.33262   0.92580   0.00000  Uiso   1.00
H593   H     0.93353   0.26864   0.86768   0.00000  Uiso   1.00
H594   H     0.91143   0.27080   0.91345   0.00000  Uiso   1.00
H595   H     0.83043   0.46215   0.11997   0.00000  Uiso   1.00
H596   H     0.55254   0.27568   0.02560   0.00000  Uiso   1.00
H597   H     0.83143   0.41302   0.11933   0.00000  Uiso   1.00
H598   H     0.83268   0.43798   0.07419   0.00000  Uiso   1.00
H599   H     0.76871   0.43354   0.13232   0.00000  Uiso   1.00
H600   H     0.77089   0.41145   0.08654   0.00000  Uiso   1.00
H601   H     0.66945   0.46236   0.88005   0.00000  Uiso   1.00
H602   H     0.66833   0.41323   0.88069   0.00000  Uiso   1.00
H603   H     0.66715   0.43819   0.92583   0.00000  Uiso   1.00
H604   H     0.73110   0.43359   0.86769   0.00000  Uiso   1.00
H605   H     0.72887   0.41151   0.91346   0.00000  Uiso   1.00
H606   H     0.53762   0.33057   0.11994   0.00000  Uiso   1.00
H607   H     0.55265   0.22454   0.97439   0.00000  Uiso   1.00
H608   H     0.58674   0.33171   0.11931   0.00000  Uiso   1.00
H609   H     0.56178   0.33287   0.07417   0.00000  Uiso   1.00
H610   H     0.56640   0.26892   0.13231   0.00000  Uiso   1.00
H611   H     0.58848   0.27116   0.08654   0.00000  Uiso   1.00
H612   H     0.53793   0.16960   0.88003   0.00000  Uiso   1.00
H613   H     0.58706   0.16865   0.88067   0.00000  Uiso   1.00
H614   H     0.56210   0.16738   0.92581   0.00000  Uiso   1.00
H615   H     0.56647   0.23135   0.86768   0.00000  Uiso   1.00
H616   H     0.58857   0.22920   0.91345   0.00000  Uiso   1.00
H617   H     0.91939   0.28754   0.61992   0.00000  Uiso   1.00
H618   H     0.97427   0.30252   0.52560   0.00000  Uiso   1.00
H619   H     0.91821   0.33667   0.61930   0.00000  Uiso   1.00
H620   H     0.91707   0.31171   0.57415   0.00000  Uiso   1.00
H621   H     0.98100   0.31638   0.63231   0.00000  Uiso   1.00
H622   H     0.97876   0.33847   0.58654   0.00000  Uiso   1.00
H623   H     0.58040   0.28795   0.38003   0.00000  Uiso   1.00
H624   H     0.58134   0.33708   0.38067   0.00000  Uiso   1.00
H625   H     0.58261   0.31212   0.42581   0.00000  Uiso   1.00
H626   H     0.51864   0.31648   0.36768   0.00000  Uiso   1.00
H627   H     0.52078   0.33858   0.41345   0.00000  Uiso   1.00
H628   H     0.71257   0.41933   0.61993   0.00000  Uiso   1.00
O629   O     0.75000  -0.00000   0.25000   0.00000  Uiso   1.00
O630   O     0.75000   0.46964   0.66317   0.00000  Uiso   1.00
O631   O     0.96964   0.25000   0.33683   0.00000  Uiso   1.00
O632   O     0.53036   0.25000   0.66317   0.00000  Uiso   1.00
O633   O     0.50000   0.21964   0.83683   0.00000  Uiso   1.00
O634   O     0.50000   0.28036   0.16317   0.00000  Uiso   1.00
O635   O     0.78036  -0.00000   0.83683   0.00000  Uiso   1.00
O636   O     0.71964  -0.00000   0.16317   0.00000  Uiso   1.00
O637   O     0.50000   0.28036   0.83683   0.00000  Uiso   1.00
O638   O     0.50000   0.21964   0.16317   0.00000  Uiso   1.00
O639   O     0.71964  -0.00000   0.83683   0.00000  Uiso   1.00
O640   O     0.75000   0.00000   0.75000   0.00000  Uiso   1.00
O641   O     0.78036  -0.00000   0.16317   0.00000  Uiso   1.00
O642   O     0.70725   0.07307   0.27282   0.00000  Uiso   1.00
O643   O     0.79274   0.42693   0.72718   0.00000  Uiso   1.00
O644   O     0.92693   0.20726   0.27282   0.00000  Uiso   1.00
O645   O     0.57307   0.29275   0.72718   0.00000  Uiso   1.00
O646   O     0.79274   0.42693   0.27282   0.00000  Uiso   1.00
O647   O     0.70725   0.07307   0.72718   0.00000  Uiso   1.00
O648   O     0.57307   0.29275   0.27282   0.00000  Uiso   1.00
O649   O     0.92693   0.20726   0.72718   0.00000  Uiso   1.00
O650   O     0.70725   0.42693   0.72718   0.00000  Uiso   1.00
O651   O     0.50000   0.25000   0.25000   0.00000  Uiso   1.00
O652   O     0.79274   0.07307   0.27282   0.00000  Uiso   1.00
O653   O     0.92693   0.29275   0.72718   0.00000  Uiso   1.00
O654   O     0.57307   0.20726   0.27282   0.00000  Uiso   1.00
O655   O     0.79274   0.07307   0.72718   0.00000  Uiso   1.00
O656   O     0.70725   0.42693   0.27282   0.00000  Uiso   1.00
O657   O     0.57307   0.20726   0.72718   0.00000  Uiso   1.00
O658   O     0.92693   0.29275   0.27282   0.00000  Uiso   1.00
O659   O     0.95725   0.32307   0.77282   0.00000  Uiso   1.00
O660   O     0.54274   0.17693   0.22718   0.00000  Uiso   1.00
O661   O     0.67693   0.45726   0.77282   0.00000  Uiso   1.00
O662   O     0.50000   0.25000   0.75000   0.00000  Uiso   1.00
O663   O     0.82307   0.04274   0.22718   0.00000  Uiso   1.00
O664   O     0.54274   0.17693   0.77282   0.00000  Uiso   1.00
O665   O     0.95725   0.32307   0.22718   0.00000  Uiso   1.00
O666   O     0.82307   0.04274   0.77282   0.00000  Uiso   1.00
O667   O     0.67693   0.45726   0.22718   0.00000  Uiso   1.00
O668   O     0.95725   0.17693   0.22718   0.00000  Uiso   1.00
O669   O     0.54274   0.32307   0.77282   0.00000  Uiso   1.00
O670   O     0.67693   0.04274   0.22718   0.00000  Uiso   1.00
O671   O     0.82307   0.45726   0.77282   0.00000  Uiso   1.00
O672   O     0.54274   0.32307   0.22718   0.00000  Uiso   1.00
O673   O     0.75000   0.46964   0.33683   0.00000  Uiso   1.00
O674   O     0.95725   0.17693   0.77282   0.00000  Uiso   1.00
O675   O     0.82307   0.45726   0.22718   0.00000  Uiso   1.00
O676   O     0.67693   0.04274   0.77282   0.00000  Uiso   1.00
O677   O     0.75000   0.03036   0.66317   0.00000  Uiso   1.00
O678   O     0.53036   0.25000   0.33683   0.00000  Uiso   1.00
O679   O     0.96964   0.25000   0.66317   0.00000  Uiso   1.00
O680   O     0.75000   0.03036   0.33683   0.00000  Uiso   1.00
Zn681  Zn    0.70660   0.00000   0.21760   0.00000  Uiso   1.00
Zn682  Zn    0.54340   0.25000   0.28240   0.00000  Uiso   1.00
Zn683  Zn    0.75000   0.45660   0.71760   0.00000  Uiso   1.00
Zn684  Zn    0.75000   0.04340   0.28240   0.00000  Uiso   1.00
Zn685  Zn    0.54340   0.25000   0.71760   0.00000  Uiso   1.00
Zn686  Zn    0.95660   0.25000   0.28240   0.00000  Uiso   1.00
Zn687  Zn    0.75000   0.04340   0.71760   0.00000  Uiso   1.00
Zn688  Zn    0.75000   0.45660   0.28240   0.00000  Uiso   1.00
Zn689  Zn    0.79340  -0.00000   0.78240   0.00000  Uiso   1.00
Zn690  Zn    0.50000   0.20660   0.21760   0.00000  Uiso   1.00
Zn691  Zn    0.50000   0.29340   0.78240   0.00000  Uiso   1.00
Zn692  Zn    0.79340   0.00000   0.21760   0.00000  Uiso   1.00
Zn693  Zn    0.70660  -0.00000   0.78240   0.00000  Uiso   1.00
Zn694  Zn    0.50000   0.29340   0.21760   0.00000  Uiso   1.00
Zn695  Zn    0.50000   0.20660   0.78240   0.00000  Uiso   1.00
Zn696  Zn    0.95660   0.25000   0.71760   0.00000  Uiso   1.00
C697   C     0.23569   0.52973   0.04153   0.00000  Uiso   1.00
C698   C     0.01427   0.77975   0.45847   0.00000  Uiso   1.00
C699   C     0.34815   0.90185   0.75000   0.00000  Uiso   1.00
C700   C     0.40186   0.65186   0.25000   0.00000  Uiso   1.00
C701   C     0.09815   0.84815   0.75000   0.00000  Uiso   1.00
C702   C     0.34814   0.90186   0.25000   0.00000  Uiso   1.00
C703   C     0.15185   0.59815   0.75000   0.00000  Uiso   1.00
C704   C     0.09814   0.65186   0.75000   0.00000  Uiso   1.00
C705   C     0.40185   0.84815   0.25000   0.00000  Uiso   1.00
C706   C     0.15186   0.90186   0.75000   0.00000  Uiso   1.00
C707   C     0.34815   0.59815   0.25000   0.00000  Uiso   1.00
C708   C     0.40186   0.84814   0.75000   0.00000  Uiso   1.00
C709   C     0.22036   0.98552   0.54152   0.00000  Uiso   1.00
C710   C     0.09815   0.65185   0.25000   0.00000  Uiso   1.00
C711   C     0.34814   0.59814   0.75000   0.00000  Uiso   1.00
C712   C     0.15185   0.90185   0.25000   0.00000  Uiso   1.00
C713   C     0.25000   0.50000   0.10258   0.00000  Uiso   1.00
C714   C     0.25000   0.50000   0.89742   0.00000  Uiso   1.00
C715   C    -0.00000   0.75000   0.10258   0.00000  Uiso   1.00
C716   C    -0.00000   0.75000   0.89742   0.00000  Uiso   1.00
C717   C    -0.00000   0.75000   0.60258   0.00000  Uiso   1.00
C718   C     0.00000   0.75000   0.39742   0.00000  Uiso   1.00
C719   C     0.25000   0.50000   0.60257   0.00000  Uiso   1.00
C720   C     0.22021   0.51419   0.45846   0.00000  Uiso   1.00
C721   C     0.25000   0.50000   0.39742   0.00000  Uiso   1.00
C722   C     0.22043   0.56362   0.10238   0.00000  Uiso   1.00
C723   C     0.17889   0.56245   0.10400   0.00000  Uiso   1.00
C724   C     0.27976   0.56354   0.89762   0.00000  Uiso   1.00
C725   C     0.32129   0.56225   0.89601   0.00000  Uiso   1.00
C726   C     0.43647   0.72022   0.10237   0.00000  Uiso   1.00
C727   C     0.43777   0.67869   0.10398   0.00000  Uiso   1.00
C728   C     0.43636   0.77952   0.89761   0.00000  Uiso   1.00
C729   C     0.43750   0.82105   0.89599   0.00000  Uiso   1.00
C730   C     0.27958   0.93638   0.10238   0.00000  Uiso   1.00
C731   C     0.01443   0.72033   0.54153   0.00000  Uiso   1.00
C732   C     0.32111   0.93756   0.10401   0.00000  Uiso   1.00
C733   C     0.22025   0.93646   0.89762   0.00000  Uiso   1.00
C734   C     0.17871   0.93775   0.89601   0.00000  Uiso   1.00
C735   C     0.06353   0.77978   0.10238   0.00000  Uiso   1.00
C736   C     0.06223   0.82131   0.10399   0.00000  Uiso   1.00
C737   C     0.06364   0.72048   0.89761   0.00000  Uiso   1.00
C738   C     0.06251   0.67895   0.89599   0.00000  Uiso   1.00
C739   C     0.47016   0.81350   0.60237   0.00000  Uiso   1.00
C740   C     0.42862   0.81217   0.60397   0.00000  Uiso   1.00
C741   C     0.02951   0.81365   0.39761   0.00000  Uiso   1.00
C742   C     0.48573   0.72025   0.45847   0.00000  Uiso   1.00
C743   C     0.07104   0.81252   0.39600   0.00000  Uiso   1.00
C744   C     0.18654   0.97006   0.60237   0.00000  Uiso   1.00
C745   C     0.18794   0.92853   0.60397   0.00000  Uiso   1.00
C746   C     0.18627   0.52933   0.39760   0.00000  Uiso   1.00
C747   C     0.18729   0.57087   0.39598   0.00000  Uiso   1.00
C748   C     0.02984   0.68650   0.60237   0.00000  Uiso   1.00
C749   C     0.07137   0.68781   0.60396   0.00000  Uiso   1.00
C750   C     0.47049   0.68635   0.39761   0.00000  Uiso   1.00
C751   C     0.42895   0.68748   0.39599   0.00000  Uiso   1.00
C752   C     0.31345   0.52994   0.60237   0.00000  Uiso   1.00
C753   C     0.27964   0.51448   0.54152   0.00000  Uiso   1.00
C754   C     0.31206   0.57147   0.60397   0.00000  Uiso   1.00
C755   C     0.31373   0.97068   0.39761   0.00000  Uiso   1.00
C756   C     0.31272   0.92914   0.39598   0.00000  Uiso   1.00
C757   C     0.27979   0.98581   0.45846   0.00000  Uiso   1.00
C758   C     0.23549   0.53018   0.08211   0.00000  Uiso   1.00
C759   C     0.26460   0.53014   0.91789   0.00000  Uiso   1.00
C760   C     0.46987   0.73539   0.08211   0.00000  Uiso   1.00
C761   C     0.26439   0.52969   0.95847   0.00000  Uiso   1.00
C762   C     0.46980   0.76449   0.91789   0.00000  Uiso   1.00
C763   C     0.26451   0.96982   0.08211   0.00000  Uiso   1.00
C764   C     0.23540   0.96986   0.91789   0.00000  Uiso   1.00
C765   C     0.03013   0.76462   0.08211   0.00000  Uiso   1.00
C766   C     0.03019   0.73551   0.91789   0.00000  Uiso   1.00
C767   C     0.48535   0.78012   0.58211   0.00000  Uiso   1.00
C768   C     0.01448   0.78020   0.41789   0.00000  Uiso   1.00
C769   C     0.21990   0.98531   0.58210   0.00000  Uiso   1.00
C770   C     0.21976   0.51439   0.41788   0.00000  Uiso   1.00
C771   C     0.01464   0.71988   0.58211   0.00000  Uiso   1.00
C772   C     0.47032   0.73559   0.04153   0.00000  Uiso   1.00
C773   C     0.48552   0.71980   0.41789   0.00000  Uiso   1.00
C774   C     0.28010   0.51469   0.58210   0.00000  Uiso   1.00
C775   C     0.28024   0.98561   0.41788   0.00000  Uiso   1.00
C776   C     0.25000   0.50000   0.02128   0.00000  Uiso   1.00
C777   C     0.25000   0.50000   0.97872   0.00000  Uiso   1.00
C778   C    -0.00000   0.75000   0.02128   0.00000  Uiso   1.00
C779   C    -0.00000   0.75000   0.97872   0.00000  Uiso   1.00
C780   C     0.00000   0.75000   0.52128   0.00000  Uiso   1.00
C781   C     0.00000   0.75000   0.47872   0.00000  Uiso   1.00
C782   C     0.25000   0.50000   0.52127   0.00000  Uiso   1.00
C783   C     0.47026   0.76428   0.95847   0.00000  Uiso   1.00
C784   C     0.25000   0.50000   0.47871   0.00000  Uiso   1.00
C785   C     0.25000   0.50000   0.35506   0.00000  Uiso   1.00
C786   C     0.25000   0.50000   0.64493   0.00000  Uiso   1.00
C787   C     0.00000   0.75000   0.35506   0.00000  Uiso   1.00
C788   C    -0.00000   0.75000   0.64493   0.00000  Uiso   1.00
C789   C     0.00000   0.75000   0.85506   0.00000  Uiso   1.00
C790   C    -0.00000   0.75000   0.14493   0.00000  Uiso   1.00
C791   C     0.25000   0.50000   0.85507   0.00000  Uiso   1.00
C792   C     0.25000   0.50000   0.14494   0.00000  Uiso   1.00
C793   C     0.17992   0.57008   0.25000   0.00000  Uiso   1.00
C794   C     0.26430   0.97027   0.04153   0.00000  Uiso   1.00
C795   C     0.32009   0.92991   0.75000   0.00000  Uiso   1.00
C796   C     0.42992   0.67992   0.25000   0.00000  Uiso   1.00
C797   C     0.07009   0.82009   0.75000   0.00000  Uiso   1.00
C798   C     0.32008   0.92992   0.25000   0.00000  Uiso   1.00
C799   C     0.17991   0.57009   0.75000   0.00000  Uiso   1.00
C800   C     0.07008   0.82008   0.25000   0.00000  Uiso   1.00
C801   C     0.42991   0.67991   0.75000   0.00000  Uiso   1.00
C802   C     0.17992   0.92992   0.75000   0.00000  Uiso   1.00
C803   C     0.32009   0.57009   0.25000   0.00000  Uiso   1.00
C804   C     0.42992   0.82008   0.75000   0.00000  Uiso   1.00
C805   C     0.23561   0.97031   0.95847   0.00000  Uiso   1.00
C806   C     0.07009   0.67991   0.25000   0.00000  Uiso   1.00
C807   C     0.32008   0.57008   0.75000   0.00000  Uiso   1.00
C808   C     0.17991   0.92991   0.25000   0.00000  Uiso   1.00
C809   C     0.07008   0.67992   0.75000   0.00000  Uiso   1.00
C810   C     0.42991   0.82009   0.25000   0.00000  Uiso   1.00
C811   C     0.12287   0.90383   0.22355   0.00000  Uiso   1.00
C812   C     0.37710   0.59617   0.77647   0.00000  Uiso   1.00
C813   C     0.09617   0.62287   0.22356   0.00000  Uiso   1.00
C814   C     0.40383   0.87710   0.77647   0.00000  Uiso   1.00
C815   C     0.37713   0.59617   0.22355   0.00000  Uiso   1.00
C816   C     0.02968   0.76441   0.04153   0.00000  Uiso   1.00
C817   C     0.12290   0.90383   0.77647   0.00000  Uiso   1.00
C818   C     0.40383   0.87713   0.22356   0.00000  Uiso   1.00
C819   C     0.09617   0.62290   0.77646   0.00000  Uiso   1.00
C820   C     0.12287   0.59617   0.77644   0.00000  Uiso   1.00
C821   C     0.37710   0.90384   0.22354   0.00000  Uiso   1.00
C822   C     0.09617   0.87713   0.77645   0.00000  Uiso   1.00
C823   C     0.40383   0.62290   0.22353   0.00000  Uiso   1.00
C824   C     0.37713   0.90383   0.77645   0.00000  Uiso   1.00
C825   C     0.12290   0.59616   0.22354   0.00000  Uiso   1.00
C826   C     0.40383   0.62287   0.77645   0.00000  Uiso   1.00
C827   C     0.02974   0.73572   0.95847   0.00000  Uiso   1.00
C828   C     0.09617   0.87710   0.22353   0.00000  Uiso   1.00
C829   C     0.37287   0.65383   0.72355   0.00000  Uiso   1.00
C830   C     0.12710   0.84617   0.27647   0.00000  Uiso   1.00
C831   C     0.34617   0.87287   0.72355   0.00000  Uiso   1.00
C832   C     0.15384   0.62710   0.27646   0.00000  Uiso   1.00
C833   C     0.12713   0.84617   0.72355   0.00000  Uiso   1.00
C834   C     0.37290   0.65383   0.27647   0.00000  Uiso   1.00
C835   C     0.15383   0.62713   0.72355   0.00000  Uiso   1.00
C836   C     0.34616   0.87290   0.27646   0.00000  Uiso   1.00
C837   C     0.37287   0.84617   0.27644   0.00000  Uiso   1.00
C838   C     0.48557   0.77967   0.54152   0.00000  Uiso   1.00
C839   C     0.12710   0.65383   0.72353   0.00000  Uiso   1.00
C840   C     0.34617   0.62713   0.27645   0.00000  Uiso   1.00
C841   C     0.15383   0.87290   0.72353   0.00000  Uiso   1.00
C842   C     0.12713   0.65383   0.27644   0.00000  Uiso   1.00
C843   C     0.37290   0.84617   0.72353   0.00000  Uiso   1.00
C844   C     0.15383   0.87287   0.27645   0.00000  Uiso   1.00
C845   C     0.34617   0.62710   0.72353   0.00000  Uiso   1.00
C846   C     0.09814   0.84814   0.25000   0.00000  Uiso   1.00
C847   C     0.40185   0.65185   0.75000   0.00000  Uiso   1.00
C848   C     0.15186   0.59814   0.25000   0.00000  Uiso   1.00
H849   H     0.22449   0.55263   0.02561   0.00000  Uiso   1.00
H850   H     0.02545   0.80266   0.47439   0.00000  Uiso   1.00
H851   H     0.16345   0.91808   0.61930   0.00000  Uiso   1.00
H852   H     0.18840   0.91698   0.57416   0.00000  Uiso   1.00
H853   H     0.18364   0.98091   0.63230   0.00000  Uiso   1.00
H854   H     0.16157   0.97863   0.58653   0.00000  Uiso   1.00
H855   H     0.21184   0.58028   0.38001   0.00000  Uiso   1.00
H856   H     0.16270   0.58109   0.38066   0.00000  Uiso   1.00
H857   H     0.18767   0.58244   0.42579   0.00000  Uiso   1.00
H858   H     0.18348   0.51845   0.36767   0.00000  Uiso   1.00
H859   H     0.16137   0.52054   0.41344   0.00000  Uiso   1.00
H860   H     0.08062   0.71243   0.61991   0.00000  Uiso   1.00
H861   H     0.19752   0.97418   0.52560   0.00000  Uiso   1.00
H862   H     0.08178   0.66331   0.61929   0.00000  Uiso   1.00
H863   H     0.08291   0.68826   0.57414   0.00000  Uiso   1.00
H864   H     0.01900   0.68362   0.63231   0.00000  Uiso   1.00
H865   H     0.02122   0.66153   0.58654   0.00000  Uiso   1.00
H866   H     0.41960   0.71206   0.38003   0.00000  Uiso   1.00
H867   H     0.41866   0.66292   0.38067   0.00000  Uiso   1.00
H868   H     0.41739   0.68789   0.42581   0.00000  Uiso   1.00
H869   H     0.48136   0.68353   0.36768   0.00000  Uiso   1.00
H870   H     0.47921   0.66142   0.41345   0.00000  Uiso   1.00
H871   H     0.28743   0.58067   0.61993   0.00000  Uiso   1.00
H872   H     0.19727   0.52530   0.47439   0.00000  Uiso   1.00
H873   H     0.33655   0.58192   0.61930   0.00000  Uiso   1.00
H874   H     0.31159   0.58302   0.57416   0.00000  Uiso   1.00
H875   H     0.31636   0.51909   0.63230   0.00000  Uiso   1.00
H876   H     0.33843   0.52137   0.58653   0.00000  Uiso   1.00
H877   H     0.28817   0.91972   0.38001   0.00000  Uiso   1.00
H878   H     0.33731   0.91892   0.38067   0.00000  Uiso   1.00
H879   H     0.31234   0.91757   0.42580   0.00000  Uiso   1.00
H880   H     0.31652   0.98156   0.36767   0.00000  Uiso   1.00
H881   H     0.33863   0.97947   0.41344   0.00000  Uiso   1.00
H882   H     0.02573   0.69748   0.52560   0.00000  Uiso   1.00
H883   H     0.47455   0.69734   0.47439   0.00000  Uiso   1.00
H884   H     0.30247   0.52582   0.52560   0.00000  Uiso   1.00
H885   H     0.30273   0.97470   0.47439   0.00000  Uiso   1.00
H886   H     0.12085   0.92594   0.20283   0.00000  Uiso   1.00
H887   H     0.37909   0.57408   0.79723   0.00000  Uiso   1.00
H888   H     0.07406   0.62084   0.20283   0.00000  Uiso   1.00
H889   H     0.27566   0.55255   0.97440   0.00000  Uiso   1.00
H890   H     0.42592   0.87910   0.79723   0.00000  Uiso   1.00
H891   H     0.37915   0.57406   0.20282   0.00000  Uiso   1.00
H892   H     0.12091   0.92592   0.79723   0.00000  Uiso   1.00
H893   H     0.42594   0.87916   0.20283   0.00000  Uiso   1.00
H894   H     0.07408   0.62090   0.79723   0.00000  Uiso   1.00
H895   H     0.12084   0.57406   0.79717   0.00000  Uiso   1.00
H896   H     0.37910   0.92593   0.20278   0.00000  Uiso   1.00
H897   H     0.07406   0.87915   0.79718   0.00000  Uiso   1.00
H898   H     0.42592   0.62090   0.20277   0.00000  Uiso   1.00
H899   H     0.37915   0.92594   0.79717   0.00000  Uiso   1.00
H900   H     0.44746   0.72432   0.02560   0.00000  Uiso   1.00
H901   H     0.12090   0.57407   0.20277   0.00000  Uiso   1.00
H902   H     0.42594   0.62085   0.79718   0.00000  Uiso   1.00
H903   H     0.07408   0.87910   0.20277   0.00000  Uiso   1.00
H904   H     0.37085   0.67594   0.70282   0.00000  Uiso   1.00
H905   H     0.12909   0.82408   0.29723   0.00000  Uiso   1.00
H906   H     0.32406   0.87084   0.70283   0.00000  Uiso   1.00
H907   H     0.17593   0.62910   0.29722   0.00000  Uiso   1.00
H908   H     0.12915   0.82406   0.70282   0.00000  Uiso   1.00
H909   H     0.37091   0.67592   0.29723   0.00000  Uiso   1.00
H910   H     0.17594   0.62916   0.70283   0.00000  Uiso   1.00
H911   H     0.44735   0.77546   0.97439   0.00000  Uiso   1.00
H912   H     0.32407   0.87090   0.29722   0.00000  Uiso   1.00
H913   H     0.37084   0.82406   0.29717   0.00000  Uiso   1.00
H914   H     0.12910   0.67592   0.70277   0.00000  Uiso   1.00
H915   H     0.32406   0.62915   0.29717   0.00000  Uiso   1.00
H916   H     0.17592   0.87091   0.70277   0.00000  Uiso   1.00
H917   H     0.12916   0.67594   0.29717   0.00000  Uiso   1.00
H918   H     0.37090   0.82408   0.70277   0.00000  Uiso   1.00
H919   H     0.17594   0.87085   0.29717   0.00000  Uiso   1.00
H920   H     0.32408   0.62909   0.70277   0.00000  Uiso   1.00
H921   H     0.16956   0.53787   0.11997   0.00000  Uiso   1.00
H922   H     0.27550   0.94737   0.02561   0.00000  Uiso   1.00
H923   H     0.16857   0.58700   0.11932   0.00000  Uiso   1.00
H924   H     0.16733   0.56203   0.07418   0.00000  Uiso   1.00
H925   H     0.23129   0.56646   0.13232   0.00000  Uiso   1.00
H926   H     0.22912   0.58855   0.08655   0.00000  Uiso   1.00
H927   H     0.33055   0.53764   0.88005   0.00000  Uiso   1.00
H928   H     0.33167   0.58677   0.88069   0.00000  Uiso   1.00
H929   H     0.33285   0.56181   0.92583   0.00000  Uiso   1.00
H930   H     0.26890   0.56641   0.86769   0.00000  Uiso   1.00
H931   H     0.27113   0.58849   0.91346   0.00000  Uiso   1.00
H932   H     0.46238   0.66943   0.11995   0.00000  Uiso   1.00
H933   H     0.22434   0.94745   0.97440   0.00000  Uiso   1.00
H934   H     0.41325   0.66830   0.11931   0.00000  Uiso   1.00
H935   H     0.43821   0.66713   0.07417   0.00000  Uiso   1.00
H936   H     0.43360   0.73108   0.13231   0.00000  Uiso   1.00
H937   H     0.41151   0.72884   0.08654   0.00000  Uiso   1.00
H938   H     0.46207   0.83040   0.88003   0.00000  Uiso   1.00
H939   H     0.41294   0.83135   0.88066   0.00000  Uiso   1.00
H940   H     0.43789   0.83262   0.92580   0.00000  Uiso   1.00
H941   H     0.43353   0.76864   0.86768   0.00000  Uiso   1.00
H942   H     0.41143   0.77080   0.91345   0.00000  Uiso   1.00
H943   H     0.33043   0.96215   0.11997   0.00000  Uiso   1.00
H944   H     0.05254   0.77568   0.02560   0.00000  Uiso   1.00
H945   H     0.33143   0.91302   0.11933   0.00000  Uiso   1.00
H946   H     0.33268   0.93798   0.07419   0.00000  Uiso   1.00
H947   H     0.26871   0.93354   0.13232   0.00000  Uiso   1.00
H948   H     0.27089   0.91145   0.08654   0.00000  Uiso   1.00
H949   H     0.16945   0.96236   0.88005   0.00000  Uiso   1.00
H950   H     0.16833   0.91323   0.88069   0.00000  Uiso   1.00
H951   H     0.16715   0.93819   0.92583   0.00000  Uiso   1.00
H952   H     0.23110   0.93359   0.86769   0.00000  Uiso   1.00
H953   H     0.22887   0.91151   0.91346   0.00000  Uiso   1.00
H954   H     0.03762   0.83057   0.11994   0.00000  Uiso   1.00
H955   H     0.05265   0.72454   0.97439   0.00000  Uiso   1.00
H956   H     0.08674   0.83171   0.11931   0.00000  Uiso   1.00
H957   H     0.06178   0.83287   0.07417   0.00000  Uiso   1.00
H958   H     0.06640   0.76892   0.13231   0.00000  Uiso   1.00
H959   H     0.08848   0.77116   0.08654   0.00000  Uiso   1.00
H960   H     0.03793   0.66960   0.88003   0.00000  Uiso   1.00
H961   H     0.08706   0.66865   0.88067   0.00000  Uiso   1.00
H962   H     0.06210   0.66738   0.92581   0.00000  Uiso   1.00
H963   H     0.06647   0.73135   0.86768   0.00000  Uiso   1.00
H964   H     0.08857   0.72920   0.91345   0.00000  Uiso   1.00
H965   H     0.41939   0.78754   0.61992   0.00000  Uiso   1.00
H966   H     0.47427   0.80252   0.52560   0.00000  Uiso   1.00
H967   H     0.41821   0.83667   0.61930   0.00000  Uiso   1.00
H968   H     0.41707   0.81171   0.57415   0.00000  Uiso   1.00
H969   H     0.48100   0.81638   0.63231   0.00000  Uiso   1.00
H970   H     0.47876   0.83847   0.58654   0.00000  Uiso   1.00
H971   H     0.08040   0.78795   0.38003   0.00000  Uiso   1.00
H972   H     0.08134   0.83708   0.38067   0.00000  Uiso   1.00
H973   H     0.08261   0.81212   0.42581   0.00000  Uiso   1.00
H974   H     0.01864   0.81648   0.36768   0.00000  Uiso   1.00
H975   H     0.02078   0.83858   0.41345   0.00000  Uiso   1.00
H976   H     0.21257   0.91933   0.61993   0.00000  Uiso   1.00
O977   O     0.25000   0.50000   0.25000   0.00000  Uiso   1.00
O978   O     0.25000   0.96964   0.66317   0.00000  Uiso   1.00
O979   O     0.46964   0.75000   0.33683   0.00000  Uiso   1.00
O980   O     0.03036   0.75000   0.66317   0.00000  Uiso   1.00
O981   O     0.00000   0.71964   0.83683   0.00000  Uiso   1.00
O982   O     0.00000   0.78036   0.16317   0.00000  Uiso   1.00
O983   O     0.28036   0.50000   0.83683   0.00000  Uiso   1.00
O984   O     0.21964   0.50000   0.16317   0.00000  Uiso   1.00
O985   O     0.00000   0.78036   0.83683   0.00000  Uiso   1.00
O986   O     0.00000   0.71964   0.16317   0.00000  Uiso   1.00
O987   O     0.21964   0.50000   0.83683   0.00000  Uiso   1.00
O988   O     0.25000   0.50000   0.75000   0.00000  Uiso   1.00
O989   O     0.28036   0.50000   0.16317   0.00000  Uiso   1.00
O990   O     0.20725   0.57307   0.27282   0.00000  Uiso   1.00
O991   O     0.29274   0.92693   0.72718   0.00000  Uiso   1.00
O992   O     0.42693   0.70726   0.27282   0.00000  Uiso   1.00
O993   O     0.07307   0.79275   0.72718   0.00000  Uiso   1.00
O994   O     0.29274   0.92693   0.27282   0.00000  Uiso   1.00
O995   O     0.20725   0.57307   0.72718   0.00000  Uiso   1.00
O996   O     0.07307   0.79275   0.27282   0.00000  Uiso   1.00
O997   O     0.42693   0.70726   0.72718   0.00000  Uiso   1.00
O998   O     0.20725   0.92693   0.72718   0.00000  Uiso   1.00
O999   O     0.00000   0.75000   0.25000   0.00000  Uiso   1.00
O1000  O     0.29274   0.57307   0.27282   0.00000  Uiso   1.00
O1001  O     0.42693   0.79275   0.72718   0.00000  Uiso   1.00
O1002  O     0.07307   0.70726   0.27282   0.00000  Uiso   1.00
O1003  O     0.29274   0.57307   0.72718   0.00000  Uiso   1.00
O1004  O     0.20725   0.92693   0.27282   0.00000  Uiso   1.00
O1005  O     0.07307   0.70726   0.72718   0.00000  Uiso   1.00
O1006  O     0.42693   0.79275   0.27282   0.00000  Uiso   1.00
O1007  O     0.45725   0.82307   0.77282   0.00000  Uiso   1.00
O1008  O     0.04274   0.67693   0.22718   0.00000  Uiso   1.00
O1009  O     0.17693   0.95726   0.77282   0.00000  Uiso   1.00
O1010  O     0.00000   0.75000   0.75000   0.00000  Uiso   1.00
O1011  O     0.32307   0.54274   0.22718   0.00000  Uiso   1.00
O1012  O     0.04274   0.67693   0.77282   0.00000  Uiso   1.00
O1013  O     0.45725   0.82307   0.22718   0.00000  Uiso   1.00
O1014  O     0.32307   0.54274   0.77282   0.00000  Uiso   1.00
O1015  O     0.17693   0.95726   0.22718   0.00000  Uiso   1.00
O1016  O     0.45725   0.67693   0.22718   0.00000  Uiso   1.00
O1017  O     0.04274   0.82307   0.77282   0.00000  Uiso   1.00
O1018  O     0.17693   0.54274   0.22718   0.00000  Uiso   1.00
O1019  O     0.32307   0.95726   0.77282   0.00000  Uiso   1.00
O1020  O     0.04274   0.82307   0.22718   0.00000  Uiso   1.00
O1021  O     0.25000   0.96964   0.33683   0.00000  Uiso   1.00
O1022  O     0.45725   0.67693   0.77282   0.00000  Uiso   1.00
O1023  O     0.32307   0.95726   0.22718   0.00000  Uiso   1.00
O1024  O     0.17693   0.54274   0.77282   0.00000  Uiso   1.00
O1025  O     0.25000   0.53036   0.66317   0.00000  Uiso   1.00
O1026  O     0.03036   0.75000   0.33683   0.00000  Uiso   1.00
O1027  O     0.46964   0.75000   0.66317   0.00000  Uiso   1.00
O1028  O     0.25000   0.53036   0.33683   0.00000  Uiso   1.00
Zn1029 Zn    0.20660   0.50000   0.21760   0.00000  Uiso   1.00
Zn1030 Zn    0.04340   0.75000   0.28240   0.00000  Uiso   1.00
Zn1031 Zn    0.25000   0.95660   0.71760   0.00000  Uiso   1.00
Zn1032 Zn    0.25000   0.54340   0.28240   0.00000  Uiso   1.00
Zn1033 Zn    0.04340   0.75000   0.71760   0.00000  Uiso   1.00
Zn1034 Zn    0.45660   0.75000   0.28240   0.00000  Uiso   1.00
Zn1035 Zn    0.25000   0.54340   0.71760   0.00000  Uiso   1.00
Zn1036 Zn    0.25000   0.95660   0.28240   0.00000  Uiso   1.00
Zn1037 Zn    0.29340   0.50000   0.78240   0.00000  Uiso   1.00
Zn1038 Zn    0.00000   0.70660   0.21760   0.00000  Uiso   1.00
Zn1039 Zn    0.00000   0.79340   0.78240   0.00000  Uiso   1.00
Zn1040 Zn    0.29340   0.50000   0.21760   0.00000  Uiso   1.00
Zn1041 Zn    0.20660   0.50000   0.78240   0.00000  Uiso   1.00
Zn1042 Zn    0.00000   0.79340   0.21760   0.00000  Uiso   1.00
Zn1043 Zn    0.00000   0.70660   0.78240   0.00000  Uiso   1.00
Zn1044 Zn    0.45660   0.75000   0.71760   0.00000  Uiso   1.00
C1045  C     0.73569   0.52973   0.04153   0.00000  Uiso   1.00
C1046  C     0.51427   0.77975   0.45847   0.00000  Uiso   1.00
C1047  C     0.84815   0.90185   0.75000   0.00000  Uiso   1.00
C1048  C     0.90186   0.65186   0.25000   0.00000  Uiso   1.00
C1049  C     0.59815   0.84815   0.75000   0.00000  Uiso   1.00
C1050  C     0.84814   0.90186   0.25000   0.00000  Uiso   1.00
C1051  C     0.65185   0.59815   0.75000   0.00000  Uiso   1.00
C1052  C     0.59814   0.65186   0.75000   0.00000  Uiso   1.00
C1053  C     0.90185   0.84815   0.25000   0.00000  Uiso   1.00
C1054  C     0.65186   0.90186   0.75000   0.00000  Uiso   1.00
C1055  C     0.84815   0.59815   0.25000   0.00000  Uiso   1.00
C1056  C     0.90186   0.84814   0.75000   0.00000  Uiso   1.00
C1057  C     0.72036   0.98552   0.54152   0.00000  Uiso   1.00
C1058  C     0.59815   0.65185   0.25000   0.00000  Uiso   1.00
C1059  C     0.84814   0.59814   0.75000   0.00000  Uiso   1.00
C1060  C     0.65185   0.90185   0.25000   0.00000  Uiso   1.00
C1061  C     0.75000   0.50000   0.10258   0.00000  Uiso   1.00
C1062  C     0.75000   0.50000   0.89742   0.00000  Uiso   1.00
C1063  C     0.50000   0.75000   0.10258   0.00000  Uiso   1.00
C1064  C     0.50000   0.75000   0.89742   0.00000  Uiso   1.00
C1065  C     0.50000   0.75000   0.60258   0.00000  Uiso   1.00
C1066  C     0.50000   0.75000   0.39742   0.00000  Uiso   1.00
C1067  C     0.75000   0.50000   0.60257   0.00000  Uiso   1.00
C1068  C     0.72021   0.51419   0.45846   0.00000  Uiso   1.00
C1069  C     0.75000   0.50000   0.39742   0.00000  Uiso   1.00
C1070  C     0.72043   0.56362   0.10238   0.00000  Uiso   1.00
C1071  C     0.67889   0.56245   0.10400   0.00000  Uiso   1.00
C1072  C     0.77976   0.56354   0.89762   0.00000  Uiso   1.00
C1073  C     0.82129   0.56225   0.89601   0.00000  Uiso   1.00
C1074  C     0.93647   0.72022   0.10237   0.00000  Uiso   1.00
C1075  C     0.93777   0.67869   0.10398   0.00000  Uiso   1.00
C1076  C     0.93636   0.77952   0.89761   0.00000  Uiso   1.00
C1077  C     0.93750   0.82105   0.89599   0.00000  Uiso   1.00
C1078  C     0.77958   0.93638   0.10238   0.00000  Uiso   1.00
C1079  C     0.51443   0.72033   0.54153   0.00000  Uiso   1.00
C1080  C     0.82111   0.93756   0.10401   0.00000  Uiso   1.00
C1081  C     0.72025   0.93646   0.89762   0.00000  Uiso   1.00
C1082  C     0.67871   0.93775   0.89601   0.00000  Uiso   1.00
C1083  C     0.56353   0.77978   0.10238   0.00000  Uiso   1.00
C1084  C     0.56223   0.82131   0.10399   0.00000  Uiso   1.00
C1085  C     0.56364   0.72048   0.89761   0.00000  Uiso   1.00
C1086  C     0.56251   0.67895   0.89599   0.00000  Uiso   1.00
C1087  C     0.97016   0.81350   0.60237   0.00000  Uiso   1.00
C1088  C     0.92862   0.81217   0.60397   0.00000  Uiso   1.00
C1089  C     0.52951   0.81365   0.39761   0.00000  Uiso   1.00
C1090  C     0.98573   0.72025   0.45847   0.00000  Uiso   1.00
C1091  C     0.57104   0.81252   0.39600   0.00000  Uiso   1.00
C1092  C     0.68654   0.97006   0.60237   0.00000  Uiso   1.00
C1093  C     0.68794   0.92853   0.60397   0.00000  Uiso   1.00
C1094  C     0.68627   0.52933   0.39760   0.00000  Uiso   1.00
C1095  C     0.68729   0.57087   0.39598   0.00000  Uiso   1.00
C1096  C     0.52984   0.68650   0.60237   0.00000  Uiso   1.00
C1097  C     0.57137   0.68781   0.60396   0.00000  Uiso   1.00
C1098  C     0.97049   0.68635   0.39761   0.00000  Uiso   1.00
C1099  C     0.92895   0.68748   0.39599   0.00000  Uiso   1.00
C1100  C     0.81345   0.52994   0.60237   0.00000  Uiso   1.00
C1101  C     0.77964   0.51448   0.54152   0.00000  Uiso   1.00
C1102  C     0.81206   0.57147   0.60397   0.00000  Uiso   1.00
C1103  C     0.81373   0.97068   0.39761   0.00000  Uiso   1.00
C1104  C     0.81272   0.92914   0.39598   0.00000  Uiso   1.00
C1105  C     0.77979   0.98581   0.45846   0.00000  Uiso   1.00
C1106  C     0.73549   0.53018   0.08211   0.00000  Uiso   1.00
C1107  C     0.76460   0.53014   0.91789   0.00000  Uiso   1.00
C1108  C     0.96987   0.73539   0.08211   0.00000  Uiso   1.00
C1109  C     0.76439   0.52969   0.95847   0.00000  Uiso   1.00
C1110  C     0.96980   0.76449   0.91789   0.00000  Uiso   1.00
C1111  C     0.76451   0.96982   0.08211   0.00000  Uiso   1.00
C1112  C     0.73540   0.96986   0.91789   0.00000  Uiso   1.00
C1113  C     0.53013   0.76462   0.08211   0.00000  Uiso   1.00
C1114  C     0.53019   0.73551   0.91789   0.00000  Uiso   1.00
C1115  C     0.98535   0.78012   0.58211   0.00000  Uiso   1.00
C1116  C     0.51448   0.78020   0.41789   0.00000  Uiso   1.00
C1117  C     0.71990   0.98531   0.58210   0.00000  Uiso   1.00
C1118  C     0.71976   0.51439   0.41788   0.00000  Uiso   1.00
C1119  C     0.51464   0.71988   0.58211   0.00000  Uiso   1.00
C1120  C     0.97032   0.73559   0.04153   0.00000  Uiso   1.00
C1121  C     0.98552   0.71980   0.41789   0.00000  Uiso   1.00
C1122  C     0.78010   0.51469   0.58210   0.00000  Uiso   1.00
C1123  C     0.78024   0.98561   0.41788   0.00000  Uiso   1.00
C1124  C     0.75000   0.50000   0.02128   0.00000  Uiso   1.00
C1125  C     0.75000   0.50000   0.97872   0.00000  Uiso   1.00
C1126  C     0.50000   0.75000   0.02128   0.00000  Uiso   1.00
C1127  C     0.50000   0.75000   0.97872   0.00000  Uiso   1.00
C1128  C     0.50000   0.75000   0.52128   0.00000  Uiso   1.00
C1129  C     0.50000   0.75000   0.47872   0.00000  Uiso   1.00
C1130  C     0.75000   0.50000   0.52127   0.00000  Uiso   1.00
C1131  C     0.97026   0.76428   0.95847   0.00000  Uiso   1.00
C1132  C     0.75000   0.50000   0.47871   0.00000  Uiso   1.00
C1133  C     0.75000   0.50000   0.35506   0.00000  Uiso   1.00
C1134  C     0.75000   0.50000   0.64493   0.00000  Uiso   1.00
C1135  C     0.50000   0.75000   0.35506   0.00000  Uiso   1.00
C1136  C     0.50000   0.75000   0.64493   0.00000  Uiso   1.00
C1137  C     0.50000   0.75000   0.85506   0.00000  Uiso   1.00
C1138  C     0.50000   0.75000   0.14493   0.00000  Uiso   1.00
C1139  C     0.75000   0.50000   0.85507   0.00000  Uiso   1.00
C1140  C     0.75000   0.50000   0.14494   0.00000  Uiso   1.00
C1141  C     0.67992   0.57008   0.25000   0.00000  Uiso   1.00
C1142  C     0.76430   0.97027   0.04153   0.00000  Uiso   1.00
C1143  C     0.82009   0.92991   0.75000   0.00000  Uiso   1.00
C1144  C     0.92992   0.67992   0.25000   0.00000  Uiso   1.00
C1145  C     0.57009   0.82009   0.75000   0.00000  Uiso   1.00
C1146  C     0.82008   0.92992   0.25000   0.00000  Uiso   1.00
C1147  C     0.67991   0.57009   0.75000   0.00000  Uiso   1.00
C1148  C     0.57008   0.82008   0.25000   0.00000  Uiso   1.00
C1149  C     0.92991   0.67991   0.75000   0.00000  Uiso   1.00
C1150  C     0.67992   0.92992   0.75000   0.00000  Uiso   1.00
C1151  C     0.82009   0.57009   0.25000   0.00000  Uiso   1.00
C1152  C     0.92992   0.82008   0.75000   0.00000  Uiso   1.00
C1153  C     0.73561   0.97031   0.95847   0.00000  Uiso   1.00
C1154  C     0.57009   0.67991   0.25000   0.00000  Uiso   1.00
C1155  C     0.82008   0.57008   0.75000   0.00000  Uiso   1.00
C1156  C     0.67991   0.92991   0.25000   0.00000  Uiso   1.00
C1157  C     0.57008   0.67992   0.75000   0.00000  Uiso   1.00
C1158  C     0.92991   0.82009   0.25000   0.00000  Uiso   1.00
C1159  C     0.62287   0.90383   0.22355   0.00000  Uiso   1.00
C1160  C     0.87710   0.59617   0.77647   0.00000  Uiso   1.00
C1161  C     0.59617   0.62287   0.22356   0.00000  Uiso   1.00
C1162  C     0.90383   0.87710   0.77647   0.00000  Uiso   1.00
C1163  C     0.87713   0.59617   0.22355   0.00000  Uiso   1.00
C1164  C     0.52968   0.76441   0.04153   0.00000  Uiso   1.00
C1165  C     0.62290   0.90383   0.77647   0.00000  Uiso   1.00
C1166  C     0.90383   0.87713   0.22356   0.00000  Uiso   1.00
C1167  C     0.59617   0.62290   0.77646   0.00000  Uiso   1.00
C1168  C     0.62287   0.59617   0.77644   0.00000  Uiso   1.00
C1169  C     0.87710   0.90384   0.22354   0.00000  Uiso   1.00
C1170  C     0.59617   0.87713   0.77645   0.00000  Uiso   1.00
C1171  C     0.90383   0.62290   0.22353   0.00000  Uiso   1.00
C1172  C     0.87713   0.90383   0.77645   0.00000  Uiso   1.00
C1173  C     0.62290   0.59616   0.22354   0.00000  Uiso   1.00
C1174  C     0.90383   0.62287   0.77645   0.00000  Uiso   1.00
C1175  C     0.52974   0.73572   0.95847   0.00000  Uiso   1.00
C1176  C     0.59617   0.87710   0.22353   0.00000  Uiso   1.00
C1177  C     0.87287   0.65383   0.72355   0.00000  Uiso   1.00
C1178  C     0.62710   0.84617   0.27647   0.00000  Uiso   1.00
C1179  C     0.84617   0.87287   0.72355   0.00000  Uiso   1.00
C1180  C     0.65384   0.62710   0.27646   0.00000  Uiso   1.00
C1181  C     0.62713   0.84617   0.72355   0.00000  Uiso   1.00
C1182  C     0.87290   0.65383   0.27647   0.00000  Uiso   1.00
C1183  C     0.65383   0.62713   0.72355   0.00000  Uiso   1.00
C1184  C     0.84616   0.87290   0.27646   0.00000  Uiso   1.00
C1185  C     0.87287   0.84617   0.27644   0.00000  Uiso   1.00
C1186  C     0.98557   0.77967   0.54152   0.00000  Uiso   1.00
C1187  C     0.62710   0.65383   0.72353   0.00000  Uiso   1.00
C1188  C     0.84617   0.62713   0.27645   0.00000  Uiso   1.00
C1189  C     0.65383   0.87290   0.72353   0.00000  Uiso   1.00
C1190  C     0.62713   0.65383   0.27644   0.00000  Uiso   1.00
C1191  C     0.87290   0.84617   0.72353   0.00000  Uiso   1.00
C1192  C     0.65383   0.87287   0.27645   0.00000  Uiso   1.00
C1193  C     0.84617   0.62710   0.72353   0.00000  Uiso   1.00
C1194  C     0.59814   0.84814   0.25000   0.00000  Uiso   1.00
C1195  C     0.90185   0.65185   0.75000   0.00000  Uiso   1.00
C1196  C     0.65186   0.59814   0.25000   0.00000  Uiso   1.00
H1197  H     0.72449   0.55263   0.02561   0.00000  Uiso   1.00
H1198  H     0.52545   0.80266   0.47439   0.00000  Uiso   1.00
H1199  H     0.66345   0.91808   0.61930   0.00000  Uiso   1.00
H1200  H     0.68840   0.91698   0.57416   0.00000  Uiso   1.00
H1201  H     0.68364   0.98091   0.63230   0.00000  Uiso   1.00
H1202  H     0.66157   0.97863   0.58653   0.00000  Uiso   1.00
H1203  H     0.71184   0.58028   0.38001   0.00000  Uiso   1.00
H1204  H     0.66270   0.58109   0.38066   0.00000  Uiso   1.00
H1205  H     0.68767   0.58244   0.42579   0.00000  Uiso   1.00
H1206  H     0.68348   0.51845   0.36767   0.00000  Uiso   1.00
H1207  H     0.66137   0.52054   0.41344   0.00000  Uiso   1.00
H1208  H     0.58062   0.71243   0.61991   0.00000  Uiso   1.00
H1209  H     0.69752   0.97418   0.52560   0.00000  Uiso   1.00
H1210  H     0.58178   0.66331   0.61929   0.00000  Uiso   1.00
H1211  H     0.58291   0.68826   0.57414   0.00000  Uiso   1.00
H1212  H     0.51900   0.68362   0.63231   0.00000  Uiso   1.00
H1213  H     0.52122   0.66153   0.58654   0.00000  Uiso   1.00
H1214  H     0.91960   0.71206   0.38003   0.00000  Uiso   1.00
H1215  H     0.91866   0.66292   0.38067   0.00000  Uiso   1.00
H1216  H     0.91739   0.68789   0.42581   0.00000  Uiso   1.00
H1217  H     0.98136   0.68353   0.36768   0.00000  Uiso   1.00
H1218  H     0.97921   0.66142   0.41345   0.00000  Uiso   1.00
H1219  H     0.78743   0.58067   0.61993   0.00000  Uiso   1.00
H1220  H     0.69727   0.52530   0.47439   0.00000  Uiso   1.00
H1221  H     0.83655   0.58192   0.61930   0.00000  Uiso   1.00
H1222  H     0.81159   0.58302   0.57416   0.00000  Uiso   1.00
H1223  H     0.81636   0.51909   0.63230   0.00000  Uiso   1.00
H1224  H     0.83843   0.52137   0.58653   0.00000  Uiso   1.00
H1225  H     0.78817   0.91972   0.38001   0.00000  Uiso   1.00
H1226  H     0.83731   0.91892   0.38067   0.00000  Uiso   1.00
H1227  H     0.81234   0.91757   0.42580   0.00000  Uiso   1.00
H1228  H     0.81652   0.98156   0.36767   0.00000  Uiso   1.00
H1229  H     0.83863   0.97947   0.41344   0.00000  Uiso   1.00
H1230  H     0.52573   0.69748   0.52560   0.00000  Uiso   1.00
H1231  H     0.97455   0.69734   0.47439   0.00000  Uiso   1.00
H1232  H     0.80247   0.52582   0.52560   0.00000  Uiso   1.00
H1233  H     0.80273   0.97470   0.47439   0.00000  Uiso   1.00
H1234  H     0.62085   0.92594   0.20283   0.00000  Uiso   1.00
H1235  H     0.87909   0.57408   0.79723   0.00000  Uiso   1.00
H1236  H     0.57406   0.62084   0.20283   0.00000  Uiso   1.00
H1237  H     0.77566   0.55255   0.97440   0.00000  Uiso   1.00
H1238  H     0.92592   0.87910   0.79723   0.00000  Uiso   1.00
H1239  H     0.87915   0.57406   0.20282   0.00000  Uiso   1.00
H1240  H     0.62091   0.92592   0.79723   0.00000  Uiso   1.00
H1241  H     0.92594   0.87916   0.20283   0.00000  Uiso   1.00
H1242  H     0.57408   0.62090   0.79723   0.00000  Uiso   1.00
H1243  H     0.62084   0.57406   0.79717   0.00000  Uiso   1.00
H1244  H     0.87910   0.92593   0.20278   0.00000  Uiso   1.00
H1245  H     0.57406   0.87915   0.79718   0.00000  Uiso   1.00
H1246  H     0.92592   0.62090   0.20277   0.00000  Uiso   1.00
H1247  H     0.87915   0.92594   0.79717   0.00000  Uiso   1.00
H1248  H     0.94746   0.72432   0.02560   0.00000  Uiso   1.00
H1249  H     0.62090   0.57407   0.20277   0.00000  Uiso   1.00
H1250  H     0.92594   0.62085   0.79718   0.00000  Uiso   1.00
H1251  H     0.57408   0.87910   0.20277   0.00000  Uiso   1.00
H1252  H     0.87085   0.67594   0.70282   0.00000  Uiso   1.00
H1253  H     0.62909   0.82408   0.29723   0.00000  Uiso   1.00
H1254  H     0.82406   0.87084   0.70283   0.00000  Uiso   1.00
H1255  H     0.67593   0.62910   0.29722   0.00000  Uiso   1.00
H1256  H     0.62915   0.82406   0.70282   0.00000  Uiso   1.00
H1257  H     0.87091   0.67592   0.29723   0.00000  Uiso   1.00
H1258  H     0.67594   0.62916   0.70283   0.00000  Uiso   1.00
H1259  H     0.94735   0.77546   0.97439   0.00000  Uiso   1.00
H1260  H     0.82407   0.87090   0.29722   0.00000  Uiso   1.00
H1261  H     0.87084   0.82406   0.29717   0.00000  Uiso   1.00
H1262  H     0.62910   0.67592   0.70277   0.00000  Uiso   1.00
H1263  H     0.82406   0.62915   0.29717   0.00000  Uiso   1.00
H1264  H     0.67592   0.87091   0.70277   0.00000  Uiso   1.00
H1265  H     0.62916   0.67594   0.29717   0.00000  Uiso   1.00
H1266  H     0.87090   0.82408   0.70277   0.00000  Uiso   1.00
H1267  H     0.67594   0.87085   0.29717   0.00000  Uiso   1.00
H1268  H     0.82408   0.62909   0.70277   0.00000  Uiso   1.00
H1269  H     0.66956   0.53787   0.11997   0.00000  Uiso   1.00
H1270  H     0.77550   0.94737   0.02561   0.00000  Uiso   1.00
H1271  H     0.66857   0.58700   0.11932   0.00000  Uiso   1.00
H1272  H     0.66733   0.56203   0.07418   0.00000  Uiso   1.00
H1273  H     0.73129   0.56646   0.13232   0.00000  Uiso   1.00
H1274  H     0.72912   0.58855   0.08655   0.00000  Uiso   1.00
H1275  H     0.83055   0.53764   0.88005   0.00000  Uiso   1.00
H1276  H     0.83167   0.58677   0.88069   0.00000  Uiso   1.00
H1277  H     0.83285   0.56181   0.92583   0.00000  Uiso   1.00
H1278  H     0.76890   0.56641   0.86769   0.00000  Uiso   1.00
H1279  H     0.77113   0.58849   0.91346   0.00000  Uiso   1.00
H1280  H     0.96238   0.66943   0.11995   0.00000  Uiso   1.00
H1281  H     0.72434   0.94745   0.97440   0.00000  Uiso   1.00
H1282  H     0.91325   0.66830   0.11931   0.00000  Uiso   1.00
H1283  H     0.93821   0.66713   0.07417   0.00000  Uiso   1.00
H1284  H     0.93360   0.73108   0.13231   0.00000  Uiso   1.00
H1285  H     0.91151   0.72884   0.08654   0.00000  Uiso   1.00
H1286  H     0.96207   0.83040   0.88003   0.00000  Uiso   1.00
H1287  H     0.91294   0.83135   0.88066   0.00000  Uiso   1.00
H1288  H     0.93789   0.83262   0.92580   0.00000  Uiso   1.00
H1289  H     0.93353   0.76864   0.86768   0.00000  Uiso   1.00
H1290  H     0.91143   0.77080   0.91345   0.00000  Uiso   1.00
H1291  H     0.83043   0.96215   0.11997   0.00000  Uiso   1.00
H1292  H     0.55254   0.77568   0.02560   0.00000  Uiso   1.00
H1293  H     0.83143   0.91302   0.11933   0.00000  Uiso   1.00
H1294  H     0.83268   0.93798   0.07419   0.00000  Uiso   1.00
H1295  H     0.76871   0.93354   0.13232   0.00000  Uiso   1.00
H1296  H     0.77089   0.91145   0.08654   0.00000  Uiso   1.00
H1297  H     0.66945   0.96236   0.88005   0.00000  Uiso   1.00
H1298  H     0.66833   0.91323   0.88069   0.00000  Uiso   1.00
H1299  H     0.66715   0.93819   0.92583   0.00000  Uiso   1.00
H1300  H     0.73110   0.93359   0.86769   0.00000  Uiso   1.00
H1301  H     0.72887   0.91151   0.91346   0.00000  Uiso   1.00
H1302  H     0.53762   0.83057   0.11994   0.00000  Uiso   1.00
H1303  H     0.55265   0.72454   0.97439   0.00000  Uiso   1.00
H1304  H     0.58674   0.83171   0.11931   0.00000  Uiso   1.00
H1305  H     0.56178   0.83287   0.07417   0.00000  Uiso   1.00
H1306  H     0.56640   0.76892   0.13231   0.00000  Uiso   1.00
H1307  H     0.58848   0.77116   0.08654   0.00000  Uiso   1.00
H1308  H     0.53793   0.66960   0.88003   0.00000  Uiso   1.00
H1309  H     0.58706   0.66865   0.88067   0.00000  Uiso   1.00
H1310  H     0.56210   0.66738   0.92581   0.00000  Uiso   1.00
H1311  H     0.56647   0.73135   0.86768   0.00000  Uiso   1.00
H1312  H     0.58857   0.72920   0.91345   0.00000  Uiso   1.00
H1313  H     0.91939   0.78754   0.61992   0.00000  Uiso   1.00
H1314  H     0.97427   0.80252   0.52560   0.00000  Uiso   1.00
H1315  H     0.91821   0.83667   0.61930   0.00000  Uiso   1.00
H1316  H     0.91707   0.81171   0.57415   0.00000  Uiso   1.00
H1317  H     0.98100   0.81638   0.63231   0.00000  Uiso   1.00
H1318  H     0.97876   0.83847   0.58654   0.00000  Uiso   1.00
H1319  H     0.58040   0.78795   0.38003   0.00000  Uiso   1.00
H1320  H     0.58134   0.83708   0.38067   0.00000  Uiso   1.00
H1321  H     0.58261   0.81212   0.42581   0.00000  Uiso   1.00
H1322  H     0.51864   0.81648   0.36768   0.00000  Uiso   1.00
H1323  H     0.52078   0.83858   0.41345   0.00000  Uiso   1.00
H1324  H     0.71257   0.91933   0.61993   0.00000  Uiso   1.00
O1325  O     0.75000   0.50000   0.25000   0.00000  Uiso   1.00
O1326  O     0.75000   0.96964   0.66317   0.00000  Uiso   1.00
O1327  O     0.96964   0.75000   0.33683   0.00000  Uiso   1.00
O1328  O     0.53036   0.75000   0.66317   0.00000  Uiso   1.00
O1329  O     0.50000   0.71964   0.83683   0.00000  Uiso   1.00
O1330  O     0.50000   0.78036   0.16317   0.00000  Uiso   1.00
O1331  O     0.78036   0.50000   0.83683   0.00000  Uiso   1.00
O1332  O     0.71964   0.50000   0.16317   0.00000  Uiso   1.00
O1333  O     0.50000   0.78036   0.83683   0.00000  Uiso   1.00
O1334  O     0.50000   0.71964   0.16317   0.00000  Uiso   1.00
O1335  O     0.71964   0.50000   0.83683   0.00000  Uiso   1.00
O1336  O     0.75000   0.50000   0.75000   0.00000  Uiso   1.00
O1337  O     0.78036   0.50000   0.16317   0.00000  Uiso   1.00
O1338  O     0.70725   0.57307   0.27282   0.00000  Uiso   1.00
O1339  O     0.79274   0.92693   0.72718   0.00000  Uiso   1.00
O1340  O     0.92693   0.70726   0.27282   0.00000  Uiso   1.00
O1341  O     0.57307   0.79275   0.72718   0.00000  Uiso   1.00
O1342  O     0.79274   0.92693   0.27282   0.00000  Uiso   1.00
O1343  O     0.70725   0.57307   0.72718   0.00000  Uiso   1.00
O1344  O     0.57307   0.79275   0.27282   0.00000  Uiso   1.00
O1345  O     0.92693   0.70726   0.72718   0.00000  Uiso   1.00
O1346  O     0.70725   0.92693   0.72718   0.00000  Uiso   1.00
O1347  O     0.50000   0.75000   0.25000   0.00000  Uiso   1.00
O1348  O     0.79274   0.57307   0.27282   0.00000  Uiso   1.00
O1349  O     0.92693   0.79275   0.72718   0.00000  Uiso   1.00
O1350  O     0.57307   0.70726   0.27282   0.00000  Uiso   1.00
O1351  O     0.79274   0.57307   0.72718   0.00000  Uiso   1.00
O1352  O     0.70725   0.92693   0.27282   0.00000  Uiso   1.00
O1353  O     0.57307   0.70726   0.72718   0.00000  Uiso   1.00
O1354  O     0.92693   0.79275   0.27282   0.00000  Uiso   1.00
O1355  O     0.95725   0.82307   0.77282   0.00000  Uiso   1.00
O1356  O     0.54274   0.67693   0.22718   0.00000  Uiso   1.00
O1357  O     0.67693   0.95726   0.77282   0.00000  Uiso   1.00
O1358  O     0.50000   0.75000   0.75000   0.00000  Uiso   1.00
O1359  O     0.82307   0.54274   0.22718   0.00000  Uiso   1.00
O1360  O     0.54274   0.67693   0.77282   0.00000  Uiso   1.00
O1361  O     0.95725   0.82307   0.22718   0.00000  Uiso   1.00
O1362  O     0.82307   0.54274   0.77282   0.00000  Uiso   1.00
O1363  O     0.67693   0.95726   0.22718   0.00000  Uiso   1.00
O1364  O     0.95725   0.67693   0.22718   0.00000  Uiso   1.00
O1365  O     0.54274   0.82307   0.77282   0.00000  Uiso   1.00
O1366  O     0.67693   0.54274   0.22718   0.00000  Uiso   1.00
O1367  O     0.82307   0.95726   0.77282   0.00000  Uiso   1.00
O1368  O     0.54274   0.82307   0.22718   0.00000  Uiso   1.00
O1369  O     0.75000   0.96964   0.33683   0.00000  Uiso   1.00
O1370  O     0.95725   0.67693   0.77282   0.00000  Uiso   1.00
O1371  O     0.82307   0.95726   0.22718   0.00000  Uiso   1.00
O1372  O     0.67693   0.54274   0.77282   0.00000  Uiso   1.00
O1373  O     0.75000   0.53036   0.66317   0.00000  Uiso   1.00
O1374  O     0.53036   0.75000   0.33683   0.00000  Uiso   1.00
O1375  O     0.96964   0.75000   0.66317   0.00000  Uiso   1.00
O1376  O     0.75000   0.53036   0.33683   0.00000  Uiso   1.00
Zn1377 Zn    0.70660   0.50000   0.21760   0.00000  Uiso   1.00
Zn1378 Zn    0.54340   0.75000   0.28240   0.00000  Uiso   1.00
Zn1379 Zn    0.75000   0.95660   0.71760   0.00000  Uiso   1.00
Zn1380 Zn    0.75000   0.54340   0.28240   0.00000  Uiso   1.00
Zn1381 Zn    0.54340   0.75000   0.71760   0.00000  Uiso   1.00
Zn1382 Zn    0.95660   0.75000   0.28240   0.00000  Uiso   1.00
Zn1383 Zn    0.75000   0.54340   0.71760   0.00000  Uiso   1.00
Zn1384 Zn    0.75000   0.95660   0.28240   0.00000  Uiso   1.00
Zn1385 Zn    0.79340   0.50000   0.78240   0.00000  Uiso   1.00
Zn1386 Zn    0.50000   0.70660   0.21760   0.00000  Uiso   1.00
Zn1387 Zn    0.50000   0.79340   0.78240   0.00000  Uiso   1.00
Zn1388 Zn    0.79340   0.50000   0.21760   0.00000  Uiso   1.00
Zn1389 Zn    0.70660   0.50000   0.78240   0.00000  Uiso   1.00
Zn1390 Zn    0.50000   0.79340   0.21760   0.00000  Uiso   1.00
Zn1391 Zn    0.50000   0.70660   0.78240   0.00000  Uiso   1.00
Zn1392 Zn    0.95660   0.75000   0.71760   0.00000  Uiso   1.00
loop_
_geom_bond_atom_site_label_1
_geom_bond_atom_site_label_2
_geom_bond_distance
_geom_bond_site_symmetry_2
_ccdc_geom_bond_type
C1     C62     1.397   .     A
C1     H153    1.084   .     S
C1     C80     1.397   .     S
C2     H154    1.084   .     S
C2     C85     1.397   .     A
C2     C72     1.397   .     A
C3     C128    1.402   .     A
C3     C99     1.456   .     S
C3     C135    1.402   .     A
C4     C127    1.402   .     A
C4     C138    1.402   .     A
C4     C100    1.456   .     S
C5     C126    1.402   .     A
C5     C101    1.456   .     S
C5     C137    1.402   .     A
C6     C125    1.402   .     A
C6     C102    1.456   .     S
C6     C140    1.402   .     A
C7     C103    1.456   .     S
C7     C124    1.402   .     A
C7     C139    1.402   .     A
C8     C123    1.402   .     A
C8     C143    1.402   .     A
C8     C113    1.456   .     S
C9     C114    1.456   .     S
C9     C122    1.402   .     A
C9     C141    1.402   .     A
C10    C106    1.456   .     S
C10    C121    1.402   .     A
C10    C145    1.402   .     A
C11    C119    1.402   .     A
C11    C144    1.402   .     A
C11    C107    1.456   .     S
C12    C108    1.456   .     S
C12    C147    1.402   .     A
C12    C118    1.402   .     A
C13    H165    1.084   .     S
C13    C73     1.397   .     A
C13    C782    1.397   .     S
C14    C117    1.402   .     A
C14    C110    1.456   .     S
C14    C146    1.402   .     A
C15    C149    1.402   .     A
C15    C116    1.402   .     A
C15    C111    1.456   .     S
C16    C115    1.402   .     A
C16    C112    1.456   .     S
C16    C148    1.402   .     A
C17    C763    1.417   1_545 A
C17    C96     1.458   .     S
C17    C62     1.417   .     S
C18    C764    1.417   1_545 A
C18    C63     1.417   .     S
C18    C95     1.458   .     S
C19    C94     1.458   .     S
C19    C412    1.417   1_455 A
C19    C69     1.417   .     S
C20    C414    1.417   1_455 A
C20    C70     1.417   .     S
C20    C93     1.458   .     S
C21    C92     1.458   .     S
C21    C419    1.417   1_455 A
C21    C75     1.417   .     S
C22    C91     1.458   .     S
C22    C72     1.417   .     A
C22    C425    1.417   1_455 S
C23    C90     1.458   .     S
C23    C769    1.417   1_545 A
C23    C78     1.417   .     S
C24    H176    1.084   .     S
C24    C88     1.397   .     A
C24    C74     1.397   .     A
C25    C74     1.417   .     A
C25    C89     1.458   .     S
C25    C775    1.417   1_545 S
C26    H230    1.112   .     S
C26    C27     1.526   .     S
C26    H229    1.110   .     S
C26    C62     1.516   .     S
C27    H227    1.110   .     S
C27    H225    1.111   .     S
C27    H228    1.111   .     S
C28    C63     1.516   .     S
C28    H234    1.110   .     S
C28    C29     1.526   .     S
C28    H235    1.112   .     S
C29    H232    1.110   .     S
C29    H233    1.111   .     S
C29    H231    1.110   .     S
C30    H241    1.112   .     S
C30    H240    1.110   .     S
C30    C64     1.516   .     S
C30    C31     1.526   .     S
C31    H238    1.110   .     S
C31    H239    1.111   .     S
C31    H236    1.111   .     S
C32    H245    1.110   .     S
C32    C66     1.516   .     S
C32    C33     1.526   .     S
C32    H246    1.112   .     S
C33    H243    1.110   .     S
C33    H242    1.110   .     S
C33    H244    1.111   .     S
C34    C67     1.516   .     S
C34    C36     1.526   .     S
C34    H251    1.110   .     S
C34    H252    1.112   .     S
C35    C84     1.397   .     A
C35    H186    1.084   .     S
C35    C75     1.397   .     A
C36    H250    1.111   .     S
C36    H247    1.110   .     S
C36    H249    1.110   .     S
C37    H257    1.112   .     S
C37    C68     1.516   .     S
C37    C38     1.526   .     S
C37    H256    1.110   .     S
C38    H254    1.110   .     S
C38    H255    1.111   .     S
C38    H253    1.110   .     S
C39    C40     1.526   .     S
C39    C69     1.516   .     S
C39    H262    1.110   .     S
C39    H263    1.112   .     S
C40    H258    1.110   .     S
C40    H260    1.110   .     S
C40    H261    1.111   .     S
C41    H267    1.110   .     S
C41    C42     1.526   .     S
C41    H268    1.112   .     S
C41    C70     1.516   .     S
C42    H266    1.111   .     S
C42    H264    1.111   .     S
C42    H265    1.110   .     S
C43    C44     1.526   .     S
C43    C71     1.516   .     S
C43    H274    1.112   .     S
C43    H273    1.110   .     S
C44    H272    1.111   .     S
C44    H269    1.110   .     S
C44    H271    1.111   .     S
C45    C47     1.526   .     S
C45    H279    1.112   .     S
C45    H278    1.110   .     S
C45    C72     1.516   .     S
C46    C77     1.397   .     A
C46    H187    1.084   .     S
C46    C433    1.397   .     S
C47    H276    1.111   .     S
C47    H277    1.111   .     S
C47    H275    1.111   .     S
C48    H158    1.112   .     S
C48    C49     1.526   .     S
C48    C73     1.516   .     S
C48    H157    1.110   .     S
C49    H280    1.110   .     S
C49    H155    1.110   .     S
C49    H156    1.111   .     S
C50    C51     1.526   .     S
C50    H162    1.110   .     S
C50    C74     1.516   .     S
C50    H163    1.112   .     S
C51    H160    1.110   .     S
C51    H161    1.111   .     S
C51    H159    1.110   .     S
C52    C75     1.516   .     S
C52    C53     1.526   .     S
C52    H169    1.112   .     S
C52    H168    1.110   .     S
C53    H166    1.110   .     S
C53    H164    1.110   .     S
C53    H167    1.111   .     S
C54    C77     1.516   .     S
C54    C55     1.526   .     S
C54    H174    1.112   .     S
C54    H173    1.110   .     S
C55    H172    1.111   .     S
C55    H171    1.110   .     S
C55    H170    1.111   .     S
C56    C78     1.516   .     S
C56    H180    1.112   .     S
C56    C58     1.526   .     S
C56    H179    1.110   .     S
C57    C78     1.397   .     A
C57    C86     1.397   .     A
C57    H188    1.084   .     S
C58    H178    1.111   .     S
C58    H175    1.110   .     S
C58    H177    1.111   .     S
C59    C60     1.526   .     S
C59    H185    1.112   .     S
C59    C79     1.516   .     S
C59    H184    1.110   .     S
C60    H181    1.110   .     S
C60    H183    1.111   .     S
C60    H182    1.110   .     S
C61    H189    1.084   .     S
C61    C79     1.397   .     A
C61    C784    1.397   .     S
C63    C65     1.397   .     A
C64    C367    1.417   .     A
C64    C76     1.397   .     A
C65    H193    1.084   .     S
C65    C81     1.397   .     S
C66    C368    1.417   .     A
C66    C87     1.397   .     A
C67    C713    1.417   .     A
C67    C98     1.397   .     A
C68    C714    1.417   .     A
C68    C109    1.397   .     A
C69    C120    1.397   .     A
C70    C131    1.397   .     A
C71    C369    1.417   .     A
C71    C142    1.397   .     A
C73    C719    1.417   .     A
C76    C430    1.397   .     A
C76    H204    1.084   .     S
C77    C370    1.417   .     S
C79    C721    1.417   .     S
C80    C794    1.397   1_545 A
C80    C81     1.465   1_554 S
C81    C805    1.397   1_545 A
C81    C80     1.465   1_556 S
C82    C424    1.397   1_455 A
C82    C83     1.465   1_554 S
C82    C120    1.397   .     S
C83    C435    1.397   1_455 A
C83    C82     1.465   1_556 S
C83    C131    1.397   .     S
C84    C85     1.465   .     S
C84    C490    1.397   1_455 S
C85    C394    1.397   1_455 S
C86    C88     1.465   .     S
C86    C709    1.397   1_545 S
C87    C431    1.397   .     A
C87    H215    1.084   .     S
C88    C757    1.397   1_545 S
C89    O332    1.279   .     A
C89    O1021   1.279   1_545 S
C90    O978    1.279   1_545 A
C90    O329    1.279   .     S
C91    O330    1.279   .     A
C91    O631    1.279   1_455 S
C92    O679    1.279   1_455 A
C92    O284    1.279   .     S
C93    O285    1.279   .     A
C93    O289    1.279   .     A
C94    O286    1.279   .     S
C94    O290    1.279   .     S
C95    O291    1.279   .     A
C95    O287    1.279   .     A
C96    O288    1.279   .     S
C96    O293    1.279   .     S
C97    O294    1.279   .     A
C97    C152    1.456   .     S
C97    O322    1.279   .     A
C98    C776    1.397   .     A
C98    H226    1.084   .     S
C99    O295    1.279   .     A
C99    O323    1.279   .     A
C100   O296    1.279   .     A
C100   O320    1.279   .     A
C101   O321    1.279   .     A
C101   O297    1.279   .     A
C102   O327    1.279   .     A
C102   O298    1.279   .     A
C103   O299    1.279   .     A
C103   O328    1.279   .     A
C104   C150    1.456   .     S
C104   O300    1.279   .     A
C104   O324    1.279   .     A
C105   C151    1.456   .     S
C105   O301    1.279   .     A
C105   O326    1.279   .     A
C106   O302    1.279   .     A
C106   O313    1.279   .     A
C107   O315    1.279   .     A
C107   O304    1.279   .     A
C108   O305    1.279   .     A
C108   O311    1.279   .     A
C109   C777    1.397   .     A
C109   H237    1.084   .     S
C110   O312    1.279   .     A
C110   O306    1.279   .     A
C111   O307    1.279   .     A
C111   O318    1.279   .     A
C112   O319    1.279   .     A
C112   O308    1.279   .     A
C113   O309    1.279   .     A
C113   O316    1.279   .     A
C114   O317    1.279   .     A
C114   O310    1.279   .     A
C115   C132    1.387   .     A
C115   H190    1.083   .     S
C116   C130    1.387   .     A
C116   H191    1.083   .     S
C117   H192    1.083   .     S
C117   C129    1.387   .     A
C118   H194    1.083   .     S
C118   C128    1.387   .     A
C119   H195    1.083   .     S
C119   C127    1.387   .     A
C120   H248    1.084   .     S
C121   H196    1.083   .     S
C121   C126    1.387   .     A
C122   C125    1.387   .     A
C122   H197    1.083   .     S
C123   H198    1.083   .     S
C123   C124    1.387   .     A
C124   H199    1.083   .     S
C125   H200    1.083   .     S
C126   H201    1.083   .     S
C127   H202    1.083   .     S
C128   H203    1.083   .     S
C129   C152    1.402   .     A
C129   H205    1.083   .     S
C130   H206    1.083   .     S
C130   C151    1.402   .     A
C131   H259    1.084   .     S
C132   C150    1.402   .     A
C132   H207    1.083   .     S
C133   C151    1.402   .     A
C133   H208    1.083   .     S
C133   C149    1.387   .     A
C134   H209    1.083   .     S
C134   C150    1.402   .     A
C134   C148    1.387   .     A
C135   H210    1.083   .     S
C135   C147    1.387   .     A
C136   C152    1.402   .     A
C136   C146    1.387   .     A
C136   H211    1.083   .     S
C137   H212    1.083   .     S
C137   C145    1.387   .     A
C138   H213    1.083   .     S
C138   C144    1.387   .     A
C139   H214    1.083   .     S
C139   C143    1.387   .     A
C140   C141    1.387   .     A
C140   H216    1.083   .     S
C141   H217    1.083   .     S
C142   H270    1.084   .     S
C142   C432    1.397   .     S
C143   H218    1.083   .     S
C144   H219    1.083   .     S
C145   H220    1.083   .     S
C146   H221    1.083   .     S
C147   H222    1.083   .     S
C148   H223    1.083   .     S
C149   H224    1.083   .     S
O281   Zn336   1.944   .     S
O281   Zn333   1.944   .     S
O281   Zn1036  1.944   1_545 S
O281   Zn344   1.944   .     S
O282   C786    1.279   .     A
O282   Zn335   1.934   .     S
O283   Zn338   1.934   .     S
O283   C439    1.279   .     S
O284   Zn337   1.934   .     S
O285   Zn347   1.934   .     S
O286   Zn346   1.934   .     S
O287   Zn341   1.934   .     S
O288   Zn333   1.934   .     S
O289   Zn343   1.934   .     S
O290   Zn342   1.934   .     S
O291   Zn345   1.934   .     S
O292   Zn1031  1.944   1_545 S
O292   Zn339   1.944   .     S
O292   Zn341   1.944   .     S
O292   Zn345   1.944   .     S
O293   Zn344   1.934   .     S
O294   Zn336   1.938   .     S
O295   Zn335   1.938   .     S
O296   Zn338   1.938   .     S
O297   Zn337   1.938   .     S
O298   Zn340   1.938   .     S
O299   Zn339   1.938   .     S
O300   Zn334   1.938   .     S
O301   Zn348   1.938   .     S
O302   Zn335   1.938   .     S
O303   Zn342   1.944   .     S
O303   Zn346   1.944   .     S
O303   Zn334   1.944   .     S
O303   Zn686   1.944   1_455 S
O304   Zn336   1.938   .     S
O305   Zn348   1.938   .     S
O306   Zn334   1.938   .     S
O307   Zn339   1.938   .     S
O308   Zn340   1.938   .     S
O309   Zn337   1.938   .     S
O310   Zn338   1.938   .     S
O311   Zn691   1.938   .     S
O312   Zn342   1.938   .     S
O313   Zn1041  1.938   .     S
O314   Zn337   1.944   .     S
O314   Zn347   1.944   .     S
O314   Zn343   1.944   .     S
O314   Zn696   1.944   1_455 S
O315   Zn344   1.938   .     S
O316   Zn347   1.938   .     S
O317   Zn694   1.938   .     S
O318   Zn341   1.938   .     S
O319   Zn1029  1.938   .     S
O320   Zn690   1.938   .     S
O321   Zn343   1.938   .     S
O322   Zn333   1.938   .     S
O323   Zn1037  1.938   .     S
O324   Zn346   1.938   .     S
O325   Zn340   1.934   .     S
O325   C785    1.279   .     S
O326   Zn695   1.938   .     S
O327   Zn1040  1.938   .     S
O328   Zn345   1.938   .     S
O329   Zn339   1.934   .     S
O330   Zn334   1.934   .     S
O331   Zn348   1.934   .     S
O331   C440    1.279   .     A
O332   Zn336   1.934   .     S
Zn333  O1015   1.938   1_545 S
Zn335  O988    1.944   .     S
Zn338  O651    1.944   .     S
Zn340  O977    1.944   .     S
Zn341  O1019   1.938   1_545 S
Zn342  O668    1.938   1_455 S
Zn343  O659    1.938   1_455 S
Zn344  O1023   1.938   1_545 S
Zn345  O1009   1.938   1_545 S
Zn346  O665    1.938   1_455 S
Zn347  O674    1.938   1_455 S
Zn348  O662    1.944   .     S
C349   C410    1.397   .     A
C349   H501    1.084   .     S
C349   C428    1.397   .     S
C350   H502    1.084   .     S
C350   C433    1.397   .     A
C350   C420    1.397   .     A
C351   C476    1.402   .     A
C351   C447    1.456   .     S
C351   C483    1.402   .     A
C352   C475    1.402   .     A
C352   C486    1.402   .     A
C352   C448    1.456   .     S
C353   C474    1.402   .     A
C353   C449    1.456   .     S
C353   C485    1.402   .     A
C354   C473    1.402   .     A
C354   C450    1.456   .     S
C354   C488    1.402   .     A
C355   C451    1.456   .     S
C355   C472    1.402   .     A
C355   C487    1.402   .     A
C356   C471    1.402   .     A
C356   C491    1.402   .     A
C356   C461    1.456   .     S
C357   C462    1.456   .     S
C357   C470    1.402   .     A
C357   C489    1.402   .     A
C358   C454    1.456   .     S
C358   C469    1.402   .     A
C358   C493    1.402   .     A
C359   C467    1.402   .     A
C359   C492    1.402   .     A
C359   C455    1.456   .     S
C360   C456    1.456   .     S
C360   C495    1.402   .     A
C360   C466    1.402   .     A
C361   H513    1.084   .     S
C361   C421    1.397   .     A
C361   C1130   1.397   .     S
C362   C465    1.402   .     A
C362   C458    1.456   .     S
C362   C494    1.402   .     A
C363   C497    1.402   .     A
C363   C464    1.402   .     A
C363   C459    1.456   .     S
C364   C463    1.402   .     A
C364   C460    1.456   .     S
C364   C496    1.402   .     A
C365   C1111   1.417   1_545 A
C365   C444    1.458   .     S
C365   C410    1.417   .     S
C366   C1112   1.417   1_545 A
C366   C411    1.417   .     S
C366   C443    1.458   .     S
C367   C442    1.458   .     S
C367   C417    1.417   .     S
C368   C418    1.417   .     S
C368   C441    1.458   .     S
C369   C440    1.458   .     S
C369   C423    1.417   .     S
C370   C439    1.458   .     S
C370   C420    1.417   .     A
C371   C438    1.458   .     S
C371   C1117   1.417   1_545 A
C371   C426    1.417   .     S
C372   H524    1.084   .     S
C372   C436    1.397   .     A
C372   C422    1.397   .     A
C373   C422    1.417   .     A
C373   C437    1.458   .     S
C373   C1123   1.417   1_545 S
C374   H578    1.112   .     S
C374   C375    1.526   .     S
C374   H577    1.110   .     S
C374   C410    1.516   .     S
C375   H575    1.110   .     S
C375   H573    1.111   .     S
C375   H576    1.111   .     S
C376   C411    1.516   .     S
C376   H582    1.110   .     S
C376   C377    1.526   .     S
C376   H583    1.112   .     S
C377   H580    1.110   .     S
C377   H581    1.111   .     S
C377   H579    1.110   .     S
C378   H589    1.112   .     S
C378   H588    1.110   .     S
C378   C412    1.516   .     S
C378   C379    1.526   .     S
C379   H586    1.110   .     S
C379   H587    1.111   .     S
C379   H584    1.111   .     S
C380   H593    1.110   .     S
C380   C414    1.516   .     S
C380   C381    1.526   .     S
C380   H594    1.112   .     S
C381   H591    1.110   .     S
C381   H590    1.110   .     S
C381   H592    1.111   .     S
C382   C415    1.516   .     S
C382   C384    1.526   .     S
C382   H599    1.110   .     S
C382   H600    1.112   .     S
C383   C432    1.397   .     A
C383   H534    1.084   .     S
C383   C423    1.397   .     A
C384   H598    1.111   .     S
C384   H595    1.110   .     S
C384   H597    1.110   .     S
C385   H605    1.112   .     S
C385   C416    1.516   .     S
C385   C386    1.526   .     S
C385   H604    1.110   .     S
C386   H602    1.110   .     S
C386   H603    1.111   .     S
C386   H601    1.110   .     S
C387   C388    1.526   .     S
C387   C417    1.516   .     S
C387   H610    1.110   .     S
C387   H611    1.112   .     S
C388   H606    1.110   .     S
C388   H608    1.110   .     S
C388   H609    1.111   .     S
C389   H615    1.110   .     S
C389   C390    1.526   .     S
C389   H616    1.112   .     S
C389   C418    1.516   .     S
C390   H614    1.111   .     S
C390   H612    1.111   .     S
C390   H613    1.110   .     S
C391   C392    1.526   .     S
C391   C419    1.516   .     S
C391   H622    1.112   .     S
C391   H621    1.110   .     S
C392   H620    1.111   .     S
C392   H617    1.110   .     S
C392   H619    1.111   .     S
C393   C395    1.526   .     S
C393   H627    1.112   .     S
C393   H626    1.110   .     S
C393   C420    1.516   .     S
C394   C425    1.397   .     A
C394   H535    1.084   .     S
C394   C85     1.397   1_655 S
C395   H624    1.111   .     S
C395   H625    1.111   .     S
C395   H623    1.111   .     S
C396   H506    1.112   .     S
C396   C397    1.526   .     S
C396   C421    1.516   .     S
C396   H505    1.110   .     S
C397   H628    1.110   .     S
C397   H503    1.110   .     S
C397   H504    1.111   .     S
C398   C399    1.526   .     S
C398   H510    1.110   .     S
C398   C422    1.516   .     S
C398   H511    1.112   .     S
C399   H508    1.110   .     S
C399   H509    1.111   .     S
C399   H507    1.110   .     S
C400   C423    1.516   .     S
C400   C401    1.526   .     S
C400   H517    1.112   .     S
C400   H516    1.110   .     S
C401   H514    1.110   .     S
C401   H512    1.110   .     S
C401   H515    1.111   .     S
C402   C425    1.516   .     S
C402   C403    1.526   .     S
C402   H522    1.112   .     S
C402   H521    1.110   .     S
C403   H520    1.111   .     S
C403   H519    1.110   .     S
C403   H518    1.111   .     S
C404   C426    1.516   .     S
C404   H528    1.112   .     S
C404   C406    1.526   .     S
C404   H527    1.110   .     S
C405   C426    1.397   .     A
C405   C434    1.397   .     A
C405   H536    1.084   .     S
C406   H526    1.111   .     S
C406   H523    1.110   .     S
C406   H525    1.111   .     S
C407   C408    1.526   .     S
C407   H533    1.112   .     S
C407   C427    1.516   .     S
C407   H532    1.110   .     S
C408   H529    1.110   .     S
C408   H531    1.111   .     S
C408   H530    1.110   .     S
C409   H537    1.084   .     S
C409   C427    1.397   .     A
C409   C1132   1.397   .     S
C411   C413    1.397   .     A
C412   C19     1.417   1_655 A
C412   C424    1.397   .     A
C413   H541    1.084   .     S
C413   C429    1.397   .     S
C414   C20     1.417   1_655 A
C414   C435    1.397   .     A
C415   C1061   1.417   .     A
C415   C446    1.397   .     A
C416   C1062   1.417   .     A
C416   C457    1.397   .     A
C417   C468    1.397   .     A
C418   C479    1.397   .     A
C419   C21     1.417   1_655 A
C419   C490    1.397   .     A
C421   C1067   1.417   .     A
C424   C82     1.397   1_655 A
C424   H552    1.084   .     S
C425   C22     1.417   1_655 S
C427   C1069   1.417   .     S
C428   C1142   1.397   1_545 A
C428   C429    1.465   1_554 S
C429   C1153   1.397   1_545 A
C429   C428    1.465   1_556 S
C430   C431    1.465   1_554 S
C430   C468    1.397   .     S
C431   C430    1.465   1_556 S
C431   C479    1.397   .     S
C432   C433    1.465   .     S
C434   C436    1.465   .     S
C434   C1057   1.397   1_545 S
C435   C83     1.397   1_655 A
C435   H563    1.084   .     S
C436   C1105   1.397   1_545 S
C437   O680    1.279   .     A
C437   O1369   1.279   1_545 S
C438   O1326   1.279   1_545 A
C438   O677    1.279   .     S
C439   O678    1.279   .     A
C440   O632    1.279   .     S
C441   O633    1.279   .     A
C441   O637    1.279   .     A
C442   O634    1.279   .     S
C442   O638    1.279   .     S
C443   O639    1.279   .     A
C443   O635    1.279   .     A
C444   O636    1.279   .     S
C444   O641    1.279   .     S
C445   O642    1.279   .     A
C445   C500    1.456   .     S
C445   O670    1.279   .     A
C446   C1124   1.397   .     A
C446   H574    1.084   .     S
C447   O643    1.279   .     A
C447   O671    1.279   .     A
C448   O644    1.279   .     A
C448   O668    1.279   .     A
C449   O669    1.279   .     A
C449   O645    1.279   .     A
C450   O675    1.279   .     A
C450   O646    1.279   .     A
C451   O647    1.279   .     A
C451   O676    1.279   .     A
C452   C498    1.456   .     S
C452   O648    1.279   .     A
C452   O672    1.279   .     A
C453   C499    1.456   .     S
C453   O649    1.279   .     A
C453   O674    1.279   .     A
C454   O650    1.279   .     A
C454   O661    1.279   .     A
C455   O663    1.279   .     A
C455   O652    1.279   .     A
C456   O653    1.279   .     A
C456   O659    1.279   .     A
C457   C1125   1.397   .     A
C457   H585    1.084   .     S
C458   O660    1.279   .     A
C458   O654    1.279   .     A
C459   O655    1.279   .     A
C459   O666    1.279   .     A
C460   O667    1.279   .     A
C460   O656    1.279   .     A
C461   O657    1.279   .     A
C461   O664    1.279   .     A
C462   O665    1.279   .     A
C462   O658    1.279   .     A
C463   C480    1.387   .     A
C463   H538    1.083   .     S
C464   C478    1.387   .     A
C464   H539    1.083   .     S
C465   H540    1.083   .     S
C465   C477    1.387   .     A
C466   H542    1.083   .     S
C466   C476    1.387   .     A
C467   H543    1.083   .     S
C467   C475    1.387   .     A
C468   H596    1.084   .     S
C469   H544    1.083   .     S
C469   C474    1.387   .     A
C470   C473    1.387   .     A
C470   H545    1.083   .     S
C471   H546    1.083   .     S
C471   C472    1.387   .     A
C472   H547    1.083   .     S
C473   H548    1.083   .     S
C474   H549    1.083   .     S
C475   H550    1.083   .     S
C476   H551    1.083   .     S
C477   C500    1.402   .     A
C477   H553    1.083   .     S
C478   H554    1.083   .     S
C478   C499    1.402   .     A
C479   H607    1.084   .     S
C480   C498    1.402   .     A
C480   H555    1.083   .     S
C481   C499    1.402   .     A
C481   H556    1.083   .     S
C481   C497    1.387   .     A
C482   H557    1.083   .     S
C482   C498    1.402   .     A
C482   C496    1.387   .     A
C483   H558    1.083   .     S
C483   C495    1.387   .     A
C484   C500    1.402   .     A
C484   C494    1.387   .     A
C484   H559    1.083   .     S
C485   H560    1.083   .     S
C485   C493    1.387   .     A
C486   H561    1.083   .     S
C486   C492    1.387   .     A
C487   H562    1.083   .     S
C487   C491    1.387   .     A
C488   C489    1.387   .     A
C488   H564    1.083   .     S
C489   H565    1.083   .     S
C490   H618    1.084   .     S
C490   C84     1.397   1_655 S
C491   H566    1.083   .     S
C492   H567    1.083   .     S
C493   H568    1.083   .     S
C494   H569    1.083   .     S
C495   H570    1.083   .     S
C496   H571    1.083   .     S
C497   H572    1.083   .     S
O629   Zn684   1.944   .     S
O629   Zn681   1.944   .     S
O629   Zn1384  1.944   1_545 S
O629   Zn692   1.944   .     S
O630   C1134   1.279   .     A
O630   Zn683   1.934   .     S
O631   Zn686   1.934   .     S
O631   C91     1.279   1_655 S
O632   Zn685   1.934   .     S
O633   Zn695   1.934   .     S
O634   Zn694   1.934   .     S
O635   Zn689   1.934   .     S
O636   Zn681   1.934   .     S
O637   Zn691   1.934   .     S
O638   Zn690   1.934   .     S
O639   Zn693   1.934   .     S
O640   Zn1379  1.944   1_545 S
O640   Zn687   1.944   .     S
O640   Zn689   1.944   .     S
O640   Zn693   1.944   .     S
O641   Zn692   1.934   .     S
O642   Zn684   1.938   .     S
O643   Zn683   1.938   .     S
O644   Zn686   1.938   .     S
O645   Zn685   1.938   .     S
O646   Zn688   1.938   .     S
O647   Zn687   1.938   .     S
O648   Zn682   1.938   .     S
O649   Zn696   1.938   .     S
O650   Zn683   1.938   .     S
O651   Zn690   1.944   .     S
O651   Zn694   1.944   .     S
O651   Zn682   1.944   .     S
O652   Zn684   1.938   .     S
O653   Zn696   1.938   .     S
O654   Zn682   1.938   .     S
O655   Zn687   1.938   .     S
O656   Zn688   1.938   .     S
O657   Zn685   1.938   .     S
O658   Zn686   1.938   .     S
O659   Zn343   1.938   1_655 S
O660   Zn690   1.938   .     S
O661   Zn1389  1.938   .     S
O662   Zn685   1.944   .     S
O662   Zn695   1.944   .     S
O662   Zn691   1.944   .     S
O663   Zn692   1.938   .     S
O664   Zn695   1.938   .     S
O665   Zn346   1.938   1_655 S
O666   Zn689   1.938   .     S
O667   Zn1377  1.938   .     S
O668   Zn342   1.938   1_655 S
O669   Zn691   1.938   .     S
O670   Zn681   1.938   .     S
O671   Zn1385  1.938   .     S
O672   Zn694   1.938   .     S
O673   Zn688   1.934   .     S
O673   C1133   1.279   .     S
O674   Zn347   1.938   1_655 S
O675   Zn1388  1.938   .     S
O676   Zn693   1.938   .     S
O677   Zn687   1.934   .     S
O678   Zn682   1.934   .     S
O679   Zn696   1.934   .     S
O679   C92     1.279   1_655 A
O680   Zn684   1.934   .     S
Zn681  O1363   1.938   1_545 S
Zn683  O1336   1.944   .     S
Zn686  O303    1.944   1_655 S
Zn688  O1325   1.944   .     S
Zn689  O1367   1.938   1_545 S
Zn692  O1371   1.938   1_545 S
Zn693  O1357   1.938   1_545 S
Zn696  O314    1.944   1_655 S
C697   C758    1.397   .     A
C697   H849    1.084   .     S
C697   C776    1.397   .     S
C698   H850    1.084   .     S
C698   C781    1.397   .     A
C698   C768    1.397   .     A
C699   C824    1.402   .     A
C699   C795    1.456   .     S
C699   C831    1.402   .     A
C700   C823    1.402   .     A
C700   C834    1.402   .     A
C700   C796    1.456   .     S
C701   C822    1.402   .     A
C701   C797    1.456   .     S
C701   C833    1.402   .     A
C702   C821    1.402   .     A
C702   C798    1.456   .     S
C702   C836    1.402   .     A
C703   C799    1.456   .     S
C703   C820    1.402   .     A
C703   C835    1.402   .     A
C704   C819    1.402   .     A
C704   C839    1.402   .     A
C704   C809    1.456   .     S
C705   C810    1.456   .     S
C705   C818    1.402   .     A
C705   C837    1.402   .     A
C706   C802    1.456   .     S
C706   C817    1.402   .     A
C706   C841    1.402   .     A
C707   C815    1.402   .     A
C707   C840    1.402   .     A
C707   C803    1.456   .     S
C708   C804    1.456   .     S
C708   C843    1.402   .     A
C708   C814    1.402   .     A
C709   H861    1.084   .     S
C709   C769    1.397   .     A
C709   C86     1.397   1_565 S
C710   C813    1.402   .     A
C710   C806    1.456   .     S
C710   C842    1.402   .     A
C711   C845    1.402   .     A
C711   C812    1.402   .     A
C711   C807    1.456   .     S
C712   C811    1.402   .     A
C712   C808    1.456   .     S
C712   C844    1.402   .     A
C713   C792    1.458   .     S
C713   C758    1.417   .     S
C714   C759    1.417   .     S
C714   C791    1.458   .     S
C715   C790    1.458   .     S
C715   C1108   1.417   1_455 A
C715   C765    1.417   .     S
C716   C1110   1.417   1_455 A
C716   C766    1.417   .     S
C716   C789    1.458   .     S
C717   C788    1.458   .     S
C717   C1115   1.417   1_455 A
C717   C771    1.417   .     S
C718   C787    1.458   .     S
C718   C768    1.417   .     A
C718   C1121   1.417   1_455 S
C719   C786    1.458   .     S
C719   C774    1.417   .     S
C720   H872    1.084   .     S
C720   C784    1.397   .     A
C720   C770    1.397   .     A
C721   C770    1.417   .     A
C721   C785    1.458   .     S
C722   H926    1.112   .     S
C722   C723    1.526   .     S
C722   H925    1.110   .     S
C722   C758    1.516   .     S
C723   H923    1.110   .     S
C723   H921    1.111   .     S
C723   H924    1.111   .     S
C724   C759    1.516   .     S
C724   H930    1.110   .     S
C724   C725    1.526   .     S
C724   H931    1.112   .     S
C725   H928    1.110   .     S
C725   H929    1.111   .     S
C725   H927    1.110   .     S
C726   H937    1.112   .     S
C726   H936    1.110   .     S
C726   C760    1.516   .     S
C726   C727    1.526   .     S
C727   H934    1.110   .     S
C727   H935    1.111   .     S
C727   H932    1.111   .     S
C728   H941    1.110   .     S
C728   C762    1.516   .     S
C728   C729    1.526   .     S
C728   H942    1.112   .     S
C729   H939    1.110   .     S
C729   H938    1.110   .     S
C729   H940    1.111   .     S
C730   C763    1.516   .     S
C730   C732    1.526   .     S
C730   H947    1.110   .     S
C730   H948    1.112   .     S
C731   C780    1.397   .     A
C731   H882    1.084   .     S
C731   C771    1.397   .     A
C732   H946    1.111   .     S
C732   H943    1.110   .     S
C732   H945    1.110   .     S
C733   H953    1.112   .     S
C733   C764    1.516   .     S
C733   C734    1.526   .     S
C733   H952    1.110   .     S
C734   H950    1.110   .     S
C734   H951    1.111   .     S
C734   H949    1.110   .     S
C735   C736    1.526   .     S
C735   C765    1.516   .     S
C735   H958    1.110   .     S
C735   H959    1.112   .     S
C736   H954    1.110   .     S
C736   H956    1.110   .     S
C736   H957    1.111   .     S
C737   H963    1.110   .     S
C737   C738    1.526   .     S
C737   H964    1.112   .     S
C737   C766    1.516   .     S
C738   H962    1.111   .     S
C738   H960    1.111   .     S
C738   H961    1.110   .     S
C739   C740    1.526   .     S
C739   C767    1.516   .     S
C739   H970    1.112   .     S
C739   H969    1.110   .     S
C740   H968    1.111   .     S
C740   H965    1.110   .     S
C740   H967    1.111   .     S
C741   C743    1.526   .     S
C741   H975    1.112   .     S
C741   H974    1.110   .     S
C741   C768    1.516   .     S
C742   C773    1.397   .     A
C742   H883    1.084   .     S
C742   C1129   1.397   .     S
C743   H972    1.111   .     S
C743   H973    1.111   .     S
C743   H971    1.111   .     S
C744   H854    1.112   .     S
C744   C745    1.526   .     S
C744   C769    1.516   .     S
C744   H853    1.110   .     S
C745   H976    1.110   .     S
C745   H851    1.110   .     S
C745   H852    1.111   .     S
C746   C747    1.526   .     S
C746   H858    1.110   .     S
C746   C770    1.516   .     S
C746   H859    1.112   .     S
C747   H856    1.110   .     S
C747   H857    1.111   .     S
C747   H855    1.110   .     S
C748   C771    1.516   .     S
C748   C749    1.526   .     S
C748   H865    1.112   .     S
C748   H864    1.110   .     S
C749   H862    1.110   .     S
C749   H860    1.110   .     S
C749   H863    1.111   .     S
C750   C773    1.516   .     S
C750   C751    1.526   .     S
C750   H870    1.112   .     S
C750   H869    1.110   .     S
C751   H868    1.111   .     S
C751   H867    1.110   .     S
C751   H866    1.111   .     S
C752   C774    1.516   .     S
C752   H876    1.112   .     S
C752   C754    1.526   .     S
C752   H875    1.110   .     S
C753   C774    1.397   .     A
C753   C782    1.397   .     A
C753   H884    1.084   .     S
C754   H874    1.111   .     S
C754   H871    1.110   .     S
C754   H873    1.111   .     S
C755   C756    1.526   .     S
C755   H881    1.112   .     S
C755   C775    1.516   .     S
C755   H880    1.110   .     S
C756   H877    1.110   .     S
C756   H879    1.111   .     S
C756   H878    1.110   .     S
C757   H885    1.084   .     S
C757   C775    1.397   .     A
C757   C88     1.397   1_565 S
C759   C761    1.397   .     A
C760   C1063   1.417   .     A
C760   C772    1.397   .     A
C761   H889    1.084   .     S
C761   C777    1.397   .     S
C762   C1064   1.417   .     A
C762   C783    1.397   .     A
C763   C17     1.417   1_565 A
C763   C794    1.397   .     A
C764   C18     1.417   1_565 A
C764   C805    1.397   .     A
C765   C816    1.397   .     A
C766   C827    1.397   .     A
C767   C1065   1.417   .     A
C767   C838    1.397   .     A
C769   C23     1.417   1_565 A
C772   C1126   1.397   .     A
C772   H900    1.084   .     S
C773   C1066   1.417   .     S
C775   C25     1.417   1_565 S
C776   C777    1.465   1_554 S
C777   C776    1.465   1_556 S
C778   C1120   1.397   1_455 A
C778   C779    1.465   1_554 S
C778   C816    1.397   .     S
C779   C1131   1.397   1_455 A
C779   C778    1.465   1_556 S
C779   C827    1.397   .     S
C780   C781    1.465   .     S
C780   C1186   1.397   1_455 S
C781   C1090   1.397   1_455 S
C782   C784    1.465   .     S
C783   C1127   1.397   .     A
C783   H911    1.084   .     S
C785   O1028   1.279   .     A
C786   O1025   1.279   .     S
C787   O1026   1.279   .     A
C787   O1327   1.279   1_455 S
C788   O1375   1.279   1_455 A
C788   O980    1.279   .     S
C789   O981    1.279   .     A
C789   O985    1.279   .     A
C790   O982    1.279   .     S
C790   O986    1.279   .     S
C791   O987    1.279   .     A
C791   O983    1.279   .     A
C792   O984    1.279   .     S
C792   O989    1.279   .     S
C793   O990    1.279   .     A
C793   C848    1.456   .     S
C793   O1018   1.279   .     A
C794   C80     1.397   1_565 A
C794   H922    1.084   .     S
C795   O991    1.279   .     A
C795   O1019   1.279   .     A
C796   O992    1.279   .     A
C796   O1016   1.279   .     A
C797   O1017   1.279   .     A
C797   O993    1.279   .     A
C798   O1023   1.279   .     A
C798   O994    1.279   .     A
C799   O995    1.279   .     A
C799   O1024   1.279   .     A
C800   C846    1.456   .     S
C800   O996    1.279   .     A
C800   O1020   1.279   .     A
C801   C847    1.456   .     S
C801   O997    1.279   .     A
C801   O1022   1.279   .     A
C802   O998    1.279   .     A
C802   O1009   1.279   .     A
C803   O1011   1.279   .     A
C803   O1000   1.279   .     A
C804   O1001   1.279   .     A
C804   O1007   1.279   .     A
C805   C81     1.397   1_565 A
C805   H933    1.084   .     S
C806   O1008   1.279   .     A
C806   O1002   1.279   .     A
C807   O1003   1.279   .     A
C807   O1014   1.279   .     A
C808   O1015   1.279   .     A
C808   O1004   1.279   .     A
C809   O1005   1.279   .     A
C809   O1012   1.279   .     A
C810   O1013   1.279   .     A
C810   O1006   1.279   .     A
C811   C828    1.387   .     A
C811   H886    1.083   .     S
C812   C826    1.387   .     A
C812   H887    1.083   .     S
C813   H888    1.083   .     S
C813   C825    1.387   .     A
C814   H890    1.083   .     S
C814   C824    1.387   .     A
C815   H891    1.083   .     S
C815   C823    1.387   .     A
C816   H944    1.084   .     S
C817   H892    1.083   .     S
C817   C822    1.387   .     A
C818   C821    1.387   .     A
C818   H893    1.083   .     S
C819   H894    1.083   .     S
C819   C820    1.387   .     A
C820   H895    1.083   .     S
C821   H896    1.083   .     S
C822   H897    1.083   .     S
C823   H898    1.083   .     S
C824   H899    1.083   .     S
C825   C848    1.402   .     A
C825   H901    1.083   .     S
C826   H902    1.083   .     S
C826   C847    1.402   .     A
C827   H955    1.084   .     S
C828   C846    1.402   .     A
C828   H903    1.083   .     S
C829   C847    1.402   .     A
C829   H904    1.083   .     S
C829   C845    1.387   .     A
C830   H905    1.083   .     S
C830   C846    1.402   .     A
C830   C844    1.387   .     A
C831   H906    1.083   .     S
C831   C843    1.387   .     A
C832   C848    1.402   .     A
C832   C842    1.387   .     A
C832   H907    1.083   .     S
C833   H908    1.083   .     S
C833   C841    1.387   .     A
C834   H909    1.083   .     S
C834   C840    1.387   .     A
C835   H910    1.083   .     S
C835   C839    1.387   .     A
C836   C837    1.387   .     A
C836   H912    1.083   .     S
C837   H913    1.083   .     S
C838   H966    1.084   .     S
C838   C1128   1.397   .     S
C839   H914    1.083   .     S
C840   H915    1.083   .     S
C841   H916    1.083   .     S
C842   H917    1.083   .     S
C843   H918    1.083   .     S
C844   H919    1.083   .     S
C845   H920    1.083   .     S
O977   Zn1032  1.944   .     S
O977   Zn1029  1.944   .     S
O977   Zn1040  1.944   .     S
O978   C90     1.279   1_565 A
O978   Zn1031  1.934   .     S
O979   Zn1034  1.934   .     S
O979   C1135   1.279   .     S
O980   Zn1033  1.934   .     S
O981   Zn1043  1.934   .     S
O982   Zn1042  1.934   .     S
O983   Zn1037  1.934   .     S
O984   Zn1029  1.934   .     S
O985   Zn1039  1.934   .     S
O986   Zn1038  1.934   .     S
O987   Zn1041  1.934   .     S
O988   Zn1035  1.944   .     S
O988   Zn1037  1.944   .     S
O988   Zn1041  1.944   .     S
O989   Zn1040  1.934   .     S
O990   Zn1032  1.938   .     S
O991   Zn1031  1.938   .     S
O992   Zn1034  1.938   .     S
O993   Zn1033  1.938   .     S
O994   Zn1036  1.938   .     S
O995   Zn1035  1.938   .     S
O996   Zn1030  1.938   .     S
O997   Zn1044  1.938   .     S
O998   Zn1031  1.938   .     S
O999   Zn1038  1.944   .     S
O999   Zn1042  1.944   .     S
O999   Zn1030  1.944   .     S
O999   Zn1382  1.944   1_455 S
O1000  Zn1032  1.938   .     S
O1001  Zn1044  1.938   .     S
O1002  Zn1030  1.938   .     S
O1003  Zn1035  1.938   .     S
O1004  Zn1036  1.938   .     S
O1005  Zn1033  1.938   .     S
O1006  Zn1034  1.938   .     S
O1007  Zn1387  1.938   .     S
O1008  Zn1038  1.938   .     S
O1009  Zn345   1.938   1_565 S
O1010  Zn1033  1.944   .     S
O1010  Zn1043  1.944   .     S
O1010  Zn1039  1.944   .     S
O1010  Zn1392  1.944   1_455 S
O1011  Zn1040  1.938   .     S
O1012  Zn1043  1.938   .     S
O1013  Zn1390  1.938   .     S
O1014  Zn1037  1.938   .     S
O1015  Zn333   1.938   1_565 S
O1016  Zn1386  1.938   .     S
O1017  Zn1039  1.938   .     S
O1018  Zn1029  1.938   .     S
O1019  Zn341   1.938   1_565 S
O1020  Zn1042  1.938   .     S
O1021  Zn1036  1.934   .     S
O1021  C89     1.279   1_565 S
O1022  Zn1391  1.938   .     S
O1023  Zn344   1.938   1_565 S
O1024  Zn1041  1.938   .     S
O1025  Zn1035  1.934   .     S
O1026  Zn1030  1.934   .     S
O1027  Zn1044  1.934   .     S
O1027  C1136   1.279   .     A
O1028  Zn1032  1.934   .     S
Zn1031 O292    1.944   1_565 S
Zn1034 O1347   1.944   .     S
Zn1036 O281    1.944   1_565 S
Zn1038 O1364   1.938   1_455 S
Zn1039 O1355   1.938   1_455 S
Zn1042 O1361   1.938   1_455 S
Zn1043 O1370   1.938   1_455 S
Zn1044 O1358   1.944   .     S
C1045  C1106   1.397   .     A
C1045  H1197   1.084   .     S
C1045  C1124   1.397   .     S
C1046  H1198   1.084   .     S
C1046  C1129   1.397   .     A
C1046  C1116   1.397   .     A
C1047  C1172   1.402   .     A
C1047  C1143   1.456   .     S
C1047  C1179   1.402   .     A
C1048  C1171   1.402   .     A
C1048  C1182   1.402   .     A
C1048  C1144   1.456   .     S
C1049  C1170   1.402   .     A
C1049  C1145   1.456   .     S
C1049  C1181   1.402   .     A
C1050  C1169   1.402   .     A
C1050  C1146   1.456   .     S
C1050  C1184   1.402   .     A
C1051  C1147   1.456   .     S
C1051  C1168   1.402   .     A
C1051  C1183   1.402   .     A
C1052  C1167   1.402   .     A
C1052  C1187   1.402   .     A
C1052  C1157   1.456   .     S
C1053  C1158   1.456   .     S
C1053  C1166   1.402   .     A
C1053  C1185   1.402   .     A
C1054  C1150   1.456   .     S
C1054  C1165   1.402   .     A
C1054  C1189   1.402   .     A
C1055  C1163   1.402   .     A
C1055  C1188   1.402   .     A
C1055  C1151   1.456   .     S
C1056  C1152   1.456   .     S
C1056  C1191   1.402   .     A
C1056  C1162   1.402   .     A
C1057  H1209   1.084   .     S
C1057  C1117   1.397   .     A
C1057  C434    1.397   1_565 S
C1058  C1161   1.402   .     A
C1058  C1154   1.456   .     S
C1058  C1190   1.402   .     A
C1059  C1193   1.402   .     A
C1059  C1160   1.402   .     A
C1059  C1155   1.456   .     S
C1060  C1159   1.402   .     A
C1060  C1156   1.456   .     S
C1060  C1192   1.402   .     A
C1061  C1140   1.458   .     S
C1061  C1106   1.417   .     S
C1062  C1107   1.417   .     S
C1062  C1139   1.458   .     S
C1063  C1138   1.458   .     S
C1063  C1113   1.417   .     S
C1064  C1114   1.417   .     S
C1064  C1137   1.458   .     S
C1065  C1136   1.458   .     S
C1065  C1119   1.417   .     S
C1066  C1135   1.458   .     S
C1066  C1116   1.417   .     A
C1067  C1134   1.458   .     S
C1067  C1122   1.417   .     S
C1068  H1220   1.084   .     S
C1068  C1132   1.397   .     A
C1068  C1118   1.397   .     A
C1069  C1118   1.417   .     A
C1069  C1133   1.458   .     S
C1070  H1274   1.112   .     S
C1070  C1071   1.526   .     S
C1070  H1273   1.110   .     S
C1070  C1106   1.516   .     S
C1071  H1271   1.110   .     S
C1071  H1269   1.111   .     S
C1071  H1272   1.111   .     S
C1072  C1107   1.516   .     S
C1072  H1278   1.110   .     S
C1072  C1073   1.526   .     S
C1072  H1279   1.112   .     S
C1073  H1276   1.110   .     S
C1073  H1277   1.111   .     S
C1073  H1275   1.110   .     S
C1074  H1285   1.112   .     S
C1074  H1284   1.110   .     S
C1074  C1108   1.516   .     S
C1074  C1075   1.526   .     S
C1075  H1282   1.110   .     S
C1075  H1283   1.111   .     S
C1075  H1280   1.111   .     S
C1076  H1289   1.110   .     S
C1076  C1110   1.516   .     S
C1076  C1077   1.526   .     S
C1076  H1290   1.112   .     S
C1077  H1287   1.110   .     S
C1077  H1286   1.110   .     S
C1077  H1288   1.111   .     S
C1078  C1111   1.516   .     S
C1078  C1080   1.526   .     S
C1078  H1295   1.110   .     S
C1078  H1296   1.112   .     S
C1079  C1128   1.397   .     A
C1079  H1230   1.084   .     S
C1079  C1119   1.397   .     A
C1080  H1294   1.111   .     S
C1080  H1291   1.110   .     S
C1080  H1293   1.110   .     S
C1081  H1301   1.112   .     S
C1081  C1112   1.516   .     S
C1081  C1082   1.526   .     S
C1081  H1300   1.110   .     S
C1082  H1298   1.110   .     S
C1082  H1299   1.111   .     S
C1082  H1297   1.110   .     S
C1083  C1084   1.526   .     S
C1083  C1113   1.516   .     S
C1083  H1306   1.110   .     S
C1083  H1307   1.112   .     S
C1084  H1302   1.110   .     S
C1084  H1304   1.110   .     S
C1084  H1305   1.111   .     S
C1085  H1311   1.110   .     S
C1085  C1086   1.526   .     S
C1085  H1312   1.112   .     S
C1085  C1114   1.516   .     S
C1086  H1310   1.111   .     S
C1086  H1308   1.111   .     S
C1086  H1309   1.110   .     S
C1087  C1088   1.526   .     S
C1087  C1115   1.516   .     S
C1087  H1318   1.112   .     S
C1087  H1317   1.110   .     S
C1088  H1316   1.111   .     S
C1088  H1313   1.110   .     S
C1088  H1315   1.111   .     S
C1089  C1091   1.526   .     S
C1089  H1323   1.112   .     S
C1089  H1322   1.110   .     S
C1089  C1116   1.516   .     S
C1090  C1121   1.397   .     A
C1090  H1231   1.084   .     S
C1090  C781    1.397   1_655 S
C1091  H1320   1.111   .     S
C1091  H1321   1.111   .     S
C1091  H1319   1.111   .     S
C1092  H1202   1.112   .     S
C1092  C1093   1.526   .     S
C1092  C1117   1.516   .     S
C1092  H1201   1.110   .     S
C1093  H1324   1.110   .     S
C1093  H1199   1.110   .     S
C1093  H1200   1.111   .     S
C1094  C1095   1.526   .     S
C1094  H1206   1.110   .     S
C1094  C1118   1.516   .     S
C1094  H1207   1.112   .     S
C1095  H1204   1.110   .     S
C1095  H1205   1.111   .     S
C1095  H1203   1.110   .     S
C1096  C1119   1.516   .     S
C1096  C1097   1.526   .     S
C1096  H1213   1.112   .     S
C1096  H1212   1.110   .     S
C1097  H1210   1.110   .     S
C1097  H1208   1.110   .     S
C1097  H1211   1.111   .     S
C1098  C1121   1.516   .     S
C1098  C1099   1.526   .     S
C1098  H1218   1.112   .     S
C1098  H1217   1.110   .     S
C1099  H1216   1.111   .     S
C1099  H1215   1.110   .     S
C1099  H1214   1.111   .     S
C1100  C1122   1.516   .     S
C1100  H1224   1.112   .     S
C1100  C1102   1.526   .     S
C1100  H1223   1.110   .     S
C1101  C1122   1.397   .     A
C1101  C1130   1.397   .     A
C1101  H1232   1.084   .     S
C1102  H1222   1.111   .     S
C1102  H1219   1.110   .     S
C1102  H1221   1.111   .     S
C1103  C1104   1.526   .     S
C1103  H1229   1.112   .     S
C1103  C1123   1.516   .     S
C1103  H1228   1.110   .     S
C1104  H1225   1.110   .     S
C1104  H1227   1.111   .     S
C1104  H1226   1.110   .     S
C1105  H1233   1.084   .     S
C1105  C1123   1.397   .     A
C1105  C436    1.397   1_565 S
C1107  C1109   1.397   .     A
C1108  C715    1.417   1_655 A
C1108  C1120   1.397   .     A
C1109  H1237   1.084   .     S
C1109  C1125   1.397   .     S
C1110  C716    1.417   1_655 A
C1110  C1131   1.397   .     A
C1111  C365    1.417   1_565 A
C1111  C1142   1.397   .     A
C1112  C366    1.417   1_565 A
C1112  C1153   1.397   .     A
C1113  C1164   1.397   .     A
C1114  C1175   1.397   .     A
C1115  C717    1.417   1_655 A
C1115  C1186   1.397   .     A
C1117  C371    1.417   1_565 A
C1120  C778    1.397   1_655 A
C1120  H1248   1.084   .     S
C1121  C718    1.417   1_655 S
C1123  C373    1.417   1_565 S
C1124  C1125   1.465   1_554 S
C1125  C1124   1.465   1_556 S
C1126  C1127   1.465   1_554 S
C1126  C1164   1.397   .     S
C1127  C1126   1.465   1_556 S
C1127  C1175   1.397   .     S
C1128  C1129   1.465   .     S
C1130  C1132   1.465   .     S
C1131  C779    1.397   1_655 A
C1131  H1259   1.084   .     S
C1133  O1376   1.279   .     A
C1134  O1373   1.279   .     S
C1135  O1374   1.279   .     A
C1136  O1328   1.279   .     S
C1137  O1329   1.279   .     A
C1137  O1333   1.279   .     A
C1138  O1330   1.279   .     S
C1138  O1334   1.279   .     S
C1139  O1335   1.279   .     A
C1139  O1331   1.279   .     A
C1140  O1332   1.279   .     S
C1140  O1337   1.279   .     S
C1141  O1338   1.279   .     A
C1141  C1196   1.456   .     S
C1141  O1366   1.279   .     A
C1142  C428    1.397   1_565 A
C1142  H1270   1.084   .     S
C1143  O1339   1.279   .     A
C1143  O1367   1.279   .     A
C1144  O1340   1.279   .     A
C1144  O1364   1.279   .     A
C1145  O1365   1.279   .     A
C1145  O1341   1.279   .     A
C1146  O1371   1.279   .     A
C1146  O1342   1.279   .     A
C1147  O1343   1.279   .     A
C1147  O1372   1.279   .     A
C1148  C1194   1.456   .     S
C1148  O1344   1.279   .     A
C1148  O1368   1.279   .     A
C1149  C1195   1.456   .     S
C1149  O1345   1.279   .     A
C1149  O1370   1.279   .     A
C1150  O1346   1.279   .     A
C1150  O1357   1.279   .     A
C1151  O1359   1.279   .     A
C1151  O1348   1.279   .     A
C1152  O1349   1.279   .     A
C1152  O1355   1.279   .     A
C1153  C429    1.397   1_565 A
C1153  H1281   1.084   .     S
C1154  O1356   1.279   .     A
C1154  O1350   1.279   .     A
C1155  O1351   1.279   .     A
C1155  O1362   1.279   .     A
C1156  O1363   1.279   .     A
C1156  O1352   1.279   .     A
C1157  O1353   1.279   .     A
C1157  O1360   1.279   .     A
C1158  O1361   1.279   .     A
C1158  O1354   1.279   .     A
C1159  C1176   1.387   .     A
C1159  H1234   1.083   .     S
C1160  C1174   1.387   .     A
C1160  H1235   1.083   .     S
C1161  H1236   1.083   .     S
C1161  C1173   1.387   .     A
C1162  H1238   1.083   .     S
C1162  C1172   1.387   .     A
C1163  H1239   1.083   .     S
C1163  C1171   1.387   .     A
C1164  H1292   1.084   .     S
C1165  H1240   1.083   .     S
C1165  C1170   1.387   .     A
C1166  C1169   1.387   .     A
C1166  H1241   1.083   .     S
C1167  H1242   1.083   .     S
C1167  C1168   1.387   .     A
C1168  H1243   1.083   .     S
C1169  H1244   1.083   .     S
C1170  H1245   1.083   .     S
C1171  H1246   1.083   .     S
C1172  H1247   1.083   .     S
C1173  C1196   1.402   .     A
C1173  H1249   1.083   .     S
C1174  H1250   1.083   .     S
C1174  C1195   1.402   .     A
C1175  H1303   1.084   .     S
C1176  C1194   1.402   .     A
C1176  H1251   1.083   .     S
C1177  C1195   1.402   .     A
C1177  H1252   1.083   .     S
C1177  C1193   1.387   .     A
C1178  H1253   1.083   .     S
C1178  C1194   1.402   .     A
C1178  C1192   1.387   .     A
C1179  H1254   1.083   .     S
C1179  C1191   1.387   .     A
C1180  C1196   1.402   .     A
C1180  C1190   1.387   .     A
C1180  H1255   1.083   .     S
C1181  H1256   1.083   .     S
C1181  C1189   1.387   .     A
C1182  H1257   1.083   .     S
C1182  C1188   1.387   .     A
C1183  H1258   1.083   .     S
C1183  C1187   1.387   .     A
C1184  C1185   1.387   .     A
C1184  H1260   1.083   .     S
C1185  H1261   1.083   .     S
C1186  H1314   1.084   .     S
C1186  C780    1.397   1_655 S
C1187  H1262   1.083   .     S
C1188  H1263   1.083   .     S
C1189  H1264   1.083   .     S
C1190  H1265   1.083   .     S
C1191  H1266   1.083   .     S
C1192  H1267   1.083   .     S
C1193  H1268   1.083   .     S
O1325  Zn1380  1.944   .     S
O1325  Zn1377  1.944   .     S
O1325  Zn1388  1.944   .     S
O1326  C438    1.279   1_565 A
O1326  Zn1379  1.934   .     S
O1327  Zn1382  1.934   .     S
O1327  C787    1.279   1_655 S
O1328  Zn1381  1.934   .     S
O1329  Zn1391  1.934   .     S
O1330  Zn1390  1.934   .     S
O1331  Zn1385  1.934   .     S
O1332  Zn1377  1.934   .     S
O1333  Zn1387  1.934   .     S
O1334  Zn1386  1.934   .     S
O1335  Zn1389  1.934   .     S
O1336  Zn1383  1.944   .     S
O1336  Zn1385  1.944   .     S
O1336  Zn1389  1.944   .     S
O1337  Zn1388  1.934   .     S
O1338  Zn1380  1.938   .     S
O1339  Zn1379  1.938   .     S
O1340  Zn1382  1.938   .     S
O1341  Zn1381  1.938   .     S
O1342  Zn1384  1.938   .     S
O1343  Zn1383  1.938   .     S
O1344  Zn1378  1.938   .     S
O1345  Zn1392  1.938   .     S
O1346  Zn1379  1.938   .     S
O1347  Zn1386  1.944   .     S
O1347  Zn1390  1.944   .     S
O1347  Zn1378  1.944   .     S
O1348  Zn1380  1.938   .     S
O1349  Zn1392  1.938   .     S
O1350  Zn1378  1.938   .     S
O1351  Zn1383  1.938   .     S
O1352  Zn1384  1.938   .     S
O1353  Zn1381  1.938   .     S
O1354  Zn1382  1.938   .     S
O1355  Zn1039  1.938   1_655 S
O1356  Zn1386  1.938   .     S
O1357  Zn693   1.938   1_565 S
O1358  Zn1381  1.944   .     S
O1358  Zn1391  1.944   .     S
O1358  Zn1387  1.944   .     S
O1359  Zn1388  1.938   .     S
O1360  Zn1391  1.938   .     S
O1361  Zn1042  1.938   1_655 S
O1362  Zn1385  1.938   .     S
O1363  Zn681   1.938   1_565 S
O1364  Zn1038  1.938   1_655 S
O1365  Zn1387  1.938   .     S
O1366  Zn1377  1.938   .     S
O1367  Zn689   1.938   1_565 S
O1368  Zn1390  1.938   .     S
O1369  Zn1384  1.934   .     S
O1369  C437    1.279   1_565 S
O1370  Zn1043  1.938   1_655 S
O1371  Zn692   1.938   1_565 S
O1372  Zn1389  1.938   .     S
O1373  Zn1383  1.934   .     S
O1374  Zn1378  1.934   .     S
O1375  Zn1392  1.934   .     S
O1375  C788    1.279   1_655 A
O1376  Zn1380  1.934   .     S
Zn1379 O640    1.944   1_565 S
Zn1382 O999    1.944   1_655 S
Zn1384 O629    1.944   1_565 S
Zn1392 O1010   1.944   1_655 S
