data_str_m2_o2_o10_pcu_sym.180
_audit_creation_date              2020-01-03
_audit_creation_method            'Materials Studio'
_symmetry_space_group_name_H-M    'P1'
_symmetry_Int_Tables_number       1
_symmetry_cell_setting            triclinic
loop_
_symmetry_equiv_pos_as_xyz
  x,y,z
_cell_length_a                    26.2648
_cell_length_b                    30.3370
_cell_length_c                    27.9031
_cell_angle_alpha                 90.2911
_cell_angle_beta                  97.6551
_cell_angle_gamma                 92.9188
loop_
_atom_site_label
_atom_site_type_symbol
_atom_site_fract_x
_atom_site_fract_y
_atom_site_fract_z
_atom_site_U_iso_or_equiv
_atom_site_adp_type
_atom_site_occupancy
C1     C     0.17104   0.16506   0.25044   0.00000  Uiso   1.00
C2     C     0.16229   0.33494   0.24956   0.00000  Uiso   1.00
C3     C     0.20899   0.27055   0.05969   0.00000  Uiso   1.00
C4     C     0.12433   0.22947   0.44031   0.00000  Uiso   1.00
C5     C     0.20457   0.27385   0.10960   0.00000  Uiso   1.00
C6     C     0.12875   0.22617   0.39041   0.00000  Uiso   1.00
C7     C     0.13396   0.22148   0.09944   0.00000  Uiso   1.00
C8     C     0.19939   0.27851   0.40056   0.00000  Uiso   1.00
C9     C     0.14086   0.21569   0.05049   0.00000  Uiso   1.00
C10    C     0.19249   0.28431   0.44950   0.00000  Uiso   1.00
C11    C     0.17000   0.24746   0.02772   0.00000  Uiso   1.00
C12    C     0.16333   0.25255   0.47228   0.00000  Uiso   1.00
C13    C     0.06813   0.24836   0.23800   0.00000  Uiso   1.00
C14    C     0.26520   0.25164   0.26200   0.00000  Uiso   1.00
C15    C     0.01323   0.24040   0.23368   0.00000  Uiso   1.00
C16    C     0.32010   0.25960   0.26631   0.00000  Uiso   1.00
C17    C     0.19278   0.04725   0.29478   0.00000  Uiso   1.00
C18    C     0.14054   0.45274   0.20520   0.00000  Uiso   1.00
C19    C     0.19113   0.09376   0.29597   0.00000  Uiso   1.00
C20    C     0.14215   0.40622   0.20403   0.00000  Uiso   1.00
C21    C     0.18041   0.11681   0.25136   0.00000  Uiso   1.00
C22    C     0.15292   0.38319   0.24864   0.00000  Uiso   1.00
C23    C     0.18344   0.09291   0.20779   0.00000  Uiso   1.00
C24    C     0.14994   0.40710   0.29221   0.00000  Uiso   1.00
C25    C     0.18138   0.04695   0.20865   0.00000  Uiso   1.00
C26    C     0.15199   0.45306   0.29133   0.00000  Uiso   1.00
C27    C     0.17567   0.02403   0.25105   0.00000  Uiso   1.00
C28    C     0.15767   0.47597   0.24892   0.00000  Uiso   1.00
Cu29   Cu    0.16667   0.25000   0.29822   0.00000  Uiso   1.00
Cu30   Cu    0.16667   0.25001   0.20179   0.00000  Uiso   1.00
H31    H     0.18476   0.02909   0.17579   0.00000  Uiso   1.00
H32    H     0.14863   0.47092   0.32420   0.00000  Uiso   1.00
N33    N     0.16667   0.25001   0.12935   0.00000  Uiso   1.00
N34    N     0.16667   0.24999   0.37066   0.00000  Uiso   1.00
O35    O     0.16667   0.18573   0.29072   0.00000  Uiso   1.00
O36    O     0.16666   0.31428   0.20929   0.00000  Uiso   1.00
O37    O     0.16667   0.18573   0.20928   0.00000  Uiso   1.00
O38    O     0.16666   0.31427   0.29072   0.00000  Uiso   1.00
O39    O     0.09161   0.25000   0.28132   0.00000  Uiso   1.00
O40    O     0.24172   0.25001   0.21868   0.00000  Uiso   1.00
O41    O     0.09161   0.25000   0.19989   0.00000  Uiso   1.00
O42    O     0.24172   0.25000   0.30012   0.00000  Uiso   1.00
C43    C     0.32326   0.20419   0.19848   0.00000  Uiso   1.00
H44    H     0.29705   0.18131   0.21583   0.00000  Uiso   1.00
H45    H     0.01998   0.18364   0.18710   0.00000  Uiso   1.00
H46    H     0.30225   0.21875   0.16567   0.00000  Uiso   1.00
C47    C     0.01007   0.29581   0.30152   0.00000  Uiso   1.00
H48    H     0.03630   0.31869   0.28419   0.00000  Uiso   1.00
H49    H     0.03107   0.28124   0.33434   0.00000  Uiso   1.00
H50    H     0.31335   0.31637   0.31289   0.00000  Uiso   1.00
Cl51   Cl    0.22970   0.02032   0.34297   0.00000  Uiso   1.00
Cl52   Cl    0.10370   0.47969   0.15698   0.00000  Uiso   1.00
C53    C     0.20322   0.11807   0.34418   0.00000  Uiso   1.00
H54    H     0.23414   0.14413   0.34232   0.00000  Uiso   1.00
H55    H     0.16804   0.13251   0.35387   0.00000  Uiso   1.00
H56    H     0.21641   0.09691   0.37501   0.00000  Uiso   1.00
C57    C     0.12994   0.38188   0.15583   0.00000  Uiso   1.00
H58    H     0.09905   0.35581   0.15779   0.00000  Uiso   1.00
H59    H     0.11663   0.40301   0.12501   0.00000  Uiso   1.00
H60    H     0.16509   0.36746   0.14607   0.00000  Uiso   1.00
C61    C     0.18989   0.11433   0.16001   0.00000  Uiso   1.00
H62    H     0.22166   0.14018   0.16486   0.00000  Uiso   1.00
H63    H     0.20001   0.09027   0.13310   0.00000  Uiso   1.00
H64    H     0.15345   0.12826   0.14414   0.00000  Uiso   1.00
C65    C     0.14357   0.38570   0.34002   0.00000  Uiso   1.00
H66    H     0.13355   0.40977   0.36697   0.00000  Uiso   1.00
H67    H     0.18003   0.37174   0.35581   0.00000  Uiso   1.00
H68    H     0.11177   0.35987   0.33522   0.00000  Uiso   1.00
Cl69   Cl    0.27082   0.28212   0.04247   0.00000  Uiso   1.00
Cl70   Cl    0.06251   0.21791   0.45755   0.00000  Uiso   1.00
Cl71   Cl    0.24848   0.31050   0.14523   0.00000  Uiso   1.00
Cl72   Cl    0.08482   0.18953   0.35478   0.00000  Uiso   1.00
C73    C     0.08665   0.19928   0.11559   0.00000  Uiso   1.00
H74    H     0.09532   0.18083   0.14922   0.00000  Uiso   1.00
H75    H     0.05862   0.22465   0.11984   0.00000  Uiso   1.00
H76    H     0.06640   0.17554   0.08830   0.00000  Uiso   1.00
C77    C     0.24672   0.30067   0.38442   0.00000  Uiso   1.00
H78    H     0.23807   0.31912   0.35078   0.00000  Uiso   1.00
H79    H     0.26699   0.32439   0.41172   0.00000  Uiso   1.00
H80    H     0.27472   0.27528   0.38017   0.00000  Uiso   1.00
Cl81   Cl    0.13210   0.16129   0.02617   0.00000  Uiso   1.00
Cl82   Cl    0.20126   0.33871   0.47381   0.00000  Uiso   1.00
C83    C     0.50438   0.16506   0.25044   0.00000  Uiso   1.00
C84    C     0.49562   0.33494   0.24956   0.00000  Uiso   1.00
C85    C     0.54233   0.27055   0.05969   0.00000  Uiso   1.00
C86    C     0.45767   0.22947   0.44031   0.00000  Uiso   1.00
C87    C     0.53790   0.27385   0.10960   0.00000  Uiso   1.00
C88    C     0.46208   0.22617   0.39041   0.00000  Uiso   1.00
C89    C     0.46730   0.22148   0.09944   0.00000  Uiso   1.00
C90    C     0.53272   0.27851   0.40056   0.00000  Uiso   1.00
C91    C     0.47419   0.21569   0.05049   0.00000  Uiso   1.00
C92    C     0.52582   0.28431   0.44950   0.00000  Uiso   1.00
C93    C     0.50334   0.24746   0.02772   0.00000  Uiso   1.00
C94    C     0.49667   0.25255   0.47228   0.00000  Uiso   1.00
C95    C     0.40146   0.24836   0.23800   0.00000  Uiso   1.00
C96    C     0.59854   0.25164   0.26200   0.00000  Uiso   1.00
C97    C     0.34657   0.24040   0.23368   0.00000  Uiso   1.00
C98    C     0.65343   0.25960   0.26631   0.00000  Uiso   1.00
C99    C     0.52612   0.04725   0.29478   0.00000  Uiso   1.00
C100   C     0.47388   0.45274   0.20520   0.00000  Uiso   1.00
C101   C     0.52446   0.09376   0.29597   0.00000  Uiso   1.00
C102   C     0.47548   0.40622   0.20403   0.00000  Uiso   1.00
C103   C     0.51374   0.11681   0.25136   0.00000  Uiso   1.00
C104   C     0.48625   0.38319   0.24864   0.00000  Uiso   1.00
C105   C     0.51678   0.09291   0.20779   0.00000  Uiso   1.00
C106   C     0.48327   0.40710   0.29221   0.00000  Uiso   1.00
C107   C     0.51471   0.04695   0.20865   0.00000  Uiso   1.00
C108   C     0.48532   0.45306   0.29133   0.00000  Uiso   1.00
C109   C     0.50901   0.02403   0.25105   0.00000  Uiso   1.00
C110   C     0.49101   0.47597   0.24892   0.00000  Uiso   1.00
Cu111  Cu    0.50000   0.25000   0.29822   0.00000  Uiso   1.00
Cu112  Cu    0.50000   0.25001   0.20179   0.00000  Uiso   1.00
H113   H     0.51809   0.02909   0.17579   0.00000  Uiso   1.00
H114   H     0.48197   0.47092   0.32420   0.00000  Uiso   1.00
N115   N     0.50000   0.25001   0.12935   0.00000  Uiso   1.00
N116   N     0.50000   0.24999   0.37066   0.00000  Uiso   1.00
O117   O     0.50000   0.18573   0.29072   0.00000  Uiso   1.00
O118   O     0.50000   0.31428   0.20929   0.00000  Uiso   1.00
O119   O     0.50000   0.18573   0.20928   0.00000  Uiso   1.00
O120   O     0.50000   0.31427   0.29072   0.00000  Uiso   1.00
O121   O     0.42495   0.25000   0.28132   0.00000  Uiso   1.00
O122   O     0.57505   0.25001   0.21868   0.00000  Uiso   1.00
O123   O     0.42495   0.25000   0.19989   0.00000  Uiso   1.00
O124   O     0.57505   0.25000   0.30012   0.00000  Uiso   1.00
C125   C     0.65660   0.20419   0.19848   0.00000  Uiso   1.00
H126   H     0.63038   0.18131   0.21583   0.00000  Uiso   1.00
H127   H     0.35332   0.18364   0.18710   0.00000  Uiso   1.00
H128   H     0.63559   0.21875   0.16567   0.00000  Uiso   1.00
C129   C     0.34340   0.29581   0.30152   0.00000  Uiso   1.00
H130   H     0.36964   0.31869   0.28419   0.00000  Uiso   1.00
H131   H     0.36440   0.28124   0.33434   0.00000  Uiso   1.00
H132   H     0.64669   0.31637   0.31289   0.00000  Uiso   1.00
Cl133  Cl    0.56303   0.02032   0.34297   0.00000  Uiso   1.00
Cl134  Cl    0.43704   0.47969   0.15698   0.00000  Uiso   1.00
C135   C     0.53655   0.11807   0.34418   0.00000  Uiso   1.00
H136   H     0.56748   0.14413   0.34232   0.00000  Uiso   1.00
H137   H     0.50137   0.13251   0.35387   0.00000  Uiso   1.00
H138   H     0.54975   0.09691   0.37501   0.00000  Uiso   1.00
C139   C     0.46328   0.38188   0.15583   0.00000  Uiso   1.00
H140   H     0.43239   0.35581   0.15779   0.00000  Uiso   1.00
H141   H     0.44996   0.40301   0.12501   0.00000  Uiso   1.00
H142   H     0.49843   0.36746   0.14607   0.00000  Uiso   1.00
C143   C     0.52323   0.11433   0.16001   0.00000  Uiso   1.00
H144   H     0.55500   0.14018   0.16486   0.00000  Uiso   1.00
H145   H     0.53334   0.09027   0.13310   0.00000  Uiso   1.00
H146   H     0.48678   0.12826   0.14414   0.00000  Uiso   1.00
C147   C     0.47690   0.38570   0.34002   0.00000  Uiso   1.00
H148   H     0.46689   0.40977   0.36697   0.00000  Uiso   1.00
H149   H     0.51336   0.37174   0.35581   0.00000  Uiso   1.00
H150   H     0.44510   0.35987   0.33522   0.00000  Uiso   1.00
Cl151  Cl    0.60416   0.28212   0.04247   0.00000  Uiso   1.00
Cl152  Cl    0.39584   0.21791   0.45755   0.00000  Uiso   1.00
Cl153  Cl    0.58181   0.31050   0.14523   0.00000  Uiso   1.00
Cl154  Cl    0.41816   0.18953   0.35478   0.00000  Uiso   1.00
C155   C     0.41999   0.19928   0.11559   0.00000  Uiso   1.00
H156   H     0.42865   0.18083   0.14922   0.00000  Uiso   1.00
H157   H     0.39195   0.22465   0.11984   0.00000  Uiso   1.00
H158   H     0.39974   0.17554   0.08830   0.00000  Uiso   1.00
C159   C     0.58005   0.30067   0.38442   0.00000  Uiso   1.00
H160   H     0.57141   0.31912   0.35078   0.00000  Uiso   1.00
H161   H     0.60032   0.32439   0.41172   0.00000  Uiso   1.00
H162   H     0.60805   0.27528   0.38017   0.00000  Uiso   1.00
Cl163  Cl    0.46543   0.16129   0.02617   0.00000  Uiso   1.00
Cl164  Cl    0.53459   0.33871   0.47381   0.00000  Uiso   1.00
C165   C     0.83771   0.16506   0.25044   0.00000  Uiso   1.00
C166   C     0.82895   0.33494   0.24956   0.00000  Uiso   1.00
C167   C     0.87566   0.27055   0.05969   0.00000  Uiso   1.00
C168   C     0.79100   0.22947   0.44031   0.00000  Uiso   1.00
C169   C     0.87124   0.27385   0.10960   0.00000  Uiso   1.00
C170   C     0.79542   0.22617   0.39041   0.00000  Uiso   1.00
C171   C     0.80063   0.22148   0.09944   0.00000  Uiso   1.00
C172   C     0.86605   0.27851   0.40056   0.00000  Uiso   1.00
C173   C     0.80753   0.21569   0.05049   0.00000  Uiso   1.00
C174   C     0.85916   0.28431   0.44950   0.00000  Uiso   1.00
C175   C     0.83667   0.24746   0.02772   0.00000  Uiso   1.00
C176   C     0.83000   0.25255   0.47228   0.00000  Uiso   1.00
C177   C     0.73480   0.24836   0.23800   0.00000  Uiso   1.00
C178   C     0.93187   0.25164   0.26200   0.00000  Uiso   1.00
C179   C     0.67990   0.24040   0.23368   0.00000  Uiso   1.00
C180   C     0.98677   0.25960   0.26631   0.00000  Uiso   1.00
C181   C     0.85945   0.04725   0.29478   0.00000  Uiso   1.00
C182   C     0.80721   0.45274   0.20520   0.00000  Uiso   1.00
C183   C     0.85780   0.09376   0.29597   0.00000  Uiso   1.00
C184   C     0.80881   0.40622   0.20403   0.00000  Uiso   1.00
C185   C     0.84708   0.11681   0.25136   0.00000  Uiso   1.00
C186   C     0.81958   0.38319   0.24864   0.00000  Uiso   1.00
C187   C     0.85011   0.09291   0.20779   0.00000  Uiso   1.00
C188   C     0.81660   0.40710   0.29221   0.00000  Uiso   1.00
C189   C     0.84805   0.04695   0.20865   0.00000  Uiso   1.00
C190   C     0.81866   0.45306   0.29133   0.00000  Uiso   1.00
C191   C     0.84234   0.02403   0.25105   0.00000  Uiso   1.00
C192   C     0.82434   0.47597   0.24892   0.00000  Uiso   1.00
Cu193  Cu    0.83333   0.25000   0.29822   0.00000  Uiso   1.00
Cu194  Cu    0.83333   0.25001   0.20179   0.00000  Uiso   1.00
H195   H     0.85143   0.02909   0.17579   0.00000  Uiso   1.00
H196   H     0.81530   0.47092   0.32420   0.00000  Uiso   1.00
N197   N     0.83333   0.25001   0.12935   0.00000  Uiso   1.00
N198   N     0.83333   0.24999   0.37066   0.00000  Uiso   1.00
O199   O     0.83334   0.18573   0.29072   0.00000  Uiso   1.00
O200   O     0.83333   0.31428   0.20929   0.00000  Uiso   1.00
O201   O     0.83334   0.18573   0.20928   0.00000  Uiso   1.00
O202   O     0.83333   0.31427   0.29072   0.00000  Uiso   1.00
O203   O     0.75828   0.25000   0.28132   0.00000  Uiso   1.00
O204   O     0.90839   0.25001   0.21868   0.00000  Uiso   1.00
O205   O     0.75828   0.25000   0.19989   0.00000  Uiso   1.00
O206   O     0.90839   0.25000   0.30012   0.00000  Uiso   1.00
C207   C     0.98993   0.20419   0.19848   0.00000  Uiso   1.00
H208   H     0.96371   0.18131   0.21583   0.00000  Uiso   1.00
H209   H     0.68665   0.18364   0.18710   0.00000  Uiso   1.00
H210   H     0.96892   0.21875   0.16567   0.00000  Uiso   1.00
C211   C     0.67674   0.29581   0.30152   0.00000  Uiso   1.00
H212   H     0.70297   0.31869   0.28419   0.00000  Uiso   1.00
H213   H     0.69774   0.28124   0.33434   0.00000  Uiso   1.00
H214   H     0.98002   0.31637   0.31289   0.00000  Uiso   1.00
Cl215  Cl    0.89637   0.02032   0.34297   0.00000  Uiso   1.00
Cl216  Cl    0.77037   0.47969   0.15698   0.00000  Uiso   1.00
C217   C     0.86988   0.11807   0.34418   0.00000  Uiso   1.00
H218   H     0.90081   0.14413   0.34232   0.00000  Uiso   1.00
H219   H     0.83471   0.13251   0.35387   0.00000  Uiso   1.00
H220   H     0.88308   0.09691   0.37501   0.00000  Uiso   1.00
C221   C     0.79661   0.38188   0.15583   0.00000  Uiso   1.00
H222   H     0.76572   0.35581   0.15779   0.00000  Uiso   1.00
H223   H     0.78329   0.40301   0.12501   0.00000  Uiso   1.00
H224   H     0.83176   0.36746   0.14607   0.00000  Uiso   1.00
C225   C     0.85656   0.11433   0.16001   0.00000  Uiso   1.00
H226   H     0.88833   0.14018   0.16486   0.00000  Uiso   1.00
H227   H     0.86667   0.09027   0.13310   0.00000  Uiso   1.00
H228   H     0.82012   0.12826   0.14414   0.00000  Uiso   1.00
C229   C     0.81023   0.38570   0.34002   0.00000  Uiso   1.00
H230   H     0.80022   0.40977   0.36697   0.00000  Uiso   1.00
H231   H     0.84670   0.37174   0.35581   0.00000  Uiso   1.00
H232   H     0.77843   0.35987   0.33522   0.00000  Uiso   1.00
Cl233  Cl    0.93749   0.28212   0.04247   0.00000  Uiso   1.00
Cl234  Cl    0.72918   0.21791   0.45755   0.00000  Uiso   1.00
Cl235  Cl    0.91514   0.31050   0.14523   0.00000  Uiso   1.00
Cl236  Cl    0.75149   0.18953   0.35478   0.00000  Uiso   1.00
C237   C     0.75332   0.19928   0.11559   0.00000  Uiso   1.00
H238   H     0.76199   0.18083   0.14922   0.00000  Uiso   1.00
H239   H     0.72529   0.22465   0.11984   0.00000  Uiso   1.00
H240   H     0.73307   0.17554   0.08830   0.00000  Uiso   1.00
C241   C     0.91339   0.30067   0.38442   0.00000  Uiso   1.00
H242   H     0.90474   0.31912   0.35078   0.00000  Uiso   1.00
H243   H     0.93366   0.32439   0.41172   0.00000  Uiso   1.00
H244   H     0.94139   0.27528   0.38017   0.00000  Uiso   1.00
Cl245  Cl    0.79877   0.16129   0.02617   0.00000  Uiso   1.00
Cl246  Cl    0.86793   0.33871   0.47381   0.00000  Uiso   1.00
C247   C     0.17104   0.66506   0.25044   0.00000  Uiso   1.00
C248   C     0.16229   0.83494   0.24956   0.00000  Uiso   1.00
C249   C     0.20899   0.77055   0.05969   0.00000  Uiso   1.00
C250   C     0.12433   0.72947   0.44031   0.00000  Uiso   1.00
C251   C     0.20457   0.77385   0.10960   0.00000  Uiso   1.00
C252   C     0.12875   0.72617   0.39041   0.00000  Uiso   1.00
C253   C     0.13396   0.72148   0.09944   0.00000  Uiso   1.00
C254   C     0.19939   0.77851   0.40056   0.00000  Uiso   1.00
C255   C     0.14086   0.71569   0.05049   0.00000  Uiso   1.00
C256   C     0.19249   0.78431   0.44950   0.00000  Uiso   1.00
C257   C     0.17000   0.74746   0.02772   0.00000  Uiso   1.00
C258   C     0.16333   0.75255   0.47228   0.00000  Uiso   1.00
C259   C     0.06813   0.74836   0.23800   0.00000  Uiso   1.00
C260   C     0.26520   0.75164   0.26200   0.00000  Uiso   1.00
C261   C     0.01323   0.74040   0.23368   0.00000  Uiso   1.00
C262   C     0.32010   0.75960   0.26631   0.00000  Uiso   1.00
C263   C     0.19278   0.54725   0.29478   0.00000  Uiso   1.00
C264   C     0.14054   0.95274   0.20520   0.00000  Uiso   1.00
C265   C     0.19113   0.59376   0.29597   0.00000  Uiso   1.00
C266   C     0.14215   0.90622   0.20403   0.00000  Uiso   1.00
C267   C     0.18041   0.61681   0.25136   0.00000  Uiso   1.00
C268   C     0.15292   0.88319   0.24864   0.00000  Uiso   1.00
C269   C     0.18344   0.59291   0.20779   0.00000  Uiso   1.00
C270   C     0.14994   0.90710   0.29221   0.00000  Uiso   1.00
C271   C     0.18138   0.54695   0.20865   0.00000  Uiso   1.00
C272   C     0.15199   0.95306   0.29133   0.00000  Uiso   1.00
C273   C     0.17567   0.52403   0.25105   0.00000  Uiso   1.00
C274   C     0.15767   0.97597   0.24892   0.00000  Uiso   1.00
Cu275  Cu    0.16667   0.75000   0.29822   0.00000  Uiso   1.00
Cu276  Cu    0.16667   0.75001   0.20179   0.00000  Uiso   1.00
H277   H     0.18476   0.52909   0.17579   0.00000  Uiso   1.00
H278   H     0.14863   0.97092   0.32420   0.00000  Uiso   1.00
N279   N     0.16667   0.75001   0.12935   0.00000  Uiso   1.00
N280   N     0.16667   0.74999   0.37066   0.00000  Uiso   1.00
O281   O     0.16667   0.68573   0.29072   0.00000  Uiso   1.00
O282   O     0.16666   0.81428   0.20929   0.00000  Uiso   1.00
O283   O     0.16667   0.68573   0.20928   0.00000  Uiso   1.00
O284   O     0.16666   0.81427   0.29072   0.00000  Uiso   1.00
O285   O     0.09161   0.75000   0.28132   0.00000  Uiso   1.00
O286   O     0.24172   0.75001   0.21868   0.00000  Uiso   1.00
O287   O     0.09161   0.75000   0.19989   0.00000  Uiso   1.00
O288   O     0.24172   0.75000   0.30012   0.00000  Uiso   1.00
C289   C     0.32326   0.70419   0.19848   0.00000  Uiso   1.00
H290   H     0.29705   0.68131   0.21583   0.00000  Uiso   1.00
H291   H     0.01998   0.68364   0.18710   0.00000  Uiso   1.00
H292   H     0.30225   0.71875   0.16567   0.00000  Uiso   1.00
C293   C     0.01007   0.79581   0.30152   0.00000  Uiso   1.00
H294   H     0.03630   0.81869   0.28419   0.00000  Uiso   1.00
H295   H     0.03107   0.78124   0.33434   0.00000  Uiso   1.00
H296   H     0.31335   0.81637   0.31289   0.00000  Uiso   1.00
Cl297  Cl    0.22970   0.52032   0.34297   0.00000  Uiso   1.00
Cl298  Cl    0.10370   0.97969   0.15698   0.00000  Uiso   1.00
C299   C     0.20322   0.61807   0.34418   0.00000  Uiso   1.00
H300   H     0.23414   0.64413   0.34232   0.00000  Uiso   1.00
H301   H     0.16804   0.63251   0.35387   0.00000  Uiso   1.00
H302   H     0.21641   0.59691   0.37501   0.00000  Uiso   1.00
C303   C     0.12994   0.88188   0.15583   0.00000  Uiso   1.00
H304   H     0.09905   0.85581   0.15779   0.00000  Uiso   1.00
H305   H     0.11663   0.90301   0.12501   0.00000  Uiso   1.00
H306   H     0.16509   0.86746   0.14607   0.00000  Uiso   1.00
C307   C     0.18989   0.61433   0.16001   0.00000  Uiso   1.00
H308   H     0.22166   0.64018   0.16486   0.00000  Uiso   1.00
H309   H     0.20001   0.59027   0.13310   0.00000  Uiso   1.00
H310   H     0.15345   0.62826   0.14414   0.00000  Uiso   1.00
C311   C     0.14357   0.88570   0.34002   0.00000  Uiso   1.00
H312   H     0.13355   0.90977   0.36697   0.00000  Uiso   1.00
H313   H     0.18003   0.87174   0.35581   0.00000  Uiso   1.00
H314   H     0.11177   0.85987   0.33522   0.00000  Uiso   1.00
Cl315  Cl    0.27082   0.78212   0.04247   0.00000  Uiso   1.00
Cl316  Cl    0.06251   0.71791   0.45755   0.00000  Uiso   1.00
Cl317  Cl    0.24848   0.81050   0.14523   0.00000  Uiso   1.00
Cl318  Cl    0.08482   0.68953   0.35478   0.00000  Uiso   1.00
C319   C     0.08665   0.69928   0.11559   0.00000  Uiso   1.00
H320   H     0.09532   0.68083   0.14922   0.00000  Uiso   1.00
H321   H     0.05862   0.72465   0.11984   0.00000  Uiso   1.00
H322   H     0.06640   0.67554   0.08830   0.00000  Uiso   1.00
C323   C     0.24672   0.80067   0.38442   0.00000  Uiso   1.00
H324   H     0.23807   0.81912   0.35078   0.00000  Uiso   1.00
H325   H     0.26699   0.82439   0.41172   0.00000  Uiso   1.00
H326   H     0.27472   0.77528   0.38017   0.00000  Uiso   1.00
Cl327  Cl    0.13210   0.66129   0.02617   0.00000  Uiso   1.00
Cl328  Cl    0.20126   0.83871   0.47381   0.00000  Uiso   1.00
C329   C     0.50438   0.66506   0.25044   0.00000  Uiso   1.00
C330   C     0.49562   0.83494   0.24956   0.00000  Uiso   1.00
C331   C     0.54233   0.77055   0.05969   0.00000  Uiso   1.00
C332   C     0.45767   0.72947   0.44031   0.00000  Uiso   1.00
C333   C     0.53790   0.77385   0.10960   0.00000  Uiso   1.00
C334   C     0.46208   0.72617   0.39041   0.00000  Uiso   1.00
C335   C     0.46730   0.72148   0.09944   0.00000  Uiso   1.00
C336   C     0.53272   0.77851   0.40056   0.00000  Uiso   1.00
C337   C     0.47419   0.71569   0.05049   0.00000  Uiso   1.00
C338   C     0.52582   0.78431   0.44950   0.00000  Uiso   1.00
C339   C     0.50334   0.74746   0.02772   0.00000  Uiso   1.00
C340   C     0.49667   0.75255   0.47228   0.00000  Uiso   1.00
C341   C     0.40146   0.74836   0.23800   0.00000  Uiso   1.00
C342   C     0.59854   0.75164   0.26200   0.00000  Uiso   1.00
C343   C     0.34657   0.74040   0.23368   0.00000  Uiso   1.00
C344   C     0.65343   0.75960   0.26631   0.00000  Uiso   1.00
C345   C     0.52612   0.54725   0.29478   0.00000  Uiso   1.00
C346   C     0.47388   0.95274   0.20520   0.00000  Uiso   1.00
C347   C     0.52446   0.59376   0.29597   0.00000  Uiso   1.00
C348   C     0.47548   0.90622   0.20403   0.00000  Uiso   1.00
C349   C     0.51374   0.61681   0.25136   0.00000  Uiso   1.00
C350   C     0.48625   0.88319   0.24864   0.00000  Uiso   1.00
C351   C     0.51678   0.59291   0.20779   0.00000  Uiso   1.00
C352   C     0.48327   0.90710   0.29221   0.00000  Uiso   1.00
C353   C     0.51471   0.54695   0.20865   0.00000  Uiso   1.00
C354   C     0.48532   0.95306   0.29133   0.00000  Uiso   1.00
C355   C     0.50901   0.52403   0.25105   0.00000  Uiso   1.00
C356   C     0.49101   0.97597   0.24892   0.00000  Uiso   1.00
Cu357  Cu    0.50000   0.75000   0.29822   0.00000  Uiso   1.00
Cu358  Cu    0.50000   0.75001   0.20179   0.00000  Uiso   1.00
H359   H     0.51809   0.52909   0.17579   0.00000  Uiso   1.00
H360   H     0.48197   0.97092   0.32420   0.00000  Uiso   1.00
N361   N     0.50000   0.75001   0.12935   0.00000  Uiso   1.00
N362   N     0.50000   0.74999   0.37066   0.00000  Uiso   1.00
O363   O     0.50000   0.68573   0.29072   0.00000  Uiso   1.00
O364   O     0.50000   0.81428   0.20929   0.00000  Uiso   1.00
O365   O     0.50000   0.68573   0.20928   0.00000  Uiso   1.00
O366   O     0.50000   0.81427   0.29072   0.00000  Uiso   1.00
O367   O     0.42495   0.75000   0.28132   0.00000  Uiso   1.00
O368   O     0.57505   0.75001   0.21868   0.00000  Uiso   1.00
O369   O     0.42495   0.75000   0.19989   0.00000  Uiso   1.00
O370   O     0.57505   0.75000   0.30012   0.00000  Uiso   1.00
C371   C     0.65660   0.70419   0.19848   0.00000  Uiso   1.00
H372   H     0.63038   0.68131   0.21583   0.00000  Uiso   1.00
H373   H     0.35332   0.68364   0.18710   0.00000  Uiso   1.00
H374   H     0.63559   0.71875   0.16567   0.00000  Uiso   1.00
C375   C     0.34340   0.79581   0.30152   0.00000  Uiso   1.00
H376   H     0.36964   0.81869   0.28419   0.00000  Uiso   1.00
H377   H     0.36440   0.78124   0.33434   0.00000  Uiso   1.00
H378   H     0.64669   0.81637   0.31289   0.00000  Uiso   1.00
Cl379  Cl    0.56303   0.52032   0.34297   0.00000  Uiso   1.00
Cl380  Cl    0.43704   0.97969   0.15698   0.00000  Uiso   1.00
C381   C     0.53655   0.61807   0.34418   0.00000  Uiso   1.00
H382   H     0.56748   0.64413   0.34232   0.00000  Uiso   1.00
H383   H     0.50137   0.63251   0.35387   0.00000  Uiso   1.00
H384   H     0.54975   0.59691   0.37501   0.00000  Uiso   1.00
C385   C     0.46328   0.88188   0.15583   0.00000  Uiso   1.00
H386   H     0.43239   0.85581   0.15779   0.00000  Uiso   1.00
H387   H     0.44996   0.90301   0.12501   0.00000  Uiso   1.00
H388   H     0.49843   0.86746   0.14607   0.00000  Uiso   1.00
C389   C     0.52323   0.61433   0.16001   0.00000  Uiso   1.00
H390   H     0.55500   0.64018   0.16486   0.00000  Uiso   1.00
H391   H     0.53334   0.59027   0.13310   0.00000  Uiso   1.00
H392   H     0.48678   0.62826   0.14414   0.00000  Uiso   1.00
C393   C     0.47690   0.88570   0.34002   0.00000  Uiso   1.00
H394   H     0.46689   0.90977   0.36697   0.00000  Uiso   1.00
H395   H     0.51336   0.87174   0.35581   0.00000  Uiso   1.00
H396   H     0.44510   0.85987   0.33522   0.00000  Uiso   1.00
Cl397  Cl    0.60416   0.78212   0.04247   0.00000  Uiso   1.00
Cl398  Cl    0.39584   0.71791   0.45755   0.00000  Uiso   1.00
Cl399  Cl    0.58181   0.81050   0.14523   0.00000  Uiso   1.00
Cl400  Cl    0.41816   0.68953   0.35478   0.00000  Uiso   1.00
C401   C     0.41999   0.69928   0.11559   0.00000  Uiso   1.00
H402   H     0.42865   0.68083   0.14922   0.00000  Uiso   1.00
H403   H     0.39195   0.72465   0.11984   0.00000  Uiso   1.00
H404   H     0.39974   0.67554   0.08830   0.00000  Uiso   1.00
C405   C     0.58005   0.80067   0.38442   0.00000  Uiso   1.00
H406   H     0.57141   0.81912   0.35078   0.00000  Uiso   1.00
H407   H     0.60032   0.82439   0.41172   0.00000  Uiso   1.00
H408   H     0.60805   0.77528   0.38017   0.00000  Uiso   1.00
Cl409  Cl    0.46543   0.66129   0.02617   0.00000  Uiso   1.00
Cl410  Cl    0.53459   0.83871   0.47381   0.00000  Uiso   1.00
C411   C     0.83771   0.66506   0.25044   0.00000  Uiso   1.00
C412   C     0.82895   0.83494   0.24956   0.00000  Uiso   1.00
C413   C     0.87566   0.77055   0.05969   0.00000  Uiso   1.00
C414   C     0.79100   0.72947   0.44031   0.00000  Uiso   1.00
C415   C     0.87124   0.77385   0.10960   0.00000  Uiso   1.00
C416   C     0.79542   0.72617   0.39041   0.00000  Uiso   1.00
C417   C     0.80063   0.72148   0.09944   0.00000  Uiso   1.00
C418   C     0.86605   0.77851   0.40056   0.00000  Uiso   1.00
C419   C     0.80753   0.71569   0.05049   0.00000  Uiso   1.00
C420   C     0.85916   0.78431   0.44950   0.00000  Uiso   1.00
C421   C     0.83667   0.74746   0.02772   0.00000  Uiso   1.00
C422   C     0.83000   0.75255   0.47228   0.00000  Uiso   1.00
C423   C     0.73480   0.74836   0.23800   0.00000  Uiso   1.00
C424   C     0.93187   0.75164   0.26200   0.00000  Uiso   1.00
C425   C     0.67990   0.74040   0.23368   0.00000  Uiso   1.00
C426   C     0.98677   0.75960   0.26631   0.00000  Uiso   1.00
C427   C     0.85945   0.54725   0.29478   0.00000  Uiso   1.00
C428   C     0.80721   0.95274   0.20520   0.00000  Uiso   1.00
C429   C     0.85780   0.59376   0.29597   0.00000  Uiso   1.00
C430   C     0.80881   0.90622   0.20403   0.00000  Uiso   1.00
C431   C     0.84708   0.61681   0.25136   0.00000  Uiso   1.00
C432   C     0.81958   0.88319   0.24864   0.00000  Uiso   1.00
C433   C     0.85011   0.59291   0.20779   0.00000  Uiso   1.00
C434   C     0.81660   0.90710   0.29221   0.00000  Uiso   1.00
C435   C     0.84805   0.54695   0.20865   0.00000  Uiso   1.00
C436   C     0.81866   0.95306   0.29133   0.00000  Uiso   1.00
C437   C     0.84234   0.52403   0.25105   0.00000  Uiso   1.00
C438   C     0.82434   0.97597   0.24892   0.00000  Uiso   1.00
Cu439  Cu    0.83333   0.75000   0.29822   0.00000  Uiso   1.00
Cu440  Cu    0.83333   0.75001   0.20179   0.00000  Uiso   1.00
H441   H     0.85143   0.52909   0.17579   0.00000  Uiso   1.00
H442   H     0.81530   0.97092   0.32420   0.00000  Uiso   1.00
N443   N     0.83333   0.75001   0.12935   0.00000  Uiso   1.00
N444   N     0.83333   0.74999   0.37066   0.00000  Uiso   1.00
O445   O     0.83334   0.68573   0.29072   0.00000  Uiso   1.00
O446   O     0.83333   0.81428   0.20929   0.00000  Uiso   1.00
O447   O     0.83334   0.68573   0.20928   0.00000  Uiso   1.00
O448   O     0.83333   0.81427   0.29072   0.00000  Uiso   1.00
O449   O     0.75828   0.75000   0.28132   0.00000  Uiso   1.00
O450   O     0.90839   0.75001   0.21868   0.00000  Uiso   1.00
O451   O     0.75828   0.75000   0.19989   0.00000  Uiso   1.00
O452   O     0.90839   0.75000   0.30012   0.00000  Uiso   1.00
C453   C     0.98993   0.70419   0.19848   0.00000  Uiso   1.00
H454   H     0.96371   0.68131   0.21583   0.00000  Uiso   1.00
H455   H     0.68665   0.68364   0.18710   0.00000  Uiso   1.00
H456   H     0.96892   0.71875   0.16567   0.00000  Uiso   1.00
C457   C     0.67674   0.79581   0.30152   0.00000  Uiso   1.00
H458   H     0.70297   0.81869   0.28419   0.00000  Uiso   1.00
H459   H     0.69774   0.78124   0.33434   0.00000  Uiso   1.00
H460   H     0.98002   0.81637   0.31289   0.00000  Uiso   1.00
Cl461  Cl    0.89637   0.52032   0.34297   0.00000  Uiso   1.00
Cl462  Cl    0.77037   0.97969   0.15698   0.00000  Uiso   1.00
C463   C     0.86988   0.61807   0.34418   0.00000  Uiso   1.00
H464   H     0.90081   0.64413   0.34232   0.00000  Uiso   1.00
H465   H     0.83471   0.63251   0.35387   0.00000  Uiso   1.00
H466   H     0.88308   0.59691   0.37501   0.00000  Uiso   1.00
C467   C     0.79661   0.88188   0.15583   0.00000  Uiso   1.00
H468   H     0.76572   0.85581   0.15779   0.00000  Uiso   1.00
H469   H     0.78329   0.90301   0.12501   0.00000  Uiso   1.00
H470   H     0.83176   0.86746   0.14607   0.00000  Uiso   1.00
C471   C     0.85656   0.61433   0.16001   0.00000  Uiso   1.00
H472   H     0.88833   0.64018   0.16486   0.00000  Uiso   1.00
H473   H     0.86667   0.59027   0.13310   0.00000  Uiso   1.00
H474   H     0.82012   0.62826   0.14414   0.00000  Uiso   1.00
C475   C     0.81023   0.88570   0.34002   0.00000  Uiso   1.00
H476   H     0.80022   0.90977   0.36697   0.00000  Uiso   1.00
H477   H     0.84670   0.87174   0.35581   0.00000  Uiso   1.00
H478   H     0.77843   0.85987   0.33522   0.00000  Uiso   1.00
Cl479  Cl    0.93749   0.78212   0.04247   0.00000  Uiso   1.00
Cl480  Cl    0.72918   0.71791   0.45755   0.00000  Uiso   1.00
Cl481  Cl    0.91514   0.81050   0.14523   0.00000  Uiso   1.00
Cl482  Cl    0.75149   0.68953   0.35478   0.00000  Uiso   1.00
C483   C     0.75332   0.69928   0.11559   0.00000  Uiso   1.00
H484   H     0.76199   0.68083   0.14922   0.00000  Uiso   1.00
H485   H     0.72529   0.72465   0.11984   0.00000  Uiso   1.00
H486   H     0.73307   0.67554   0.08830   0.00000  Uiso   1.00
C487   C     0.91339   0.80067   0.38442   0.00000  Uiso   1.00
H488   H     0.90474   0.81912   0.35078   0.00000  Uiso   1.00
H489   H     0.93366   0.82439   0.41172   0.00000  Uiso   1.00
H490   H     0.94139   0.77528   0.38017   0.00000  Uiso   1.00
Cl491  Cl    0.79877   0.66129   0.02617   0.00000  Uiso   1.00
Cl492  Cl    0.86793   0.83871   0.47381   0.00000  Uiso   1.00
C493   C     0.17104   0.16506   0.75044   0.00000  Uiso   1.00
C494   C     0.16229   0.33494   0.74956   0.00000  Uiso   1.00
C495   C     0.20899   0.27055   0.55969   0.00000  Uiso   1.00
C496   C     0.12433   0.22947   0.94031   0.00000  Uiso   1.00
C497   C     0.20457   0.27385   0.60960   0.00000  Uiso   1.00
C498   C     0.12875   0.22617   0.89041   0.00000  Uiso   1.00
C499   C     0.13396   0.22148   0.59944   0.00000  Uiso   1.00
C500   C     0.19939   0.27851   0.90056   0.00000  Uiso   1.00
C501   C     0.14086   0.21569   0.55049   0.00000  Uiso   1.00
C502   C     0.19249   0.28431   0.94950   0.00000  Uiso   1.00
C503   C     0.17000   0.24746   0.52772   0.00000  Uiso   1.00
C504   C     0.16333   0.25255   0.97228   0.00000  Uiso   1.00
C505   C     0.06813   0.24836   0.73800   0.00000  Uiso   1.00
C506   C     0.26520   0.25164   0.76200   0.00000  Uiso   1.00
C507   C     0.01323   0.24040   0.73368   0.00000  Uiso   1.00
C508   C     0.32010   0.25960   0.76631   0.00000  Uiso   1.00
C509   C     0.19278   0.04725   0.79478   0.00000  Uiso   1.00
C510   C     0.14054   0.45274   0.70520   0.00000  Uiso   1.00
C511   C     0.19113   0.09376   0.79597   0.00000  Uiso   1.00
C512   C     0.14215   0.40622   0.70403   0.00000  Uiso   1.00
C513   C     0.18041   0.11681   0.75136   0.00000  Uiso   1.00
C514   C     0.15292   0.38319   0.74864   0.00000  Uiso   1.00
C515   C     0.18344   0.09291   0.70779   0.00000  Uiso   1.00
C516   C     0.14994   0.40710   0.79221   0.00000  Uiso   1.00
C517   C     0.18138   0.04695   0.70865   0.00000  Uiso   1.00
C518   C     0.15199   0.45306   0.79133   0.00000  Uiso   1.00
C519   C     0.17567   0.02403   0.75105   0.00000  Uiso   1.00
C520   C     0.15767   0.47597   0.74892   0.00000  Uiso   1.00
Cu521  Cu    0.16667   0.25000   0.79822   0.00000  Uiso   1.00
Cu522  Cu    0.16667   0.25001   0.70179   0.00000  Uiso   1.00
H523   H     0.18476   0.02909   0.67579   0.00000  Uiso   1.00
H524   H     0.14863   0.47092   0.82420   0.00000  Uiso   1.00
N525   N     0.16667   0.25001   0.62935   0.00000  Uiso   1.00
N526   N     0.16667   0.24999   0.87066   0.00000  Uiso   1.00
O527   O     0.16667   0.18573   0.79072   0.00000  Uiso   1.00
O528   O     0.16666   0.31428   0.70929   0.00000  Uiso   1.00
O529   O     0.16667   0.18573   0.70928   0.00000  Uiso   1.00
O530   O     0.16666   0.31427   0.79072   0.00000  Uiso   1.00
O531   O     0.09161   0.25000   0.78132   0.00000  Uiso   1.00
O532   O     0.24172   0.25001   0.71868   0.00000  Uiso   1.00
O533   O     0.09161   0.25000   0.69989   0.00000  Uiso   1.00
O534   O     0.24172   0.25000   0.80012   0.00000  Uiso   1.00
C535   C     0.32326   0.20419   0.69848   0.00000  Uiso   1.00
H536   H     0.29705   0.18131   0.71583   0.00000  Uiso   1.00
H537   H     0.01998   0.18364   0.68710   0.00000  Uiso   1.00
H538   H     0.30225   0.21875   0.66567   0.00000  Uiso   1.00
C539   C     0.01007   0.29581   0.80152   0.00000  Uiso   1.00
H540   H     0.03630   0.31869   0.78419   0.00000  Uiso   1.00
H541   H     0.03107   0.28124   0.83434   0.00000  Uiso   1.00
H542   H     0.31335   0.31637   0.81289   0.00000  Uiso   1.00
Cl543  Cl    0.22970   0.02032   0.84297   0.00000  Uiso   1.00
Cl544  Cl    0.10370   0.47969   0.65698   0.00000  Uiso   1.00
C545   C     0.20322   0.11807   0.84418   0.00000  Uiso   1.00
H546   H     0.23414   0.14413   0.84232   0.00000  Uiso   1.00
H547   H     0.16804   0.13251   0.85387   0.00000  Uiso   1.00
H548   H     0.21641   0.09691   0.87501   0.00000  Uiso   1.00
C549   C     0.12994   0.38188   0.65583   0.00000  Uiso   1.00
H550   H     0.09905   0.35581   0.65779   0.00000  Uiso   1.00
H551   H     0.11663   0.40301   0.62501   0.00000  Uiso   1.00
H552   H     0.16509   0.36746   0.64607   0.00000  Uiso   1.00
C553   C     0.18989   0.11433   0.66001   0.00000  Uiso   1.00
H554   H     0.22166   0.14018   0.66486   0.00000  Uiso   1.00
H555   H     0.20001   0.09027   0.63310   0.00000  Uiso   1.00
H556   H     0.15345   0.12826   0.64414   0.00000  Uiso   1.00
C557   C     0.14357   0.38570   0.84002   0.00000  Uiso   1.00
H558   H     0.13355   0.40977   0.86697   0.00000  Uiso   1.00
H559   H     0.18003   0.37174   0.85581   0.00000  Uiso   1.00
H560   H     0.11177   0.35987   0.83522   0.00000  Uiso   1.00
Cl561  Cl    0.27082   0.28212   0.54247   0.00000  Uiso   1.00
Cl562  Cl    0.06251   0.21791   0.95755   0.00000  Uiso   1.00
Cl563  Cl    0.24848   0.31050   0.64523   0.00000  Uiso   1.00
Cl564  Cl    0.08482   0.18953   0.85478   0.00000  Uiso   1.00
C565   C     0.08665   0.19928   0.61559   0.00000  Uiso   1.00
H566   H     0.09532   0.18083   0.64922   0.00000  Uiso   1.00
H567   H     0.05862   0.22465   0.61984   0.00000  Uiso   1.00
H568   H     0.06640   0.17554   0.58830   0.00000  Uiso   1.00
C569   C     0.24672   0.30067   0.88442   0.00000  Uiso   1.00
H570   H     0.23807   0.31912   0.85078   0.00000  Uiso   1.00
H571   H     0.26699   0.32439   0.91172   0.00000  Uiso   1.00
H572   H     0.27472   0.27528   0.88017   0.00000  Uiso   1.00
Cl573  Cl    0.13210   0.16129   0.52617   0.00000  Uiso   1.00
Cl574  Cl    0.20126   0.33871   0.97381   0.00000  Uiso   1.00
C575   C     0.50438   0.16506   0.75044   0.00000  Uiso   1.00
C576   C     0.49562   0.33494   0.74956   0.00000  Uiso   1.00
C577   C     0.54233   0.27055   0.55969   0.00000  Uiso   1.00
C578   C     0.45767   0.22947   0.94031   0.00000  Uiso   1.00
C579   C     0.53790   0.27385   0.60960   0.00000  Uiso   1.00
C580   C     0.46208   0.22617   0.89041   0.00000  Uiso   1.00
C581   C     0.46730   0.22148   0.59944   0.00000  Uiso   1.00
C582   C     0.53272   0.27851   0.90056   0.00000  Uiso   1.00
C583   C     0.47419   0.21569   0.55049   0.00000  Uiso   1.00
C584   C     0.52582   0.28431   0.94950   0.00000  Uiso   1.00
C585   C     0.50334   0.24746   0.52772   0.00000  Uiso   1.00
C586   C     0.49667   0.25255   0.97228   0.00000  Uiso   1.00
C587   C     0.40146   0.24836   0.73800   0.00000  Uiso   1.00
C588   C     0.59854   0.25164   0.76200   0.00000  Uiso   1.00
C589   C     0.34657   0.24040   0.73368   0.00000  Uiso   1.00
C590   C     0.65343   0.25960   0.76631   0.00000  Uiso   1.00
C591   C     0.52612   0.04725   0.79478   0.00000  Uiso   1.00
C592   C     0.47388   0.45274   0.70520   0.00000  Uiso   1.00
C593   C     0.52446   0.09376   0.79597   0.00000  Uiso   1.00
C594   C     0.47548   0.40622   0.70403   0.00000  Uiso   1.00
C595   C     0.51374   0.11681   0.75136   0.00000  Uiso   1.00
C596   C     0.48625   0.38319   0.74864   0.00000  Uiso   1.00
C597   C     0.51678   0.09291   0.70779   0.00000  Uiso   1.00
C598   C     0.48327   0.40710   0.79221   0.00000  Uiso   1.00
C599   C     0.51471   0.04695   0.70865   0.00000  Uiso   1.00
C600   C     0.48532   0.45306   0.79133   0.00000  Uiso   1.00
C601   C     0.50901   0.02403   0.75105   0.00000  Uiso   1.00
C602   C     0.49101   0.47597   0.74892   0.00000  Uiso   1.00
Cu603  Cu    0.50000   0.25000   0.79822   0.00000  Uiso   1.00
Cu604  Cu    0.50000   0.25001   0.70179   0.00000  Uiso   1.00
H605   H     0.51809   0.02909   0.67579   0.00000  Uiso   1.00
H606   H     0.48197   0.47092   0.82420   0.00000  Uiso   1.00
N607   N     0.50000   0.25001   0.62935   0.00000  Uiso   1.00
N608   N     0.50000   0.24999   0.87066   0.00000  Uiso   1.00
O609   O     0.50000   0.18573   0.79072   0.00000  Uiso   1.00
O610   O     0.50000   0.31428   0.70929   0.00000  Uiso   1.00
O611   O     0.50000   0.18573   0.70928   0.00000  Uiso   1.00
O612   O     0.50000   0.31427   0.79072   0.00000  Uiso   1.00
O613   O     0.42495   0.25000   0.78132   0.00000  Uiso   1.00
O614   O     0.57505   0.25001   0.71868   0.00000  Uiso   1.00
O615   O     0.42495   0.25000   0.69989   0.00000  Uiso   1.00
O616   O     0.57505   0.25000   0.80012   0.00000  Uiso   1.00
C617   C     0.65660   0.20419   0.69848   0.00000  Uiso   1.00
H618   H     0.63038   0.18131   0.71583   0.00000  Uiso   1.00
H619   H     0.35332   0.18364   0.68710   0.00000  Uiso   1.00
H620   H     0.63559   0.21875   0.66567   0.00000  Uiso   1.00
C621   C     0.34340   0.29581   0.80152   0.00000  Uiso   1.00
H622   H     0.36964   0.31869   0.78419   0.00000  Uiso   1.00
H623   H     0.36440   0.28124   0.83434   0.00000  Uiso   1.00
H624   H     0.64669   0.31637   0.81289   0.00000  Uiso   1.00
Cl625  Cl    0.56303   0.02032   0.84297   0.00000  Uiso   1.00
Cl626  Cl    0.43704   0.47969   0.65698   0.00000  Uiso   1.00
C627   C     0.53655   0.11807   0.84418   0.00000  Uiso   1.00
H628   H     0.56748   0.14413   0.84232   0.00000  Uiso   1.00
H629   H     0.50137   0.13251   0.85387   0.00000  Uiso   1.00
H630   H     0.54975   0.09691   0.87501   0.00000  Uiso   1.00
C631   C     0.46328   0.38188   0.65583   0.00000  Uiso   1.00
H632   H     0.43239   0.35581   0.65779   0.00000  Uiso   1.00
H633   H     0.44996   0.40301   0.62501   0.00000  Uiso   1.00
H634   H     0.49843   0.36746   0.64607   0.00000  Uiso   1.00
C635   C     0.52323   0.11433   0.66001   0.00000  Uiso   1.00
H636   H     0.55500   0.14018   0.66486   0.00000  Uiso   1.00
H637   H     0.53334   0.09027   0.63310   0.00000  Uiso   1.00
H638   H     0.48678   0.12826   0.64414   0.00000  Uiso   1.00
C639   C     0.47690   0.38570   0.84002   0.00000  Uiso   1.00
H640   H     0.46689   0.40977   0.86697   0.00000  Uiso   1.00
H641   H     0.51336   0.37174   0.85581   0.00000  Uiso   1.00
H642   H     0.44510   0.35987   0.83522   0.00000  Uiso   1.00
Cl643  Cl    0.60416   0.28212   0.54247   0.00000  Uiso   1.00
Cl644  Cl    0.39584   0.21791   0.95755   0.00000  Uiso   1.00
Cl645  Cl    0.58181   0.31050   0.64523   0.00000  Uiso   1.00
Cl646  Cl    0.41816   0.18953   0.85478   0.00000  Uiso   1.00
C647   C     0.41999   0.19928   0.61559   0.00000  Uiso   1.00
H648   H     0.42865   0.18083   0.64922   0.00000  Uiso   1.00
H649   H     0.39195   0.22465   0.61984   0.00000  Uiso   1.00
H650   H     0.39974   0.17554   0.58830   0.00000  Uiso   1.00
C651   C     0.58005   0.30067   0.88442   0.00000  Uiso   1.00
H652   H     0.57141   0.31912   0.85078   0.00000  Uiso   1.00
H653   H     0.60032   0.32439   0.91172   0.00000  Uiso   1.00
H654   H     0.60805   0.27528   0.88017   0.00000  Uiso   1.00
Cl655  Cl    0.46543   0.16129   0.52617   0.00000  Uiso   1.00
Cl656  Cl    0.53459   0.33871   0.97381   0.00000  Uiso   1.00
C657   C     0.83771   0.16506   0.75044   0.00000  Uiso   1.00
C658   C     0.82895   0.33494   0.74956   0.00000  Uiso   1.00
C659   C     0.87566   0.27055   0.55969   0.00000  Uiso   1.00
C660   C     0.79100   0.22947   0.94031   0.00000  Uiso   1.00
C661   C     0.87124   0.27385   0.60960   0.00000  Uiso   1.00
C662   C     0.79542   0.22617   0.89041   0.00000  Uiso   1.00
C663   C     0.80063   0.22148   0.59944   0.00000  Uiso   1.00
C664   C     0.86605   0.27851   0.90056   0.00000  Uiso   1.00
C665   C     0.80753   0.21569   0.55049   0.00000  Uiso   1.00
C666   C     0.85916   0.28431   0.94950   0.00000  Uiso   1.00
C667   C     0.83667   0.24746   0.52772   0.00000  Uiso   1.00
C668   C     0.83000   0.25255   0.97228   0.00000  Uiso   1.00
C669   C     0.73480   0.24836   0.73800   0.00000  Uiso   1.00
C670   C     0.93187   0.25164   0.76200   0.00000  Uiso   1.00
C671   C     0.67990   0.24040   0.73368   0.00000  Uiso   1.00
C672   C     0.98677   0.25960   0.76631   0.00000  Uiso   1.00
C673   C     0.85945   0.04725   0.79478   0.00000  Uiso   1.00
C674   C     0.80721   0.45274   0.70520   0.00000  Uiso   1.00
C675   C     0.85780   0.09376   0.79597   0.00000  Uiso   1.00
C676   C     0.80881   0.40622   0.70403   0.00000  Uiso   1.00
C677   C     0.84708   0.11681   0.75136   0.00000  Uiso   1.00
C678   C     0.81958   0.38319   0.74864   0.00000  Uiso   1.00
C679   C     0.85011   0.09291   0.70779   0.00000  Uiso   1.00
C680   C     0.81660   0.40710   0.79221   0.00000  Uiso   1.00
C681   C     0.84805   0.04695   0.70865   0.00000  Uiso   1.00
C682   C     0.81866   0.45306   0.79133   0.00000  Uiso   1.00
C683   C     0.84234   0.02403   0.75105   0.00000  Uiso   1.00
C684   C     0.82434   0.47597   0.74892   0.00000  Uiso   1.00
Cu685  Cu    0.83333   0.25000   0.79822   0.00000  Uiso   1.00
Cu686  Cu    0.83333   0.25001   0.70179   0.00000  Uiso   1.00
H687   H     0.85143   0.02909   0.67579   0.00000  Uiso   1.00
H688   H     0.81530   0.47092   0.82420   0.00000  Uiso   1.00
N689   N     0.83333   0.25001   0.62935   0.00000  Uiso   1.00
N690   N     0.83333   0.24999   0.87066   0.00000  Uiso   1.00
O691   O     0.83334   0.18573   0.79072   0.00000  Uiso   1.00
O692   O     0.83333   0.31428   0.70929   0.00000  Uiso   1.00
O693   O     0.83334   0.18573   0.70928   0.00000  Uiso   1.00
O694   O     0.83333   0.31427   0.79072   0.00000  Uiso   1.00
O695   O     0.75828   0.25000   0.78132   0.00000  Uiso   1.00
O696   O     0.90839   0.25001   0.71868   0.00000  Uiso   1.00
O697   O     0.75828   0.25000   0.69989   0.00000  Uiso   1.00
O698   O     0.90839   0.25000   0.80012   0.00000  Uiso   1.00
C699   C     0.98993   0.20419   0.69848   0.00000  Uiso   1.00
H700   H     0.96371   0.18131   0.71583   0.00000  Uiso   1.00
H701   H     0.68665   0.18364   0.68710   0.00000  Uiso   1.00
H702   H     0.96892   0.21875   0.66567   0.00000  Uiso   1.00
C703   C     0.67674   0.29581   0.80152   0.00000  Uiso   1.00
H704   H     0.70297   0.31869   0.78419   0.00000  Uiso   1.00
H705   H     0.69774   0.28124   0.83434   0.00000  Uiso   1.00
H706   H     0.98002   0.31637   0.81289   0.00000  Uiso   1.00
Cl707  Cl    0.89637   0.02032   0.84297   0.00000  Uiso   1.00
Cl708  Cl    0.77037   0.47969   0.65698   0.00000  Uiso   1.00
C709   C     0.86988   0.11807   0.84418   0.00000  Uiso   1.00
H710   H     0.90081   0.14413   0.84232   0.00000  Uiso   1.00
H711   H     0.83471   0.13251   0.85387   0.00000  Uiso   1.00
H712   H     0.88308   0.09691   0.87501   0.00000  Uiso   1.00
C713   C     0.79661   0.38188   0.65583   0.00000  Uiso   1.00
H714   H     0.76572   0.35581   0.65779   0.00000  Uiso   1.00
H715   H     0.78329   0.40301   0.62501   0.00000  Uiso   1.00
H716   H     0.83176   0.36746   0.64607   0.00000  Uiso   1.00
C717   C     0.85656   0.11433   0.66001   0.00000  Uiso   1.00
H718   H     0.88833   0.14018   0.66486   0.00000  Uiso   1.00
H719   H     0.86667   0.09027   0.63310   0.00000  Uiso   1.00
H720   H     0.82012   0.12826   0.64414   0.00000  Uiso   1.00
C721   C     0.81023   0.38570   0.84002   0.00000  Uiso   1.00
H722   H     0.80022   0.40977   0.86697   0.00000  Uiso   1.00
H723   H     0.84670   0.37174   0.85581   0.00000  Uiso   1.00
H724   H     0.77843   0.35987   0.83522   0.00000  Uiso   1.00
Cl725  Cl    0.93749   0.28212   0.54247   0.00000  Uiso   1.00
Cl726  Cl    0.72918   0.21791   0.95755   0.00000  Uiso   1.00
Cl727  Cl    0.91514   0.31050   0.64523   0.00000  Uiso   1.00
Cl728  Cl    0.75149   0.18953   0.85478   0.00000  Uiso   1.00
C729   C     0.75332   0.19928   0.61559   0.00000  Uiso   1.00
H730   H     0.76199   0.18083   0.64922   0.00000  Uiso   1.00
H731   H     0.72529   0.22465   0.61984   0.00000  Uiso   1.00
H732   H     0.73307   0.17554   0.58830   0.00000  Uiso   1.00
C733   C     0.91339   0.30067   0.88442   0.00000  Uiso   1.00
H734   H     0.90474   0.31912   0.85078   0.00000  Uiso   1.00
H735   H     0.93366   0.32439   0.91172   0.00000  Uiso   1.00
H736   H     0.94139   0.27528   0.88017   0.00000  Uiso   1.00
Cl737  Cl    0.79877   0.16129   0.52617   0.00000  Uiso   1.00
Cl738  Cl    0.86793   0.33871   0.97381   0.00000  Uiso   1.00
C739   C     0.17104   0.66506   0.75044   0.00000  Uiso   1.00
C740   C     0.16229   0.83494   0.74956   0.00000  Uiso   1.00
C741   C     0.20899   0.77055   0.55969   0.00000  Uiso   1.00
C742   C     0.12433   0.72947   0.94031   0.00000  Uiso   1.00
C743   C     0.20457   0.77385   0.60960   0.00000  Uiso   1.00
C744   C     0.12875   0.72617   0.89041   0.00000  Uiso   1.00
C745   C     0.13396   0.72148   0.59944   0.00000  Uiso   1.00
C746   C     0.19939   0.77851   0.90056   0.00000  Uiso   1.00
C747   C     0.14086   0.71569   0.55049   0.00000  Uiso   1.00
C748   C     0.19249   0.78431   0.94950   0.00000  Uiso   1.00
C749   C     0.17000   0.74746   0.52772   0.00000  Uiso   1.00
C750   C     0.16333   0.75255   0.97228   0.00000  Uiso   1.00
C751   C     0.06813   0.74836   0.73800   0.00000  Uiso   1.00
C752   C     0.26520   0.75164   0.76200   0.00000  Uiso   1.00
C753   C     0.01323   0.74040   0.73368   0.00000  Uiso   1.00
C754   C     0.32010   0.75960   0.76631   0.00000  Uiso   1.00
C755   C     0.19278   0.54725   0.79478   0.00000  Uiso   1.00
C756   C     0.14054   0.95274   0.70520   0.00000  Uiso   1.00
C757   C     0.19113   0.59376   0.79597   0.00000  Uiso   1.00
C758   C     0.14215   0.90622   0.70403   0.00000  Uiso   1.00
C759   C     0.18041   0.61681   0.75136   0.00000  Uiso   1.00
C760   C     0.15292   0.88319   0.74864   0.00000  Uiso   1.00
C761   C     0.18344   0.59291   0.70779   0.00000  Uiso   1.00
C762   C     0.14994   0.90710   0.79221   0.00000  Uiso   1.00
C763   C     0.18138   0.54695   0.70865   0.00000  Uiso   1.00
C764   C     0.15199   0.95306   0.79133   0.00000  Uiso   1.00
C765   C     0.17567   0.52403   0.75105   0.00000  Uiso   1.00
C766   C     0.15767   0.97597   0.74892   0.00000  Uiso   1.00
Cu767  Cu    0.16667   0.75000   0.79822   0.00000  Uiso   1.00
Cu768  Cu    0.16667   0.75001   0.70179   0.00000  Uiso   1.00
H769   H     0.18476   0.52909   0.67579   0.00000  Uiso   1.00
H770   H     0.14863   0.97092   0.82420   0.00000  Uiso   1.00
N771   N     0.16667   0.75001   0.62935   0.00000  Uiso   1.00
N772   N     0.16667   0.74999   0.87066   0.00000  Uiso   1.00
O773   O     0.16667   0.68573   0.79072   0.00000  Uiso   1.00
O774   O     0.16666   0.81428   0.70929   0.00000  Uiso   1.00
O775   O     0.16667   0.68573   0.70928   0.00000  Uiso   1.00
O776   O     0.16666   0.81427   0.79072   0.00000  Uiso   1.00
O777   O     0.09161   0.75000   0.78132   0.00000  Uiso   1.00
O778   O     0.24172   0.75001   0.71868   0.00000  Uiso   1.00
O779   O     0.09161   0.75000   0.69989   0.00000  Uiso   1.00
O780   O     0.24172   0.75000   0.80012   0.00000  Uiso   1.00
C781   C     0.32326   0.70419   0.69848   0.00000  Uiso   1.00
H782   H     0.29705   0.68131   0.71583   0.00000  Uiso   1.00
H783   H     0.01998   0.68364   0.68710   0.00000  Uiso   1.00
H784   H     0.30225   0.71875   0.66567   0.00000  Uiso   1.00
C785   C     0.01007   0.79581   0.80152   0.00000  Uiso   1.00
H786   H     0.03630   0.81869   0.78419   0.00000  Uiso   1.00
H787   H     0.03107   0.78124   0.83434   0.00000  Uiso   1.00
H788   H     0.31335   0.81637   0.81289   0.00000  Uiso   1.00
Cl789  Cl    0.22970   0.52032   0.84297   0.00000  Uiso   1.00
Cl790  Cl    0.10370   0.97969   0.65698   0.00000  Uiso   1.00
C791   C     0.20322   0.61807   0.84418   0.00000  Uiso   1.00
H792   H     0.23414   0.64413   0.84232   0.00000  Uiso   1.00
H793   H     0.16804   0.63251   0.85387   0.00000  Uiso   1.00
H794   H     0.21641   0.59691   0.87501   0.00000  Uiso   1.00
C795   C     0.12994   0.88188   0.65583   0.00000  Uiso   1.00
H796   H     0.09905   0.85581   0.65779   0.00000  Uiso   1.00
H797   H     0.11663   0.90301   0.62501   0.00000  Uiso   1.00
H798   H     0.16509   0.86746   0.64607   0.00000  Uiso   1.00
C799   C     0.18989   0.61433   0.66001   0.00000  Uiso   1.00
H800   H     0.22166   0.64018   0.66486   0.00000  Uiso   1.00
H801   H     0.20001   0.59027   0.63310   0.00000  Uiso   1.00
H802   H     0.15345   0.62826   0.64414   0.00000  Uiso   1.00
C803   C     0.14357   0.88570   0.84002   0.00000  Uiso   1.00
H804   H     0.13355   0.90977   0.86697   0.00000  Uiso   1.00
H805   H     0.18003   0.87174   0.85581   0.00000  Uiso   1.00
H806   H     0.11177   0.85987   0.83522   0.00000  Uiso   1.00
Cl807  Cl    0.27082   0.78212   0.54247   0.00000  Uiso   1.00
Cl808  Cl    0.06251   0.71791   0.95755   0.00000  Uiso   1.00
Cl809  Cl    0.24848   0.81050   0.64523   0.00000  Uiso   1.00
Cl810  Cl    0.08482   0.68953   0.85478   0.00000  Uiso   1.00
C811   C     0.08665   0.69928   0.61559   0.00000  Uiso   1.00
H812   H     0.09532   0.68083   0.64922   0.00000  Uiso   1.00
H813   H     0.05862   0.72465   0.61984   0.00000  Uiso   1.00
H814   H     0.06640   0.67554   0.58830   0.00000  Uiso   1.00
C815   C     0.24672   0.80067   0.88442   0.00000  Uiso   1.00
H816   H     0.23807   0.81912   0.85078   0.00000  Uiso   1.00
H817   H     0.26699   0.82439   0.91172   0.00000  Uiso   1.00
H818   H     0.27472   0.77528   0.88017   0.00000  Uiso   1.00
Cl819  Cl    0.13210   0.66129   0.52617   0.00000  Uiso   1.00
Cl820  Cl    0.20126   0.83871   0.97381   0.00000  Uiso   1.00
C821   C     0.50438   0.66506   0.75044   0.00000  Uiso   1.00
C822   C     0.49562   0.83494   0.74956   0.00000  Uiso   1.00
C823   C     0.54233   0.77055   0.55969   0.00000  Uiso   1.00
C824   C     0.45767   0.72947   0.94031   0.00000  Uiso   1.00
C825   C     0.53790   0.77385   0.60960   0.00000  Uiso   1.00
C826   C     0.46208   0.72617   0.89041   0.00000  Uiso   1.00
C827   C     0.46730   0.72148   0.59944   0.00000  Uiso   1.00
C828   C     0.53272   0.77851   0.90056   0.00000  Uiso   1.00
C829   C     0.47419   0.71569   0.55049   0.00000  Uiso   1.00
C830   C     0.52582   0.78431   0.94950   0.00000  Uiso   1.00
C831   C     0.50334   0.74746   0.52772   0.00000  Uiso   1.00
C832   C     0.49667   0.75255   0.97228   0.00000  Uiso   1.00
C833   C     0.40146   0.74836   0.73800   0.00000  Uiso   1.00
C834   C     0.59854   0.75164   0.76200   0.00000  Uiso   1.00
C835   C     0.34657   0.74040   0.73368   0.00000  Uiso   1.00
C836   C     0.65343   0.75960   0.76631   0.00000  Uiso   1.00
C837   C     0.52612   0.54725   0.79478   0.00000  Uiso   1.00
C838   C     0.47388   0.95274   0.70520   0.00000  Uiso   1.00
C839   C     0.52446   0.59376   0.79597   0.00000  Uiso   1.00
C840   C     0.47548   0.90622   0.70403   0.00000  Uiso   1.00
C841   C     0.51374   0.61681   0.75136   0.00000  Uiso   1.00
C842   C     0.48625   0.88319   0.74864   0.00000  Uiso   1.00
C843   C     0.51678   0.59291   0.70779   0.00000  Uiso   1.00
C844   C     0.48327   0.90710   0.79221   0.00000  Uiso   1.00
C845   C     0.51471   0.54695   0.70865   0.00000  Uiso   1.00
C846   C     0.48532   0.95306   0.79133   0.00000  Uiso   1.00
C847   C     0.50901   0.52403   0.75105   0.00000  Uiso   1.00
C848   C     0.49101   0.97597   0.74892   0.00000  Uiso   1.00
Cu849  Cu    0.50000   0.75000   0.79822   0.00000  Uiso   1.00
Cu850  Cu    0.50000   0.75001   0.70179   0.00000  Uiso   1.00
H851   H     0.51809   0.52909   0.67579   0.00000  Uiso   1.00
H852   H     0.48197   0.97092   0.82420   0.00000  Uiso   1.00
N853   N     0.50000   0.75001   0.62935   0.00000  Uiso   1.00
N854   N     0.50000   0.74999   0.87066   0.00000  Uiso   1.00
O855   O     0.50000   0.68573   0.79072   0.00000  Uiso   1.00
O856   O     0.50000   0.81428   0.70929   0.00000  Uiso   1.00
O857   O     0.50000   0.68573   0.70928   0.00000  Uiso   1.00
O858   O     0.50000   0.81427   0.79072   0.00000  Uiso   1.00
O859   O     0.42495   0.75000   0.78132   0.00000  Uiso   1.00
O860   O     0.57505   0.75001   0.71868   0.00000  Uiso   1.00
O861   O     0.42495   0.75000   0.69989   0.00000  Uiso   1.00
O862   O     0.57505   0.75000   0.80012   0.00000  Uiso   1.00
C863   C     0.65660   0.70419   0.69848   0.00000  Uiso   1.00
H864   H     0.63038   0.68131   0.71583   0.00000  Uiso   1.00
H865   H     0.35332   0.68364   0.68710   0.00000  Uiso   1.00
H866   H     0.63559   0.71875   0.66567   0.00000  Uiso   1.00
C867   C     0.34340   0.79581   0.80152   0.00000  Uiso   1.00
H868   H     0.36964   0.81869   0.78419   0.00000  Uiso   1.00
H869   H     0.36440   0.78124   0.83434   0.00000  Uiso   1.00
H870   H     0.64669   0.81637   0.81289   0.00000  Uiso   1.00
Cl871  Cl    0.56303   0.52032   0.84297   0.00000  Uiso   1.00
Cl872  Cl    0.43704   0.97969   0.65698   0.00000  Uiso   1.00
C873   C     0.53655   0.61807   0.84418   0.00000  Uiso   1.00
H874   H     0.56748   0.64413   0.84232   0.00000  Uiso   1.00
H875   H     0.50137   0.63251   0.85387   0.00000  Uiso   1.00
H876   H     0.54975   0.59691   0.87501   0.00000  Uiso   1.00
C877   C     0.46328   0.88188   0.65583   0.00000  Uiso   1.00
H878   H     0.43239   0.85581   0.65779   0.00000  Uiso   1.00
H879   H     0.44996   0.90301   0.62501   0.00000  Uiso   1.00
H880   H     0.49843   0.86746   0.64607   0.00000  Uiso   1.00
C881   C     0.52323   0.61433   0.66001   0.00000  Uiso   1.00
H882   H     0.55500   0.64018   0.66486   0.00000  Uiso   1.00
H883   H     0.53334   0.59027   0.63310   0.00000  Uiso   1.00
H884   H     0.48678   0.62826   0.64414   0.00000  Uiso   1.00
C885   C     0.47690   0.88570   0.84002   0.00000  Uiso   1.00
H886   H     0.46689   0.90977   0.86697   0.00000  Uiso   1.00
H887   H     0.51336   0.87174   0.85581   0.00000  Uiso   1.00
H888   H     0.44510   0.85987   0.83522   0.00000  Uiso   1.00
Cl889  Cl    0.60416   0.78212   0.54247   0.00000  Uiso   1.00
Cl890  Cl    0.39584   0.71791   0.95755   0.00000  Uiso   1.00
Cl891  Cl    0.58181   0.81050   0.64523   0.00000  Uiso   1.00
Cl892  Cl    0.41816   0.68953   0.85478   0.00000  Uiso   1.00
C893   C     0.41999   0.69928   0.61559   0.00000  Uiso   1.00
H894   H     0.42865   0.68083   0.64922   0.00000  Uiso   1.00
H895   H     0.39195   0.72465   0.61984   0.00000  Uiso   1.00
H896   H     0.39974   0.67554   0.58830   0.00000  Uiso   1.00
C897   C     0.58005   0.80067   0.88442   0.00000  Uiso   1.00
H898   H     0.57141   0.81912   0.85078   0.00000  Uiso   1.00
H899   H     0.60032   0.82439   0.91172   0.00000  Uiso   1.00
H900   H     0.60805   0.77528   0.88017   0.00000  Uiso   1.00
Cl901  Cl    0.46543   0.66129   0.52617   0.00000  Uiso   1.00
Cl902  Cl    0.53459   0.83871   0.97381   0.00000  Uiso   1.00
C903   C     0.83771   0.66506   0.75044   0.00000  Uiso   1.00
C904   C     0.82895   0.83494   0.74956   0.00000  Uiso   1.00
C905   C     0.87566   0.77055   0.55969   0.00000  Uiso   1.00
C906   C     0.79100   0.72947   0.94031   0.00000  Uiso   1.00
C907   C     0.87124   0.77385   0.60960   0.00000  Uiso   1.00
C908   C     0.79542   0.72617   0.89041   0.00000  Uiso   1.00
C909   C     0.80063   0.72148   0.59944   0.00000  Uiso   1.00
C910   C     0.86605   0.77851   0.90056   0.00000  Uiso   1.00
C911   C     0.80753   0.71569   0.55049   0.00000  Uiso   1.00
C912   C     0.85916   0.78431   0.94950   0.00000  Uiso   1.00
C913   C     0.83667   0.74746   0.52772   0.00000  Uiso   1.00
C914   C     0.83000   0.75255   0.97228   0.00000  Uiso   1.00
C915   C     0.73480   0.74836   0.73800   0.00000  Uiso   1.00
C916   C     0.93187   0.75164   0.76200   0.00000  Uiso   1.00
C917   C     0.67990   0.74040   0.73368   0.00000  Uiso   1.00
C918   C     0.98677   0.75960   0.76631   0.00000  Uiso   1.00
C919   C     0.85945   0.54725   0.79478   0.00000  Uiso   1.00
C920   C     0.80721   0.95274   0.70520   0.00000  Uiso   1.00
C921   C     0.85780   0.59376   0.79597   0.00000  Uiso   1.00
C922   C     0.80881   0.90622   0.70403   0.00000  Uiso   1.00
C923   C     0.84708   0.61681   0.75136   0.00000  Uiso   1.00
C924   C     0.81958   0.88319   0.74864   0.00000  Uiso   1.00
C925   C     0.85011   0.59291   0.70779   0.00000  Uiso   1.00
C926   C     0.81660   0.90710   0.79221   0.00000  Uiso   1.00
C927   C     0.84805   0.54695   0.70865   0.00000  Uiso   1.00
C928   C     0.81866   0.95306   0.79133   0.00000  Uiso   1.00
C929   C     0.84234   0.52403   0.75105   0.00000  Uiso   1.00
C930   C     0.82434   0.97597   0.74892   0.00000  Uiso   1.00
Cu931  Cu    0.83333   0.75000   0.79822   0.00000  Uiso   1.00
Cu932  Cu    0.83333   0.75001   0.70179   0.00000  Uiso   1.00
H933   H     0.85143   0.52909   0.67579   0.00000  Uiso   1.00
H934   H     0.81530   0.97092   0.82420   0.00000  Uiso   1.00
N935   N     0.83333   0.75001   0.62935   0.00000  Uiso   1.00
N936   N     0.83333   0.74999   0.87066   0.00000  Uiso   1.00
O937   O     0.83334   0.68573   0.79072   0.00000  Uiso   1.00
O938   O     0.83333   0.81428   0.70929   0.00000  Uiso   1.00
O939   O     0.83334   0.68573   0.70928   0.00000  Uiso   1.00
O940   O     0.83333   0.81427   0.79072   0.00000  Uiso   1.00
O941   O     0.75828   0.75000   0.78132   0.00000  Uiso   1.00
O942   O     0.90839   0.75001   0.71868   0.00000  Uiso   1.00
O943   O     0.75828   0.75000   0.69989   0.00000  Uiso   1.00
O944   O     0.90839   0.75000   0.80012   0.00000  Uiso   1.00
C945   C     0.98993   0.70419   0.69848   0.00000  Uiso   1.00
H946   H     0.96371   0.68131   0.71583   0.00000  Uiso   1.00
H947   H     0.68665   0.68364   0.68710   0.00000  Uiso   1.00
H948   H     0.96892   0.71875   0.66567   0.00000  Uiso   1.00
C949   C     0.67674   0.79581   0.80152   0.00000  Uiso   1.00
H950   H     0.70297   0.81869   0.78419   0.00000  Uiso   1.00
H951   H     0.69774   0.78124   0.83434   0.00000  Uiso   1.00
H952   H     0.98002   0.81637   0.81289   0.00000  Uiso   1.00
Cl953  Cl    0.89637   0.52032   0.84297   0.00000  Uiso   1.00
Cl954  Cl    0.77037   0.97969   0.65698   0.00000  Uiso   1.00
C955   C     0.86988   0.61807   0.84418   0.00000  Uiso   1.00
H956   H     0.90081   0.64413   0.84232   0.00000  Uiso   1.00
H957   H     0.83471   0.63251   0.85387   0.00000  Uiso   1.00
H958   H     0.88308   0.59691   0.87501   0.00000  Uiso   1.00
C959   C     0.79661   0.88188   0.65583   0.00000  Uiso   1.00
H960   H     0.76572   0.85581   0.65779   0.00000  Uiso   1.00
H961   H     0.78329   0.90301   0.62501   0.00000  Uiso   1.00
H962   H     0.83176   0.86746   0.64607   0.00000  Uiso   1.00
C963   C     0.85656   0.61433   0.66001   0.00000  Uiso   1.00
H964   H     0.88833   0.64018   0.66486   0.00000  Uiso   1.00
H965   H     0.86667   0.59027   0.63310   0.00000  Uiso   1.00
H966   H     0.82012   0.62826   0.64414   0.00000  Uiso   1.00
C967   C     0.81023   0.88570   0.84002   0.00000  Uiso   1.00
H968   H     0.80022   0.90977   0.86697   0.00000  Uiso   1.00
H969   H     0.84670   0.87174   0.85581   0.00000  Uiso   1.00
H970   H     0.77843   0.85987   0.83522   0.00000  Uiso   1.00
Cl971  Cl    0.93749   0.78212   0.54247   0.00000  Uiso   1.00
Cl972  Cl    0.72918   0.71791   0.95755   0.00000  Uiso   1.00
Cl973  Cl    0.91514   0.81050   0.64523   0.00000  Uiso   1.00
Cl974  Cl    0.75149   0.68953   0.85478   0.00000  Uiso   1.00
C975   C     0.75332   0.69928   0.61559   0.00000  Uiso   1.00
H976   H     0.76199   0.68083   0.64922   0.00000  Uiso   1.00
H977   H     0.72529   0.72465   0.61984   0.00000  Uiso   1.00
H978   H     0.73307   0.67554   0.58830   0.00000  Uiso   1.00
C979   C     0.91339   0.80067   0.88442   0.00000  Uiso   1.00
H980   H     0.90474   0.81912   0.85078   0.00000  Uiso   1.00
H981   H     0.93366   0.82439   0.91172   0.00000  Uiso   1.00
H982   H     0.94139   0.77528   0.88017   0.00000  Uiso   1.00
Cl983  Cl    0.79877   0.66129   0.52617   0.00000  Uiso   1.00
Cl984  Cl    0.86793   0.83871   0.97381   0.00000  Uiso   1.00
loop_
_geom_bond_atom_site_label_1
_geom_bond_atom_site_label_2
_geom_bond_distance
_geom_bond_site_symmetry_2
_ccdc_geom_bond_type
C1     C21     1.496   .     S
C1     O37     1.306   .     A
C1     O35     1.305   .     A
C2     C22     1.496   .     S
C2     O38     1.306   .     A
C2     O36     1.305   .     A
C3     Cl69    1.773   .     S
C3     C5      1.416   .     A
C3     C11     1.419   .     A
C4     C12     1.419   .     A
C4     Cl70    1.773   .     S
C4     C6      1.416   .     A
C5     N33     1.376   .     A
C5     Cl71    1.763   .     S
C6     Cl72    1.763   .     S
C6     N34     1.376   .     A
C7     N33     1.382   .     A
C7     C73     1.506   .     S
C7     C9      1.413   .     A
C8     N34     1.382   .     A
C8     C77     1.506   .     S
C8     C10     1.413   .     A
C9     C11     1.407   .     A
C9     Cl81    1.774   .     S
C10    Cl82    1.774   .     S
C10    C12     1.407   .     A
C11    C504    1.543   1_554 S
C12    C503    1.543   .     S
C13    O41     1.299   .     A
C13    C15     1.439   .     S
C13    O39     1.281   .     A
C14    O42     1.299   .     A
C14    C16     1.439   .     S
C14    O40     1.281   .     A
C15    C180    1.362   1_455 S
C15    C207    1.519   1_455 S
C16    C97     1.362   .     S
C16    C129    1.519   .     S
C17    Cl51    1.778   .     S
C17    C27     1.414   .     A
C17    C19     1.414   .     A
C18    Cl52    1.778   .     S
C18    C20     1.414   .     A
C18    C28     1.414   .     A
C19    C53     1.519   .     S
C19    C21     1.433   .     A
C20    C22     1.433   .     A
C20    C57     1.519   .     S
C21    C23     1.426   .     A
C22    C24     1.426   .     A
C23    C25     1.393   .     A
C23    C61     1.512   .     S
C24    C26     1.393   .     A
C24    C65     1.512   .     S
C25    H31     1.079   .     S
C25    C27     1.397   .     A
C26    H32     1.079   .     S
C26    C28     1.397   .     A
C27    C274    1.508   1_545 S
C28    C273    1.508   .     S
Cu29   O42     1.965   .     S
Cu29   O38     1.962   .     S
Cu29   O39     1.965   .     S
Cu29   N34     2.021   .     S
Cu29   Cu30    2.691   .     S
Cu29   O35     1.960   .     S
Cu30   O41     1.965   .     S
Cu30   O37     1.962   .     S
Cu30   O40     1.965   .     S
Cu30   N33     2.021   .     S
Cu30   O36     1.960   .     S
C43    H44     1.111   .     S
C43    H46     1.110   .     S
C43    C97     1.519   .     S
C43    H127    1.108   .     S
H45    C207    1.108   1_455 S
C47    H49     1.110   .     S
C47    H48     1.111   .     S
C47    C180    1.519   1_455 S
C47    H214    1.108   1_455 S
H50    C129    1.108   .     S
C53    H56     1.105   .     S
C53    H55     1.107   .     S
C53    H54     1.111   .     S
C57    H59     1.105   .     S
C57    H60     1.107   .     S
C57    H58     1.111   .     S
C61    H63     1.111   .     S
C61    H64     1.105   .     S
C61    H62     1.110   .     S
C65    H67     1.105   .     S
C65    H68     1.110   .     S
C65    H66     1.111   .     S
C73    H74     1.099   .     S
C73    H75     1.108   .     S
C73    H76     1.109   .     S
C77    H78     1.099   .     S
C77    H79     1.109   .     S
C77    H80     1.108   .     S
C83    C103    1.496   .     S
C83    O119    1.306   .     A
C83    O117    1.305   .     A
C84    C104    1.496   .     S
C84    O120    1.306   .     A
C84    O118    1.305   .     A
C85    Cl151   1.773   .     S
C85    C87     1.416   .     A
C85    C93     1.419   .     A
C86    C94     1.419   .     A
C86    Cl152   1.773   .     S
C86    C88     1.416   .     A
C87    N115    1.376   .     A
C87    Cl153   1.763   .     S
C88    Cl154   1.763   .     S
C88    N116    1.376   .     A
C89    N115    1.382   .     A
C89    C155    1.506   .     S
C89    C91     1.413   .     A
C90    N116    1.382   .     A
C90    C159    1.506   .     S
C90    C92     1.413   .     A
C91    C93     1.407   .     A
C91    Cl163   1.774   .     S
C92    Cl164   1.774   .     S
C92    C94     1.407   .     A
C93    C586    1.543   1_554 S
C94    C585    1.543   .     S
C95    O123    1.299   .     A
C95    C97     1.439   .     S
C95    O121    1.281   .     A
C96    O124    1.299   .     A
C96    C98     1.439   .     S
C96    O122    1.281   .     A
C98    C179    1.362   .     S
C98    C211    1.519   .     S
C99    Cl133   1.778   .     S
C99    C109    1.414   .     A
C99    C101    1.414   .     A
C100   Cl134   1.778   .     S
C100   C102    1.414   .     A
C100   C110    1.414   .     A
C101   C135    1.519   .     S
C101   C103    1.433   .     A
C102   C104    1.433   .     A
C102   C139    1.519   .     S
C103   C105    1.426   .     A
C104   C106    1.426   .     A
C105   C107    1.393   .     A
C105   C143    1.512   .     S
C106   C108    1.393   .     A
C106   C147    1.512   .     S
C107   H113    1.079   .     S
C107   C109    1.397   .     A
C108   H114    1.079   .     S
C108   C110    1.397   .     A
C109   C356    1.508   1_545 S
C110   C355    1.508   .     S
Cu111  O124    1.965   .     S
Cu111  O120    1.962   .     S
Cu111  O121    1.965   .     S
Cu111  N116    2.021   .     S
Cu111  Cu112   2.691   .     S
Cu111  O117    1.960   .     S
Cu112  O123    1.965   .     S
Cu112  O119    1.962   .     S
Cu112  O122    1.965   .     S
Cu112  N115    2.021   .     S
Cu112  O118    1.960   .     S
C125   H126    1.111   .     S
C125   H128    1.110   .     S
C125   C179    1.519   .     S
C125   H209    1.108   .     S
C129   H131    1.110   .     S
C129   H130    1.111   .     S
H132   C211    1.108   .     S
C135   H138    1.105   .     S
C135   H137    1.107   .     S
C135   H136    1.111   .     S
C139   H141    1.105   .     S
C139   H142    1.107   .     S
C139   H140    1.111   .     S
C143   H145    1.111   .     S
C143   H146    1.105   .     S
C143   H144    1.110   .     S
C147   H149    1.105   .     S
C147   H150    1.110   .     S
C147   H148    1.111   .     S
C155   H156    1.099   .     S
C155   H157    1.108   .     S
C155   H158    1.109   .     S
C159   H160    1.099   .     S
C159   H161    1.109   .     S
C159   H162    1.108   .     S
C165   C185    1.496   .     S
C165   O201    1.306   .     A
C165   O199    1.305   .     A
C166   C186    1.496   .     S
C166   O202    1.306   .     A
C166   O200    1.305   .     A
C167   Cl233   1.773   .     S
C167   C169    1.416   .     A
C167   C175    1.419   .     A
C168   C176    1.419   .     A
C168   Cl234   1.773   .     S
C168   C170    1.416   .     A
C169   N197    1.376   .     A
C169   Cl235   1.763   .     S
C170   Cl236   1.763   .     S
C170   N198    1.376   .     A
C171   N197    1.382   .     A
C171   C237    1.506   .     S
C171   C173    1.413   .     A
C172   N198    1.382   .     A
C172   C241    1.506   .     S
C172   C174    1.413   .     A
C173   C175    1.407   .     A
C173   Cl245   1.774   .     S
C174   Cl246   1.774   .     S
C174   C176    1.407   .     A
C175   C668    1.543   1_554 S
C176   C667    1.543   .     S
C177   O205    1.299   .     A
C177   C179    1.439   .     S
C177   O203    1.281   .     A
C178   O206    1.299   .     A
C178   C180    1.439   .     S
C178   O204    1.281   .     A
C180   C15     1.362   1_655 S
C180   C47     1.519   1_655 S
C181   Cl215   1.778   .     S
C181   C191    1.414   .     A
C181   C183    1.414   .     A
C182   Cl216   1.778   .     S
C182   C184    1.414   .     A
C182   C192    1.414   .     A
C183   C217    1.519   .     S
C183   C185    1.433   .     A
C184   C186    1.433   .     A
C184   C221    1.519   .     S
C185   C187    1.426   .     A
C186   C188    1.426   .     A
C187   C189    1.393   .     A
C187   C225    1.512   .     S
C188   C190    1.393   .     A
C188   C229    1.512   .     S
C189   H195    1.079   .     S
C189   C191    1.397   .     A
C190   H196    1.079   .     S
C190   C192    1.397   .     A
C191   C438    1.508   1_545 S
C192   C437    1.508   .     S
Cu193  O206    1.965   .     S
Cu193  O202    1.962   .     S
Cu193  O203    1.965   .     S
Cu193  N198    2.021   .     S
Cu193  Cu194   2.691   .     S
Cu193  O199    1.960   .     S
Cu194  O205    1.965   .     S
Cu194  O201    1.962   .     S
Cu194  O204    1.965   .     S
Cu194  N197    2.021   .     S
Cu194  O200    1.960   .     S
C207   H208    1.111   .     S
C207   H210    1.110   .     S
C207   C15     1.519   1_655 S
C207   H45     1.108   1_655 S
C211   H213    1.110   .     S
C211   H212    1.111   .     S
H214   C47     1.108   1_655 S
C217   H220    1.105   .     S
C217   H219    1.107   .     S
C217   H218    1.111   .     S
C221   H223    1.105   .     S
C221   H224    1.107   .     S
C221   H222    1.111   .     S
C225   H227    1.111   .     S
C225   H228    1.105   .     S
C225   H226    1.110   .     S
C229   H231    1.105   .     S
C229   H232    1.110   .     S
C229   H230    1.111   .     S
C237   H238    1.099   .     S
C237   H239    1.108   .     S
C237   H240    1.109   .     S
C241   H242    1.099   .     S
C241   H243    1.109   .     S
C241   H244    1.108   .     S
C247   C267    1.496   .     S
C247   O283    1.306   .     A
C247   O281    1.305   .     A
C248   C268    1.496   .     S
C248   O284    1.306   .     A
C248   O282    1.305   .     A
C249   Cl315   1.773   .     S
C249   C251    1.416   .     A
C249   C257    1.419   .     A
C250   C258    1.419   .     A
C250   Cl316   1.773   .     S
C250   C252    1.416   .     A
C251   N279    1.376   .     A
C251   Cl317   1.763   .     S
C252   Cl318   1.763   .     S
C252   N280    1.376   .     A
C253   N279    1.382   .     A
C253   C319    1.506   .     S
C253   C255    1.413   .     A
C254   N280    1.382   .     A
C254   C323    1.506   .     S
C254   C256    1.413   .     A
C255   C257    1.407   .     A
C255   Cl327   1.774   .     S
C256   Cl328   1.774   .     S
C256   C258    1.407   .     A
C257   C750    1.543   1_554 S
C258   C749    1.543   .     S
C259   O287    1.299   .     A
C259   C261    1.439   .     S
C259   O285    1.281   .     A
C260   O288    1.299   .     A
C260   C262    1.439   .     S
C260   O286    1.281   .     A
C261   C426    1.362   1_455 S
C261   C453    1.519   1_455 S
C262   C343    1.362   .     S
C262   C375    1.519   .     S
C263   Cl297   1.778   .     S
C263   C273    1.414   .     A
C263   C265    1.414   .     A
C264   Cl298   1.778   .     S
C264   C266    1.414   .     A
C264   C274    1.414   .     A
C265   C299    1.519   .     S
C265   C267    1.433   .     A
C266   C268    1.433   .     A
C266   C303    1.519   .     S
C267   C269    1.426   .     A
C268   C270    1.426   .     A
C269   C271    1.393   .     A
C269   C307    1.512   .     S
C270   C272    1.393   .     A
C270   C311    1.512   .     S
C271   H277    1.079   .     S
C271   C273    1.397   .     A
C272   H278    1.079   .     S
C272   C274    1.397   .     A
C274   C27     1.508   1_565 S
Cu275  O288    1.965   .     S
Cu275  O284    1.962   .     S
Cu275  O285    1.965   .     S
Cu275  N280    2.021   .     S
Cu275  Cu276   2.691   .     S
Cu275  O281    1.960   .     S
Cu276  O287    1.965   .     S
Cu276  O283    1.962   .     S
Cu276  O286    1.965   .     S
Cu276  N279    2.021   .     S
Cu276  O282    1.960   .     S
C289   H290    1.111   .     S
C289   H292    1.110   .     S
C289   C343    1.519   .     S
C289   H373    1.108   .     S
H291   C453    1.108   1_455 S
C293   H295    1.110   .     S
C293   H294    1.111   .     S
C293   C426    1.519   1_455 S
C293   H460    1.108   1_455 S
H296   C375    1.108   .     S
C299   H302    1.105   .     S
C299   H301    1.107   .     S
C299   H300    1.111   .     S
C303   H305    1.105   .     S
C303   H306    1.107   .     S
C303   H304    1.111   .     S
C307   H309    1.111   .     S
C307   H310    1.105   .     S
C307   H308    1.110   .     S
C311   H313    1.105   .     S
C311   H314    1.110   .     S
C311   H312    1.111   .     S
C319   H320    1.099   .     S
C319   H321    1.108   .     S
C319   H322    1.109   .     S
C323   H324    1.099   .     S
C323   H325    1.109   .     S
C323   H326    1.108   .     S
C329   C349    1.496   .     S
C329   O365    1.306   .     A
C329   O363    1.305   .     A
C330   C350    1.496   .     S
C330   O366    1.306   .     A
C330   O364    1.305   .     A
C331   Cl397   1.773   .     S
C331   C333    1.416   .     A
C331   C339    1.419   .     A
C332   C340    1.419   .     A
C332   Cl398   1.773   .     S
C332   C334    1.416   .     A
C333   N361    1.376   .     A
C333   Cl399   1.763   .     S
C334   Cl400   1.763   .     S
C334   N362    1.376   .     A
C335   N361    1.382   .     A
C335   C401    1.506   .     S
C335   C337    1.413   .     A
C336   N362    1.382   .     A
C336   C405    1.506   .     S
C336   C338    1.413   .     A
C337   C339    1.407   .     A
C337   Cl409   1.774   .     S
C338   Cl410   1.774   .     S
C338   C340    1.407   .     A
C339   C832    1.543   1_554 S
C340   C831    1.543   .     S
C341   O369    1.299   .     A
C341   C343    1.439   .     S
C341   O367    1.281   .     A
C342   O370    1.299   .     A
C342   C344    1.439   .     S
C342   O368    1.281   .     A
C344   C425    1.362   .     S
C344   C457    1.519   .     S
C345   Cl379   1.778   .     S
C345   C355    1.414   .     A
C345   C347    1.414   .     A
C346   Cl380   1.778   .     S
C346   C348    1.414   .     A
C346   C356    1.414   .     A
C347   C381    1.519   .     S
C347   C349    1.433   .     A
C348   C350    1.433   .     A
C348   C385    1.519   .     S
C349   C351    1.426   .     A
C350   C352    1.426   .     A
C351   C353    1.393   .     A
C351   C389    1.512   .     S
C352   C354    1.393   .     A
C352   C393    1.512   .     S
C353   H359    1.079   .     S
C353   C355    1.397   .     A
C354   H360    1.079   .     S
C354   C356    1.397   .     A
C356   C109    1.508   1_565 S
Cu357  O370    1.965   .     S
Cu357  O366    1.962   .     S
Cu357  O367    1.965   .     S
Cu357  N362    2.021   .     S
Cu357  Cu358   2.691   .     S
Cu357  O363    1.960   .     S
Cu358  O369    1.965   .     S
Cu358  O365    1.962   .     S
Cu358  O368    1.965   .     S
Cu358  N361    2.021   .     S
Cu358  O364    1.960   .     S
C371   H372    1.111   .     S
C371   H374    1.110   .     S
C371   C425    1.519   .     S
C371   H455    1.108   .     S
C375   H377    1.110   .     S
C375   H376    1.111   .     S
H378   C457    1.108   .     S
C381   H384    1.105   .     S
C381   H383    1.107   .     S
C381   H382    1.111   .     S
C385   H387    1.105   .     S
C385   H388    1.107   .     S
C385   H386    1.111   .     S
C389   H391    1.111   .     S
C389   H392    1.105   .     S
C389   H390    1.110   .     S
C393   H395    1.105   .     S
C393   H396    1.110   .     S
C393   H394    1.111   .     S
C401   H402    1.099   .     S
C401   H403    1.108   .     S
C401   H404    1.109   .     S
C405   H406    1.099   .     S
C405   H407    1.109   .     S
C405   H408    1.108   .     S
C411   C431    1.496   .     S
C411   O447    1.306   .     A
C411   O445    1.305   .     A
C412   C432    1.496   .     S
C412   O448    1.306   .     A
C412   O446    1.305   .     A
C413   Cl479   1.773   .     S
C413   C415    1.416   .     A
C413   C421    1.419   .     A
C414   C422    1.419   .     A
C414   Cl480   1.773   .     S
C414   C416    1.416   .     A
C415   N443    1.376   .     A
C415   Cl481   1.763   .     S
C416   Cl482   1.763   .     S
C416   N444    1.376   .     A
C417   N443    1.382   .     A
C417   C483    1.506   .     S
C417   C419    1.413   .     A
C418   N444    1.382   .     A
C418   C487    1.506   .     S
C418   C420    1.413   .     A
C419   C421    1.407   .     A
C419   Cl491   1.774   .     S
C420   Cl492   1.774   .     S
C420   C422    1.407   .     A
C421   C914    1.543   1_554 S
C422   C913    1.543   .     S
C423   O451    1.299   .     A
C423   C425    1.439   .     S
C423   O449    1.281   .     A
C424   O452    1.299   .     A
C424   C426    1.439   .     S
C424   O450    1.281   .     A
C426   C261    1.362   1_655 S
C426   C293    1.519   1_655 S
C427   Cl461   1.778   .     S
C427   C437    1.414   .     A
C427   C429    1.414   .     A
C428   Cl462   1.778   .     S
C428   C430    1.414   .     A
C428   C438    1.414   .     A
C429   C463    1.519   .     S
C429   C431    1.433   .     A
C430   C432    1.433   .     A
C430   C467    1.519   .     S
C431   C433    1.426   .     A
C432   C434    1.426   .     A
C433   C435    1.393   .     A
C433   C471    1.512   .     S
C434   C436    1.393   .     A
C434   C475    1.512   .     S
C435   H441    1.079   .     S
C435   C437    1.397   .     A
C436   H442    1.079   .     S
C436   C438    1.397   .     A
C438   C191    1.508   1_565 S
Cu439  O452    1.965   .     S
Cu439  O448    1.962   .     S
Cu439  O449    1.965   .     S
Cu439  N444    2.021   .     S
Cu439  Cu440   2.691   .     S
Cu439  O445    1.960   .     S
Cu440  O451    1.965   .     S
Cu440  O447    1.962   .     S
Cu440  O450    1.965   .     S
Cu440  N443    2.021   .     S
Cu440  O446    1.960   .     S
C453   H454    1.111   .     S
C453   H456    1.110   .     S
C453   C261    1.519   1_655 S
C453   H291    1.108   1_655 S
C457   H459    1.110   .     S
C457   H458    1.111   .     S
H460   C293    1.108   1_655 S
C463   H466    1.105   .     S
C463   H465    1.107   .     S
C463   H464    1.111   .     S
C467   H469    1.105   .     S
C467   H470    1.107   .     S
C467   H468    1.111   .     S
C471   H473    1.111   .     S
C471   H474    1.105   .     S
C471   H472    1.110   .     S
C475   H477    1.105   .     S
C475   H478    1.110   .     S
C475   H476    1.111   .     S
C483   H484    1.099   .     S
C483   H485    1.108   .     S
C483   H486    1.109   .     S
C487   H488    1.099   .     S
C487   H489    1.109   .     S
C487   H490    1.108   .     S
C493   C513    1.496   .     S
C493   O529    1.306   .     A
C493   O527    1.305   .     A
C494   C514    1.496   .     S
C494   O530    1.306   .     A
C494   O528    1.305   .     A
C495   Cl561   1.773   .     S
C495   C497    1.416   .     A
C495   C503    1.419   .     A
C496   C504    1.419   .     A
C496   Cl562   1.773   .     S
C496   C498    1.416   .     A
C497   N525    1.376   .     A
C497   Cl563   1.763   .     S
C498   Cl564   1.763   .     S
C498   N526    1.376   .     A
C499   N525    1.382   .     A
C499   C565    1.506   .     S
C499   C501    1.413   .     A
C500   N526    1.382   .     A
C500   C569    1.506   .     S
C500   C502    1.413   .     A
C501   C503    1.407   .     A
C501   Cl573   1.774   .     S
C502   Cl574   1.774   .     S
C502   C504    1.407   .     A
C504   C11     1.543   1_556 S
C505   O533    1.299   .     A
C505   C507    1.439   .     S
C505   O531    1.281   .     A
C506   O534    1.299   .     A
C506   C508    1.439   .     S
C506   O532    1.281   .     A
C507   C672    1.362   1_455 S
C507   C699    1.519   1_455 S
C508   C589    1.362   .     S
C508   C621    1.519   .     S
C509   Cl543   1.778   .     S
C509   C519    1.414   .     A
C509   C511    1.414   .     A
C510   Cl544   1.778   .     S
C510   C512    1.414   .     A
C510   C520    1.414   .     A
C511   C545    1.519   .     S
C511   C513    1.433   .     A
C512   C514    1.433   .     A
C512   C549    1.519   .     S
C513   C515    1.426   .     A
C514   C516    1.426   .     A
C515   C517    1.393   .     A
C515   C553    1.512   .     S
C516   C518    1.393   .     A
C516   C557    1.512   .     S
C517   H523    1.079   .     S
C517   C519    1.397   .     A
C518   H524    1.079   .     S
C518   C520    1.397   .     A
C519   C766    1.508   1_545 S
C520   C765    1.508   .     S
Cu521  O534    1.965   .     S
Cu521  O530    1.962   .     S
Cu521  O531    1.965   .     S
Cu521  N526    2.021   .     S
Cu521  Cu522   2.691   .     S
Cu521  O527    1.960   .     S
Cu522  O533    1.965   .     S
Cu522  O529    1.962   .     S
Cu522  O532    1.965   .     S
Cu522  N525    2.021   .     S
Cu522  O528    1.960   .     S
C535   H536    1.111   .     S
C535   H538    1.110   .     S
C535   C589    1.519   .     S
C535   H619    1.108   .     S
H537   C699    1.108   1_455 S
C539   H541    1.110   .     S
C539   H540    1.111   .     S
C539   C672    1.519   1_455 S
C539   H706    1.108   1_455 S
H542   C621    1.108   .     S
C545   H548    1.105   .     S
C545   H547    1.107   .     S
C545   H546    1.111   .     S
C549   H551    1.105   .     S
C549   H552    1.107   .     S
C549   H550    1.111   .     S
C553   H555    1.111   .     S
C553   H556    1.105   .     S
C553   H554    1.110   .     S
C557   H559    1.105   .     S
C557   H560    1.110   .     S
C557   H558    1.111   .     S
C565   H566    1.099   .     S
C565   H567    1.108   .     S
C565   H568    1.109   .     S
C569   H570    1.099   .     S
C569   H571    1.109   .     S
C569   H572    1.108   .     S
C575   C595    1.496   .     S
C575   O611    1.306   .     A
C575   O609    1.305   .     A
C576   C596    1.496   .     S
C576   O612    1.306   .     A
C576   O610    1.305   .     A
C577   Cl643   1.773   .     S
C577   C579    1.416   .     A
C577   C585    1.419   .     A
C578   C586    1.419   .     A
C578   Cl644   1.773   .     S
C578   C580    1.416   .     A
C579   N607    1.376   .     A
C579   Cl645   1.763   .     S
C580   Cl646   1.763   .     S
C580   N608    1.376   .     A
C581   N607    1.382   .     A
C581   C647    1.506   .     S
C581   C583    1.413   .     A
C582   N608    1.382   .     A
C582   C651    1.506   .     S
C582   C584    1.413   .     A
C583   C585    1.407   .     A
C583   Cl655   1.774   .     S
C584   Cl656   1.774   .     S
C584   C586    1.407   .     A
C586   C93     1.543   1_556 S
C587   O615    1.299   .     A
C587   C589    1.439   .     S
C587   O613    1.281   .     A
C588   O616    1.299   .     A
C588   C590    1.439   .     S
C588   O614    1.281   .     A
C590   C671    1.362   .     S
C590   C703    1.519   .     S
C591   Cl625   1.778   .     S
C591   C601    1.414   .     A
C591   C593    1.414   .     A
C592   Cl626   1.778   .     S
C592   C594    1.414   .     A
C592   C602    1.414   .     A
C593   C627    1.519   .     S
C593   C595    1.433   .     A
C594   C596    1.433   .     A
C594   C631    1.519   .     S
C595   C597    1.426   .     A
C596   C598    1.426   .     A
C597   C599    1.393   .     A
C597   C635    1.512   .     S
C598   C600    1.393   .     A
C598   C639    1.512   .     S
C599   H605    1.079   .     S
C599   C601    1.397   .     A
C600   H606    1.079   .     S
C600   C602    1.397   .     A
C601   C848    1.508   1_545 S
C602   C847    1.508   .     S
Cu603  O616    1.965   .     S
Cu603  O612    1.962   .     S
Cu603  O613    1.965   .     S
Cu603  N608    2.021   .     S
Cu603  Cu604   2.691   .     S
Cu603  O609    1.960   .     S
Cu604  O615    1.965   .     S
Cu604  O611    1.962   .     S
Cu604  O614    1.965   .     S
Cu604  N607    2.021   .     S
Cu604  O610    1.960   .     S
C617   H618    1.111   .     S
C617   H620    1.110   .     S
C617   C671    1.519   .     S
C617   H701    1.108   .     S
C621   H623    1.110   .     S
C621   H622    1.111   .     S
H624   C703    1.108   .     S
C627   H630    1.105   .     S
C627   H629    1.107   .     S
C627   H628    1.111   .     S
C631   H633    1.105   .     S
C631   H634    1.107   .     S
C631   H632    1.111   .     S
C635   H637    1.111   .     S
C635   H638    1.105   .     S
C635   H636    1.110   .     S
C639   H641    1.105   .     S
C639   H642    1.110   .     S
C639   H640    1.111   .     S
C647   H648    1.099   .     S
C647   H649    1.108   .     S
C647   H650    1.109   .     S
C651   H652    1.099   .     S
C651   H653    1.109   .     S
C651   H654    1.108   .     S
C657   C677    1.496   .     S
C657   O693    1.306   .     A
C657   O691    1.305   .     A
C658   C678    1.496   .     S
C658   O694    1.306   .     A
C658   O692    1.305   .     A
C659   Cl725   1.773   .     S
C659   C661    1.416   .     A
C659   C667    1.419   .     A
C660   C668    1.419   .     A
C660   Cl726   1.773   .     S
C660   C662    1.416   .     A
C661   N689    1.376   .     A
C661   Cl727   1.763   .     S
C662   Cl728   1.763   .     S
C662   N690    1.376   .     A
C663   N689    1.382   .     A
C663   C729    1.506   .     S
C663   C665    1.413   .     A
C664   N690    1.382   .     A
C664   C733    1.506   .     S
C664   C666    1.413   .     A
C665   C667    1.407   .     A
C665   Cl737   1.774   .     S
C666   Cl738   1.774   .     S
C666   C668    1.407   .     A
C668   C175    1.543   1_556 S
C669   O697    1.299   .     A
C669   C671    1.439   .     S
C669   O695    1.281   .     A
C670   O698    1.299   .     A
C670   C672    1.439   .     S
C670   O696    1.281   .     A
C672   C507    1.362   1_655 S
C672   C539    1.519   1_655 S
C673   Cl707   1.778   .     S
C673   C683    1.414   .     A
C673   C675    1.414   .     A
C674   Cl708   1.778   .     S
C674   C676    1.414   .     A
C674   C684    1.414   .     A
C675   C709    1.519   .     S
C675   C677    1.433   .     A
C676   C678    1.433   .     A
C676   C713    1.519   .     S
C677   C679    1.426   .     A
C678   C680    1.426   .     A
C679   C681    1.393   .     A
C679   C717    1.512   .     S
C680   C682    1.393   .     A
C680   C721    1.512   .     S
C681   H687    1.079   .     S
C681   C683    1.397   .     A
C682   H688    1.079   .     S
C682   C684    1.397   .     A
C683   C930    1.508   1_545 S
C684   C929    1.508   .     S
Cu685  O698    1.965   .     S
Cu685  O694    1.962   .     S
Cu685  O695    1.965   .     S
Cu685  N690    2.021   .     S
Cu685  Cu686   2.691   .     S
Cu685  O691    1.960   .     S
Cu686  O697    1.965   .     S
Cu686  O693    1.962   .     S
Cu686  O696    1.965   .     S
Cu686  N689    2.021   .     S
Cu686  O692    1.960   .     S
C699   H700    1.111   .     S
C699   H702    1.110   .     S
C699   C507    1.519   1_655 S
C699   H537    1.108   1_655 S
C703   H705    1.110   .     S
C703   H704    1.111   .     S
H706   C539    1.108   1_655 S
C709   H712    1.105   .     S
C709   H711    1.107   .     S
C709   H710    1.111   .     S
C713   H715    1.105   .     S
C713   H716    1.107   .     S
C713   H714    1.111   .     S
C717   H719    1.111   .     S
C717   H720    1.105   .     S
C717   H718    1.110   .     S
C721   H723    1.105   .     S
C721   H724    1.110   .     S
C721   H722    1.111   .     S
C729   H730    1.099   .     S
C729   H731    1.108   .     S
C729   H732    1.109   .     S
C733   H734    1.099   .     S
C733   H735    1.109   .     S
C733   H736    1.108   .     S
C739   C759    1.496   .     S
C739   O775    1.306   .     A
C739   O773    1.305   .     A
C740   C760    1.496   .     S
C740   O776    1.306   .     A
C740   O774    1.305   .     A
C741   Cl807   1.773   .     S
C741   C743    1.416   .     A
C741   C749    1.419   .     A
C742   C750    1.419   .     A
C742   Cl808   1.773   .     S
C742   C744    1.416   .     A
C743   N771    1.376   .     A
C743   Cl809   1.763   .     S
C744   Cl810   1.763   .     S
C744   N772    1.376   .     A
C745   N771    1.382   .     A
C745   C811    1.506   .     S
C745   C747    1.413   .     A
C746   N772    1.382   .     A
C746   C815    1.506   .     S
C746   C748    1.413   .     A
C747   C749    1.407   .     A
C747   Cl819   1.774   .     S
C748   Cl820   1.774   .     S
C748   C750    1.407   .     A
C750   C257    1.543   1_556 S
C751   O779    1.299   .     A
C751   C753    1.439   .     S
C751   O777    1.281   .     A
C752   O780    1.299   .     A
C752   C754    1.439   .     S
C752   O778    1.281   .     A
C753   C918    1.362   1_455 S
C753   C945    1.519   1_455 S
C754   C835    1.362   .     S
C754   C867    1.519   .     S
C755   Cl789   1.778   .     S
C755   C765    1.414   .     A
C755   C757    1.414   .     A
C756   Cl790   1.778   .     S
C756   C758    1.414   .     A
C756   C766    1.414   .     A
C757   C791    1.519   .     S
C757   C759    1.433   .     A
C758   C760    1.433   .     A
C758   C795    1.519   .     S
C759   C761    1.426   .     A
C760   C762    1.426   .     A
C761   C763    1.393   .     A
C761   C799    1.512   .     S
C762   C764    1.393   .     A
C762   C803    1.512   .     S
C763   H769    1.079   .     S
C763   C765    1.397   .     A
C764   H770    1.079   .     S
C764   C766    1.397   .     A
C766   C519    1.508   1_565 S
Cu767  O780    1.965   .     S
Cu767  O776    1.962   .     S
Cu767  O777    1.965   .     S
Cu767  N772    2.021   .     S
Cu767  Cu768   2.691   .     S
Cu767  O773    1.960   .     S
Cu768  O779    1.965   .     S
Cu768  O775    1.962   .     S
Cu768  O778    1.965   .     S
Cu768  N771    2.021   .     S
Cu768  O774    1.960   .     S
C781   H782    1.111   .     S
C781   H784    1.110   .     S
C781   C835    1.519   .     S
C781   H865    1.108   .     S
H783   C945    1.108   1_455 S
C785   H787    1.110   .     S
C785   H786    1.111   .     S
C785   C918    1.519   1_455 S
C785   H952    1.108   1_455 S
H788   C867    1.108   .     S
C791   H794    1.105   .     S
C791   H793    1.107   .     S
C791   H792    1.111   .     S
C795   H797    1.105   .     S
C795   H798    1.107   .     S
C795   H796    1.111   .     S
C799   H801    1.111   .     S
C799   H802    1.105   .     S
C799   H800    1.110   .     S
C803   H805    1.105   .     S
C803   H806    1.110   .     S
C803   H804    1.111   .     S
C811   H812    1.099   .     S
C811   H813    1.108   .     S
C811   H814    1.109   .     S
C815   H816    1.099   .     S
C815   H817    1.109   .     S
C815   H818    1.108   .     S
C821   C841    1.496   .     S
C821   O857    1.306   .     A
C821   O855    1.305   .     A
C822   C842    1.496   .     S
C822   O858    1.306   .     A
C822   O856    1.305   .     A
C823   Cl889   1.773   .     S
C823   C825    1.416   .     A
C823   C831    1.419   .     A
C824   C832    1.419   .     A
C824   Cl890   1.773   .     S
C824   C826    1.416   .     A
C825   N853    1.376   .     A
C825   Cl891   1.763   .     S
C826   Cl892   1.763   .     S
C826   N854    1.376   .     A
C827   N853    1.382   .     A
C827   C893    1.506   .     S
C827   C829    1.413   .     A
C828   N854    1.382   .     A
C828   C897    1.506   .     S
C828   C830    1.413   .     A
C829   C831    1.407   .     A
C829   Cl901   1.774   .     S
C830   Cl902   1.774   .     S
C830   C832    1.407   .     A
C832   C339    1.543   1_556 S
C833   O861    1.299   .     A
C833   C835    1.439   .     S
C833   O859    1.281   .     A
C834   O862    1.299   .     A
C834   C836    1.439   .     S
C834   O860    1.281   .     A
C836   C917    1.362   .     S
C836   C949    1.519   .     S
C837   Cl871   1.778   .     S
C837   C847    1.414   .     A
C837   C839    1.414   .     A
C838   Cl872   1.778   .     S
C838   C840    1.414   .     A
C838   C848    1.414   .     A
C839   C873    1.519   .     S
C839   C841    1.433   .     A
C840   C842    1.433   .     A
C840   C877    1.519   .     S
C841   C843    1.426   .     A
C842   C844    1.426   .     A
C843   C845    1.393   .     A
C843   C881    1.512   .     S
C844   C846    1.393   .     A
C844   C885    1.512   .     S
C845   H851    1.079   .     S
C845   C847    1.397   .     A
C846   H852    1.079   .     S
C846   C848    1.397   .     A
C848   C601    1.508   1_565 S
Cu849  O862    1.965   .     S
Cu849  O858    1.962   .     S
Cu849  O859    1.965   .     S
Cu849  N854    2.021   .     S
Cu849  Cu850   2.691   .     S
Cu849  O855    1.960   .     S
Cu850  O861    1.965   .     S
Cu850  O857    1.962   .     S
Cu850  O860    1.965   .     S
Cu850  N853    2.021   .     S
Cu850  O856    1.960   .     S
C863   H864    1.111   .     S
C863   H866    1.110   .     S
C863   C917    1.519   .     S
C863   H947    1.108   .     S
C867   H869    1.110   .     S
C867   H868    1.111   .     S
H870   C949    1.108   .     S
C873   H876    1.105   .     S
C873   H875    1.107   .     S
C873   H874    1.111   .     S
C877   H879    1.105   .     S
C877   H880    1.107   .     S
C877   H878    1.111   .     S
C881   H883    1.111   .     S
C881   H884    1.105   .     S
C881   H882    1.110   .     S
C885   H887    1.105   .     S
C885   H888    1.110   .     S
C885   H886    1.111   .     S
C893   H894    1.099   .     S
C893   H895    1.108   .     S
C893   H896    1.109   .     S
C897   H898    1.099   .     S
C897   H899    1.109   .     S
C897   H900    1.108   .     S
C903   C923    1.496   .     S
C903   O939    1.306   .     A
C903   O937    1.305   .     A
C904   C924    1.496   .     S
C904   O940    1.306   .     A
C904   O938    1.305   .     A
C905   Cl971   1.773   .     S
C905   C907    1.416   .     A
C905   C913    1.419   .     A
C906   C914    1.419   .     A
C906   Cl972   1.773   .     S
C906   C908    1.416   .     A
C907   N935    1.376   .     A
C907   Cl973   1.763   .     S
C908   Cl974   1.763   .     S
C908   N936    1.376   .     A
C909   N935    1.382   .     A
C909   C975    1.506   .     S
C909   C911    1.413   .     A
C910   N936    1.382   .     A
C910   C979    1.506   .     S
C910   C912    1.413   .     A
C911   C913    1.407   .     A
C911   Cl983   1.774   .     S
C912   Cl984   1.774   .     S
C912   C914    1.407   .     A
C914   C421    1.543   1_556 S
C915   O943    1.299   .     A
C915   C917    1.439   .     S
C915   O941    1.281   .     A
C916   O944    1.299   .     A
C916   C918    1.439   .     S
C916   O942    1.281   .     A
C918   C753    1.362   1_655 S
C918   C785    1.519   1_655 S
C919   Cl953   1.778   .     S
C919   C929    1.414   .     A
C919   C921    1.414   .     A
C920   Cl954   1.778   .     S
C920   C922    1.414   .     A
C920   C930    1.414   .     A
C921   C955    1.519   .     S
C921   C923    1.433   .     A
C922   C924    1.433   .     A
C922   C959    1.519   .     S
C923   C925    1.426   .     A
C924   C926    1.426   .     A
C925   C927    1.393   .     A
C925   C963    1.512   .     S
C926   C928    1.393   .     A
C926   C967    1.512   .     S
C927   H933    1.079   .     S
C927   C929    1.397   .     A
C928   H934    1.079   .     S
C928   C930    1.397   .     A
C930   C683    1.508   1_565 S
Cu931  O944    1.965   .     S
Cu931  O940    1.962   .     S
Cu931  O941    1.965   .     S
Cu931  N936    2.021   .     S
Cu931  Cu932   2.691   .     S
Cu931  O937    1.960   .     S
Cu932  O943    1.965   .     S
Cu932  O939    1.962   .     S
Cu932  O942    1.965   .     S
Cu932  N935    2.021   .     S
Cu932  O938    1.960   .     S
C945   H946    1.111   .     S
C945   H948    1.110   .     S
C945   C753    1.519   1_655 S
C945   H783    1.108   1_655 S
C949   H951    1.110   .     S
C949   H950    1.111   .     S
H952   C785    1.108   1_655 S
C955   H958    1.105   .     S
C955   H957    1.107   .     S
C955   H956    1.111   .     S
C959   H961    1.105   .     S
C959   H962    1.107   .     S
C959   H960    1.111   .     S
C963   H965    1.111   .     S
C963   H966    1.105   .     S
C963   H964    1.110   .     S
C967   H969    1.105   .     S
C967   H970    1.110   .     S
C967   H968    1.111   .     S
C975   H976    1.099   .     S
C975   H977    1.108   .     S
C975   H978    1.109   .     S
C979   H980    1.099   .     S
C979   H981    1.109   .     S
C979   H982    1.108   .     S
