data_str_m2_o1_o1_pcu_sym.12
_audit_creation_date              2020-01-03
_audit_creation_method            'Materials Studio'
_symmetry_space_group_name_H-M    'P1'
_symmetry_Int_Tables_number       1
_symmetry_cell_setting            triclinic
loop_
_symmetry_equiv_pos_as_xyz
  x,y,z
_cell_length_a                    31.6149
_cell_length_b                    29.9796
_cell_length_c                    28.6496
_cell_angle_alpha                 90.0000
_cell_angle_beta                  90.0000
_cell_angle_gamma                 90.0000
loop_
_atom_site_label
_atom_site_type_symbol
_atom_site_fract_x
_atom_site_fract_y
_atom_site_fract_z
_atom_site_U_iso_or_equiv
_atom_site_adp_type
_atom_site_occupancy
Br1    Br    0.39092   0.17696   0.06578   0.00000  Uiso   1.00
Br2    Br    0.35908   0.07304   0.26755   0.00000  Uiso   1.00
Br3    Br    0.35908   0.07303   0.06578   0.00000  Uiso   1.00
Br4    Br    0.14092   0.42697   0.26755   0.00000  Uiso   1.00
Br5    Br    0.35908   0.42697   0.26755   0.00000  Uiso   1.00
Br6    Br    0.14092   0.07303   0.06578   0.00000  Uiso   1.00
Br7    Br    0.14092   0.07304   0.26755   0.00000  Uiso   1.00
Br8    Br    0.35908   0.42697   0.06578   0.00000  Uiso   1.00
Br9    Br    0.10908   0.32304   0.26755   0.00000  Uiso   1.00
Br10   Br    0.10908   0.32303   0.06578   0.00000  Uiso   1.00
Br11   Br    0.39092   0.17697   0.26755   0.00000  Uiso   1.00
Br12   Br    0.10908   0.17697   0.26755   0.00000  Uiso   1.00
Br13   Br    0.39092   0.32303   0.06578   0.00000  Uiso   1.00
Br14   Br    0.39092   0.32304   0.26755   0.00000  Uiso   1.00
Br15   Br    0.10908   0.17697   0.06578   0.00000  Uiso   1.00
Br16   Br    0.14092   0.42696   0.06578   0.00000  Uiso   1.00
C17    C     0.06185   0.19324   0.16667   0.00000  Uiso   1.00
C18    C    -0.00000   0.28930   0.30859   0.00000  Uiso   1.00
C19    C    -0.00000   0.28930   0.02474   0.00000  Uiso   1.00
C20    C     0.00000   0.21070   0.30859   0.00000  Uiso   1.00
C21    C     0.25000   0.46070   0.02474   0.00000  Uiso   1.00
C22    C     0.25000   0.03930   0.30859   0.00000  Uiso   1.00
C23    C     0.25000   0.03930   0.02474   0.00000  Uiso   1.00
C24    C     0.25000   0.46070   0.30859   0.00000  Uiso   1.00
C25    C     0.38700   0.14446   0.12408   0.00000  Uiso   1.00
C26    C     0.11300   0.35554   0.20925   0.00000  Uiso   1.00
C27    C     0.11300   0.35554   0.12408   0.00000  Uiso   1.00
C28    C     0.43815   0.30676   0.16667   0.00000  Uiso   1.00
C29    C     0.38700   0.14446   0.20925   0.00000  Uiso   1.00
C30    C     0.11300   0.14446   0.20925   0.00000  Uiso   1.00
C31    C     0.38700   0.35554   0.12408   0.00000  Uiso   1.00
C32    C     0.38700   0.35554   0.20925   0.00000  Uiso   1.00
C33    C     0.11300   0.14446   0.12408   0.00000  Uiso   1.00
C34    C     0.13700   0.39446   0.12408   0.00000  Uiso   1.00
C35    C     0.36300   0.10554   0.20925   0.00000  Uiso   1.00
C36    C     0.36300   0.10554   0.12408   0.00000  Uiso   1.00
C37    C     0.13700   0.39446   0.20925   0.00000  Uiso   1.00
C38    C     0.36300   0.39446   0.20925   0.00000  Uiso   1.00
C39    C     0.43815   0.19324   0.16667   0.00000  Uiso   1.00
C40    C     0.13700   0.10554   0.12408   0.00000  Uiso   1.00
C41    C     0.13700   0.10554   0.20925   0.00000  Uiso   1.00
C42    C     0.36300   0.39446   0.12408   0.00000  Uiso   1.00
C43    C     0.09755   0.33824   0.16667   0.00000  Uiso   1.00
C44    C     0.40245   0.16176   0.16667   0.00000  Uiso   1.00
C45    C     0.40245   0.33824   0.16667   0.00000  Uiso   1.00
C46    C     0.09755   0.16176   0.16667   0.00000  Uiso   1.00
C47    C     0.34755   0.08824   0.16667   0.00000  Uiso   1.00
C48    C     0.15245   0.41176   0.16667   0.00000  Uiso   1.00
C49    C     0.15245   0.08824   0.16667   0.00000  Uiso   1.00
C50    C     0.06185   0.30676   0.16667   0.00000  Uiso   1.00
C51    C     0.34755   0.41176   0.16667   0.00000  Uiso   1.00
C52    C     0.31185   0.44324   0.16667   0.00000  Uiso   1.00
C53    C     0.18815   0.05676   0.16667   0.00000  Uiso   1.00
C54    C     0.18815   0.44324   0.16667   0.00000  Uiso   1.00
C55    C     0.31185   0.05676   0.16667   0.00000  Uiso   1.00
C56    C     0.00000   0.21070   0.02474   0.00000  Uiso   1.00
Cl57   Cl    0.00000   0.15901   0.05414   0.00000  Uiso   1.00
Cl58   Cl   -0.00000   0.34099   0.27920   0.00000  Uiso   1.00
Cl59   Cl   -0.00000   0.34099   0.05414   0.00000  Uiso   1.00
Cl60   Cl    0.00000   0.15901   0.27920   0.00000  Uiso   1.00
Cl61   Cl    0.25000   0.40901   0.05414   0.00000  Uiso   1.00
Cl62   Cl    0.25000   0.09099   0.27920   0.00000  Uiso   1.00
Cl63   Cl    0.25000   0.09099   0.05414   0.00000  Uiso   1.00
Cl64   Cl    0.25000   0.40901   0.27920   0.00000  Uiso   1.00
Cu65   Cu    0.00000   0.25000   0.21355   0.00000  Uiso   1.00
Cu66   Cu    0.00000   0.25000   0.11978   0.00000  Uiso   1.00
Cu67   Cu    0.25000   0.00000   0.21355   0.00000  Uiso   1.00
Cu68   Cu    0.25000   0.00000   0.11978   0.00000  Uiso   1.00
N69    N     0.00000   0.25000   0.28402   0.00000  Uiso   1.00
N70    N    -0.00000   0.25000   0.04931   0.00000  Uiso   1.00
N71    N     0.25000   0.00000   0.28402   0.00000  Uiso   1.00
N72    N     0.25000   0.00000   0.04931   0.00000  Uiso   1.00
O73    O     0.04508   0.20491   0.20625   0.00000  Uiso   1.00
O74    O     0.20491   0.04509   0.12709   0.00000  Uiso   1.00
O75    O     0.20491   0.04509   0.20625   0.00000  Uiso   1.00
O76    O     0.29508   0.45491   0.12709   0.00000  Uiso   1.00
O77    O     0.20491   0.45491   0.12709   0.00000  Uiso   1.00
O78    O     0.29508   0.04509   0.20625   0.00000  Uiso   1.00
O79    O     0.29508   0.04509   0.12709   0.00000  Uiso   1.00
O80    O     0.20491   0.45491   0.20625   0.00000  Uiso   1.00
O81    O     0.45491   0.29509   0.12709   0.00000  Uiso   1.00
O82    O     0.45491   0.29509   0.20625   0.00000  Uiso   1.00
O83    O     0.04508   0.20491   0.12709   0.00000  Uiso   1.00
O84    O     0.45491   0.20491   0.12709   0.00000  Uiso   1.00
O85    O     0.04508   0.29509   0.20625   0.00000  Uiso   1.00
O86    O     0.04508   0.29509   0.12709   0.00000  Uiso   1.00
O87    O     0.45491   0.20491   0.20625   0.00000  Uiso   1.00
O88    O     0.29508   0.45491   0.20625   0.00000  Uiso   1.00
Br89   Br    0.89092   0.17696   0.06578   0.00000  Uiso   1.00
Br90   Br    0.85908   0.07304   0.26755   0.00000  Uiso   1.00
Br91   Br    0.85908   0.07303   0.06578   0.00000  Uiso   1.00
Br92   Br    0.64092   0.42697   0.26755   0.00000  Uiso   1.00
Br93   Br    0.85908   0.42697   0.26755   0.00000  Uiso   1.00
Br94   Br    0.64092   0.07303   0.06578   0.00000  Uiso   1.00
Br95   Br    0.64092   0.07304   0.26755   0.00000  Uiso   1.00
Br96   Br    0.85908   0.42697   0.06578   0.00000  Uiso   1.00
Br97   Br    0.60908   0.32304   0.26755   0.00000  Uiso   1.00
Br98   Br    0.60908   0.32303   0.06578   0.00000  Uiso   1.00
Br99   Br    0.89092   0.17697   0.26755   0.00000  Uiso   1.00
Br100  Br    0.60908   0.17697   0.26755   0.00000  Uiso   1.00
Br101  Br    0.89092   0.32303   0.06578   0.00000  Uiso   1.00
Br102  Br    0.89092   0.32304   0.26755   0.00000  Uiso   1.00
Br103  Br    0.60908   0.17697   0.06578   0.00000  Uiso   1.00
Br104  Br    0.64092   0.42696   0.06578   0.00000  Uiso   1.00
C105   C     0.56185   0.19324   0.16667   0.00000  Uiso   1.00
C106   C     0.50000   0.28930   0.30859   0.00000  Uiso   1.00
C107   C     0.50000   0.28930   0.02474   0.00000  Uiso   1.00
C108   C     0.50000   0.21070   0.30859   0.00000  Uiso   1.00
C109   C     0.75000   0.46070   0.02474   0.00000  Uiso   1.00
C110   C     0.75000   0.03930   0.30859   0.00000  Uiso   1.00
C111   C     0.75000   0.03930   0.02474   0.00000  Uiso   1.00
C112   C     0.75000   0.46070   0.30859   0.00000  Uiso   1.00
C113   C     0.88700   0.14446   0.12408   0.00000  Uiso   1.00
C114   C     0.61300   0.35554   0.20925   0.00000  Uiso   1.00
C115   C     0.61300   0.35554   0.12408   0.00000  Uiso   1.00
C116   C     0.93815   0.30676   0.16667   0.00000  Uiso   1.00
C117   C     0.88700   0.14446   0.20925   0.00000  Uiso   1.00
C118   C     0.61300   0.14446   0.20925   0.00000  Uiso   1.00
C119   C     0.88700   0.35554   0.12408   0.00000  Uiso   1.00
C120   C     0.88700   0.35554   0.20925   0.00000  Uiso   1.00
C121   C     0.61300   0.14446   0.12408   0.00000  Uiso   1.00
C122   C     0.63700   0.39446   0.12408   0.00000  Uiso   1.00
C123   C     0.86300   0.10554   0.20925   0.00000  Uiso   1.00
C124   C     0.86300   0.10554   0.12408   0.00000  Uiso   1.00
C125   C     0.63700   0.39446   0.20925   0.00000  Uiso   1.00
C126   C     0.86300   0.39446   0.20925   0.00000  Uiso   1.00
C127   C     0.93815   0.19324   0.16667   0.00000  Uiso   1.00
C128   C     0.63700   0.10554   0.12408   0.00000  Uiso   1.00
C129   C     0.63700   0.10554   0.20925   0.00000  Uiso   1.00
C130   C     0.86300   0.39446   0.12408   0.00000  Uiso   1.00
C131   C     0.59755   0.33824   0.16667   0.00000  Uiso   1.00
C132   C     0.90245   0.16176   0.16667   0.00000  Uiso   1.00
C133   C     0.90245   0.33824   0.16667   0.00000  Uiso   1.00
C134   C     0.59755   0.16176   0.16667   0.00000  Uiso   1.00
C135   C     0.84755   0.08824   0.16667   0.00000  Uiso   1.00
C136   C     0.65245   0.41176   0.16667   0.00000  Uiso   1.00
C137   C     0.65245   0.08824   0.16667   0.00000  Uiso   1.00
C138   C     0.56185   0.30676   0.16667   0.00000  Uiso   1.00
C139   C     0.84755   0.41176   0.16667   0.00000  Uiso   1.00
C140   C     0.81185   0.44324   0.16667   0.00000  Uiso   1.00
C141   C     0.68815   0.05676   0.16667   0.00000  Uiso   1.00
C142   C     0.68815   0.44324   0.16667   0.00000  Uiso   1.00
C143   C     0.81185   0.05676   0.16667   0.00000  Uiso   1.00
C144   C     0.50000   0.21070   0.02474   0.00000  Uiso   1.00
Cl145  Cl    0.50000   0.15901   0.05414   0.00000  Uiso   1.00
Cl146  Cl    0.50000   0.34099   0.27920   0.00000  Uiso   1.00
Cl147  Cl    0.50000   0.34099   0.05414   0.00000  Uiso   1.00
Cl148  Cl    0.50000   0.15901   0.27920   0.00000  Uiso   1.00
Cl149  Cl    0.75000   0.40901   0.05414   0.00000  Uiso   1.00
Cl150  Cl    0.75000   0.09099   0.27920   0.00000  Uiso   1.00
Cl151  Cl    0.75000   0.09099   0.05414   0.00000  Uiso   1.00
Cl152  Cl    0.75000   0.40901   0.27920   0.00000  Uiso   1.00
Cu153  Cu    0.50000   0.25000   0.21355   0.00000  Uiso   1.00
Cu154  Cu    0.50000   0.25000   0.11978   0.00000  Uiso   1.00
Cu155  Cu    0.75000   0.00000   0.21355   0.00000  Uiso   1.00
Cu156  Cu    0.75000   0.00000   0.11978   0.00000  Uiso   1.00
N157   N     0.50000   0.25000   0.28402   0.00000  Uiso   1.00
N158   N     0.50000   0.25000   0.04931   0.00000  Uiso   1.00
N159   N     0.75000   0.00000   0.28402   0.00000  Uiso   1.00
N160   N     0.75000   0.00000   0.04931   0.00000  Uiso   1.00
O161   O     0.54508   0.20491   0.20625   0.00000  Uiso   1.00
O162   O     0.70491   0.04509   0.12709   0.00000  Uiso   1.00
O163   O     0.70491   0.04509   0.20625   0.00000  Uiso   1.00
O164   O     0.79508   0.45491   0.12709   0.00000  Uiso   1.00
O165   O     0.70491   0.45491   0.12709   0.00000  Uiso   1.00
O166   O     0.79508   0.04509   0.20625   0.00000  Uiso   1.00
O167   O     0.79508   0.04509   0.12709   0.00000  Uiso   1.00
O168   O     0.70491   0.45491   0.20625   0.00000  Uiso   1.00
O169   O     0.95491   0.29509   0.12709   0.00000  Uiso   1.00
O170   O     0.95491   0.29509   0.20625   0.00000  Uiso   1.00
O171   O     0.54508   0.20491   0.12709   0.00000  Uiso   1.00
O172   O     0.95491   0.20491   0.12709   0.00000  Uiso   1.00
O173   O     0.54508   0.29509   0.20625   0.00000  Uiso   1.00
O174   O     0.54508   0.29509   0.12709   0.00000  Uiso   1.00
O175   O     0.95491   0.20491   0.20625   0.00000  Uiso   1.00
O176   O     0.79508   0.45491   0.20625   0.00000  Uiso   1.00
Br177  Br    0.39092   0.67696   0.06578   0.00000  Uiso   1.00
Br178  Br    0.35908   0.57304   0.26755   0.00000  Uiso   1.00
Br179  Br    0.35908   0.57303   0.06578   0.00000  Uiso   1.00
Br180  Br    0.14092   0.92697   0.26755   0.00000  Uiso   1.00
Br181  Br    0.35908   0.92697   0.26755   0.00000  Uiso   1.00
Br182  Br    0.14092   0.57303   0.06578   0.00000  Uiso   1.00
Br183  Br    0.14092   0.57304   0.26755   0.00000  Uiso   1.00
Br184  Br    0.35908   0.92697   0.06578   0.00000  Uiso   1.00
Br185  Br    0.10908   0.82304   0.26755   0.00000  Uiso   1.00
Br186  Br    0.10908   0.82303   0.06578   0.00000  Uiso   1.00
Br187  Br    0.39092   0.67697   0.26755   0.00000  Uiso   1.00
Br188  Br    0.10908   0.67697   0.26755   0.00000  Uiso   1.00
Br189  Br    0.39092   0.82303   0.06578   0.00000  Uiso   1.00
Br190  Br    0.39092   0.82304   0.26755   0.00000  Uiso   1.00
Br191  Br    0.10908   0.67697   0.06578   0.00000  Uiso   1.00
Br192  Br    0.14092   0.92696   0.06578   0.00000  Uiso   1.00
C193   C     0.06185   0.69324   0.16667   0.00000  Uiso   1.00
C194   C    -0.00000   0.78930   0.30859   0.00000  Uiso   1.00
C195   C    -0.00000   0.78930   0.02474   0.00000  Uiso   1.00
C196   C     0.00000   0.71070   0.30859   0.00000  Uiso   1.00
C197   C     0.25000   0.96070   0.02474   0.00000  Uiso   1.00
C198   C     0.25000   0.53930   0.30859   0.00000  Uiso   1.00
C199   C     0.25000   0.53930   0.02474   0.00000  Uiso   1.00
C200   C     0.25000   0.96070   0.30859   0.00000  Uiso   1.00
C201   C     0.38700   0.64446   0.12408   0.00000  Uiso   1.00
C202   C     0.11300   0.85554   0.20925   0.00000  Uiso   1.00
C203   C     0.11300   0.85554   0.12408   0.00000  Uiso   1.00
C204   C     0.43815   0.80676   0.16667   0.00000  Uiso   1.00
C205   C     0.38700   0.64446   0.20925   0.00000  Uiso   1.00
C206   C     0.11300   0.64446   0.20925   0.00000  Uiso   1.00
C207   C     0.38700   0.85554   0.12408   0.00000  Uiso   1.00
C208   C     0.38700   0.85554   0.20925   0.00000  Uiso   1.00
C209   C     0.11300   0.64446   0.12408   0.00000  Uiso   1.00
C210   C     0.13700   0.89446   0.12408   0.00000  Uiso   1.00
C211   C     0.36300   0.60554   0.20925   0.00000  Uiso   1.00
C212   C     0.36300   0.60554   0.12408   0.00000  Uiso   1.00
C213   C     0.13700   0.89446   0.20925   0.00000  Uiso   1.00
C214   C     0.36300   0.89446   0.20925   0.00000  Uiso   1.00
C215   C     0.43815   0.69324   0.16667   0.00000  Uiso   1.00
C216   C     0.13700   0.60554   0.12408   0.00000  Uiso   1.00
C217   C     0.13700   0.60554   0.20925   0.00000  Uiso   1.00
C218   C     0.36300   0.89446   0.12408   0.00000  Uiso   1.00
C219   C     0.09755   0.83824   0.16667   0.00000  Uiso   1.00
C220   C     0.40245   0.66176   0.16667   0.00000  Uiso   1.00
C221   C     0.40245   0.83824   0.16667   0.00000  Uiso   1.00
C222   C     0.09755   0.66176   0.16667   0.00000  Uiso   1.00
C223   C     0.34755   0.58824   0.16667   0.00000  Uiso   1.00
C224   C     0.15245   0.91176   0.16667   0.00000  Uiso   1.00
C225   C     0.15245   0.58824   0.16667   0.00000  Uiso   1.00
C226   C     0.06185   0.80676   0.16667   0.00000  Uiso   1.00
C227   C     0.34755   0.91176   0.16667   0.00000  Uiso   1.00
C228   C     0.31185   0.94324   0.16667   0.00000  Uiso   1.00
C229   C     0.18815   0.55676   0.16667   0.00000  Uiso   1.00
C230   C     0.18815   0.94324   0.16667   0.00000  Uiso   1.00
C231   C     0.31185   0.55676   0.16667   0.00000  Uiso   1.00
C232   C     0.00000   0.71070   0.02474   0.00000  Uiso   1.00
Cl233  Cl    0.00000   0.65901   0.05414   0.00000  Uiso   1.00
Cl234  Cl   -0.00000   0.84099   0.27920   0.00000  Uiso   1.00
Cl235  Cl   -0.00000   0.84099   0.05414   0.00000  Uiso   1.00
Cl236  Cl    0.00000   0.65901   0.27920   0.00000  Uiso   1.00
Cl237  Cl    0.25000   0.90901   0.05414   0.00000  Uiso   1.00
Cl238  Cl    0.25000   0.59099   0.27920   0.00000  Uiso   1.00
Cl239  Cl    0.25000   0.59099   0.05414   0.00000  Uiso   1.00
Cl240  Cl    0.25000   0.90901   0.27920   0.00000  Uiso   1.00
Cu241  Cu    0.00000   0.75000   0.21355   0.00000  Uiso   1.00
Cu242  Cu    0.00000   0.75000   0.11978   0.00000  Uiso   1.00
Cu243  Cu    0.25000   0.50000   0.21355   0.00000  Uiso   1.00
Cu244  Cu    0.25000   0.50000   0.11978   0.00000  Uiso   1.00
N245   N     0.00000   0.75000   0.28402   0.00000  Uiso   1.00
N246   N    -0.00000   0.75000   0.04931   0.00000  Uiso   1.00
N247   N     0.25000   0.50000   0.28402   0.00000  Uiso   1.00
N248   N     0.25000   0.50000   0.04931   0.00000  Uiso   1.00
O249   O     0.04508   0.70491   0.20625   0.00000  Uiso   1.00
O250   O     0.20491   0.54509   0.12709   0.00000  Uiso   1.00
O251   O     0.20491   0.54509   0.20625   0.00000  Uiso   1.00
O252   O     0.29508   0.95491   0.12709   0.00000  Uiso   1.00
O253   O     0.20491   0.95491   0.12709   0.00000  Uiso   1.00
O254   O     0.29508   0.54509   0.20625   0.00000  Uiso   1.00
O255   O     0.29508   0.54509   0.12709   0.00000  Uiso   1.00
O256   O     0.20491   0.95491   0.20625   0.00000  Uiso   1.00
O257   O     0.45491   0.79509   0.12709   0.00000  Uiso   1.00
O258   O     0.45491   0.79509   0.20625   0.00000  Uiso   1.00
O259   O     0.04508   0.70491   0.12709   0.00000  Uiso   1.00
O260   O     0.45491   0.70491   0.12709   0.00000  Uiso   1.00
O261   O     0.04508   0.79509   0.20625   0.00000  Uiso   1.00
O262   O     0.04508   0.79509   0.12709   0.00000  Uiso   1.00
O263   O     0.45491   0.70491   0.20625   0.00000  Uiso   1.00
O264   O     0.29508   0.95491   0.20625   0.00000  Uiso   1.00
Br265  Br    0.89092   0.67696   0.06578   0.00000  Uiso   1.00
Br266  Br    0.85908   0.57304   0.26755   0.00000  Uiso   1.00
Br267  Br    0.85908   0.57303   0.06578   0.00000  Uiso   1.00
Br268  Br    0.64092   0.92697   0.26755   0.00000  Uiso   1.00
Br269  Br    0.85908   0.92697   0.26755   0.00000  Uiso   1.00
Br270  Br    0.64092   0.57303   0.06578   0.00000  Uiso   1.00
Br271  Br    0.64092   0.57304   0.26755   0.00000  Uiso   1.00
Br272  Br    0.85908   0.92697   0.06578   0.00000  Uiso   1.00
Br273  Br    0.60908   0.82304   0.26755   0.00000  Uiso   1.00
Br274  Br    0.60908   0.82303   0.06578   0.00000  Uiso   1.00
Br275  Br    0.89092   0.67697   0.26755   0.00000  Uiso   1.00
Br276  Br    0.60908   0.67697   0.26755   0.00000  Uiso   1.00
Br277  Br    0.89092   0.82303   0.06578   0.00000  Uiso   1.00
Br278  Br    0.89092   0.82304   0.26755   0.00000  Uiso   1.00
Br279  Br    0.60908   0.67697   0.06578   0.00000  Uiso   1.00
Br280  Br    0.64092   0.92696   0.06578   0.00000  Uiso   1.00
C281   C     0.56185   0.69324   0.16667   0.00000  Uiso   1.00
C282   C     0.50000   0.78930   0.30859   0.00000  Uiso   1.00
C283   C     0.50000   0.78930   0.02474   0.00000  Uiso   1.00
C284   C     0.50000   0.71070   0.30859   0.00000  Uiso   1.00
C285   C     0.75000   0.96070   0.02474   0.00000  Uiso   1.00
C286   C     0.75000   0.53930   0.30859   0.00000  Uiso   1.00
C287   C     0.75000   0.53930   0.02474   0.00000  Uiso   1.00
C288   C     0.75000   0.96070   0.30859   0.00000  Uiso   1.00
C289   C     0.88700   0.64446   0.12408   0.00000  Uiso   1.00
C290   C     0.61300   0.85554   0.20925   0.00000  Uiso   1.00
C291   C     0.61300   0.85554   0.12408   0.00000  Uiso   1.00
C292   C     0.93815   0.80676   0.16667   0.00000  Uiso   1.00
C293   C     0.88700   0.64446   0.20925   0.00000  Uiso   1.00
C294   C     0.61300   0.64446   0.20925   0.00000  Uiso   1.00
C295   C     0.88700   0.85554   0.12408   0.00000  Uiso   1.00
C296   C     0.88700   0.85554   0.20925   0.00000  Uiso   1.00
C297   C     0.61300   0.64446   0.12408   0.00000  Uiso   1.00
C298   C     0.63700   0.89446   0.12408   0.00000  Uiso   1.00
C299   C     0.86300   0.60554   0.20925   0.00000  Uiso   1.00
C300   C     0.86300   0.60554   0.12408   0.00000  Uiso   1.00
C301   C     0.63700   0.89446   0.20925   0.00000  Uiso   1.00
C302   C     0.86300   0.89446   0.20925   0.00000  Uiso   1.00
C303   C     0.93815   0.69324   0.16667   0.00000  Uiso   1.00
C304   C     0.63700   0.60554   0.12408   0.00000  Uiso   1.00
C305   C     0.63700   0.60554   0.20925   0.00000  Uiso   1.00
C306   C     0.86300   0.89446   0.12408   0.00000  Uiso   1.00
C307   C     0.59755   0.83824   0.16667   0.00000  Uiso   1.00
C308   C     0.90245   0.66176   0.16667   0.00000  Uiso   1.00
C309   C     0.90245   0.83824   0.16667   0.00000  Uiso   1.00
C310   C     0.59755   0.66176   0.16667   0.00000  Uiso   1.00
C311   C     0.84755   0.58824   0.16667   0.00000  Uiso   1.00
C312   C     0.65245   0.91176   0.16667   0.00000  Uiso   1.00
C313   C     0.65245   0.58824   0.16667   0.00000  Uiso   1.00
C314   C     0.56185   0.80676   0.16667   0.00000  Uiso   1.00
C315   C     0.84755   0.91176   0.16667   0.00000  Uiso   1.00
C316   C     0.81185   0.94324   0.16667   0.00000  Uiso   1.00
C317   C     0.68815   0.55676   0.16667   0.00000  Uiso   1.00
C318   C     0.68815   0.94324   0.16667   0.00000  Uiso   1.00
C319   C     0.81185   0.55676   0.16667   0.00000  Uiso   1.00
C320   C     0.50000   0.71070   0.02474   0.00000  Uiso   1.00
Cl321  Cl    0.50000   0.65901   0.05414   0.00000  Uiso   1.00
Cl322  Cl    0.50000   0.84099   0.27920   0.00000  Uiso   1.00
Cl323  Cl    0.50000   0.84099   0.05414   0.00000  Uiso   1.00
Cl324  Cl    0.50000   0.65901   0.27920   0.00000  Uiso   1.00
Cl325  Cl    0.75000   0.90901   0.05414   0.00000  Uiso   1.00
Cl326  Cl    0.75000   0.59099   0.27920   0.00000  Uiso   1.00
Cl327  Cl    0.75000   0.59099   0.05414   0.00000  Uiso   1.00
Cl328  Cl    0.75000   0.90901   0.27920   0.00000  Uiso   1.00
Cu329  Cu    0.50000   0.75000   0.21355   0.00000  Uiso   1.00
Cu330  Cu    0.50000   0.75000   0.11978   0.00000  Uiso   1.00
Cu331  Cu    0.75000   0.50000   0.21355   0.00000  Uiso   1.00
Cu332  Cu    0.75000   0.50000   0.11978   0.00000  Uiso   1.00
N333   N     0.50000   0.75000   0.28402   0.00000  Uiso   1.00
N334   N     0.50000   0.75000   0.04931   0.00000  Uiso   1.00
N335   N     0.75000   0.50000   0.28402   0.00000  Uiso   1.00
N336   N     0.75000   0.50000   0.04931   0.00000  Uiso   1.00
O337   O     0.54508   0.70491   0.20625   0.00000  Uiso   1.00
O338   O     0.70491   0.54509   0.12709   0.00000  Uiso   1.00
O339   O     0.70491   0.54509   0.20625   0.00000  Uiso   1.00
O340   O     0.79508   0.95491   0.12709   0.00000  Uiso   1.00
O341   O     0.70491   0.95491   0.12709   0.00000  Uiso   1.00
O342   O     0.79508   0.54509   0.20625   0.00000  Uiso   1.00
O343   O     0.79508   0.54509   0.12709   0.00000  Uiso   1.00
O344   O     0.70491   0.95491   0.20625   0.00000  Uiso   1.00
O345   O     0.95491   0.79509   0.12709   0.00000  Uiso   1.00
O346   O     0.95491   0.79509   0.20625   0.00000  Uiso   1.00
O347   O     0.54508   0.70491   0.12709   0.00000  Uiso   1.00
O348   O     0.95491   0.70491   0.12709   0.00000  Uiso   1.00
O349   O     0.54508   0.79509   0.20625   0.00000  Uiso   1.00
O350   O     0.54508   0.79509   0.12709   0.00000  Uiso   1.00
O351   O     0.95491   0.70491   0.20625   0.00000  Uiso   1.00
O352   O     0.79508   0.95491   0.20625   0.00000  Uiso   1.00
Br353  Br    0.39092   0.17696   0.39912   0.00000  Uiso   1.00
Br354  Br    0.35908   0.07304   0.60088   0.00000  Uiso   1.00
Br355  Br    0.35908   0.07303   0.39912   0.00000  Uiso   1.00
Br356  Br    0.14092   0.42697   0.60088   0.00000  Uiso   1.00
Br357  Br    0.35908   0.42697   0.60088   0.00000  Uiso   1.00
Br358  Br    0.14092   0.07303   0.39912   0.00000  Uiso   1.00
Br359  Br    0.14092   0.07304   0.60088   0.00000  Uiso   1.00
Br360  Br    0.35908   0.42697   0.39912   0.00000  Uiso   1.00
Br361  Br    0.10908   0.32304   0.60088   0.00000  Uiso   1.00
Br362  Br    0.10908   0.32303   0.39912   0.00000  Uiso   1.00
Br363  Br    0.39092   0.17697   0.60088   0.00000  Uiso   1.00
Br364  Br    0.10908   0.17697   0.60088   0.00000  Uiso   1.00
Br365  Br    0.39092   0.32303   0.39912   0.00000  Uiso   1.00
Br366  Br    0.39092   0.32304   0.60088   0.00000  Uiso   1.00
Br367  Br    0.10908   0.17697   0.39912   0.00000  Uiso   1.00
Br368  Br    0.14092   0.42696   0.39912   0.00000  Uiso   1.00
C369   C     0.06185   0.19324   0.50000   0.00000  Uiso   1.00
C370   C    -0.00000   0.28930   0.64193   0.00000  Uiso   1.00
C371   C    -0.00000   0.28930   0.35807   0.00000  Uiso   1.00
C372   C     0.00000   0.21070   0.64193   0.00000  Uiso   1.00
C373   C     0.25000   0.46070   0.35807   0.00000  Uiso   1.00
C374   C     0.25000   0.03930   0.64193   0.00000  Uiso   1.00
C375   C     0.25000   0.03930   0.35807   0.00000  Uiso   1.00
C376   C     0.25000   0.46070   0.64193   0.00000  Uiso   1.00
C377   C     0.38700   0.14446   0.45741   0.00000  Uiso   1.00
C378   C     0.11300   0.35554   0.54259   0.00000  Uiso   1.00
C379   C     0.11300   0.35554   0.45741   0.00000  Uiso   1.00
C380   C     0.43815   0.30676   0.50000   0.00000  Uiso   1.00
C381   C     0.38700   0.14446   0.54259   0.00000  Uiso   1.00
C382   C     0.11300   0.14446   0.54259   0.00000  Uiso   1.00
C383   C     0.38700   0.35554   0.45741   0.00000  Uiso   1.00
C384   C     0.38700   0.35554   0.54259   0.00000  Uiso   1.00
C385   C     0.11300   0.14446   0.45741   0.00000  Uiso   1.00
C386   C     0.13700   0.39446   0.45741   0.00000  Uiso   1.00
C387   C     0.36300   0.10554   0.54259   0.00000  Uiso   1.00
C388   C     0.36300   0.10554   0.45741   0.00000  Uiso   1.00
C389   C     0.13700   0.39446   0.54259   0.00000  Uiso   1.00
C390   C     0.36300   0.39446   0.54259   0.00000  Uiso   1.00
C391   C     0.43815   0.19324   0.50000   0.00000  Uiso   1.00
C392   C     0.13700   0.10554   0.45741   0.00000  Uiso   1.00
C393   C     0.13700   0.10554   0.54259   0.00000  Uiso   1.00
C394   C     0.36300   0.39446   0.45741   0.00000  Uiso   1.00
C395   C     0.09755   0.33824   0.50000   0.00000  Uiso   1.00
C396   C     0.40245   0.16176   0.50000   0.00000  Uiso   1.00
C397   C     0.40245   0.33824   0.50000   0.00000  Uiso   1.00
C398   C     0.09755   0.16176   0.50000   0.00000  Uiso   1.00
C399   C     0.34755   0.08824   0.50000   0.00000  Uiso   1.00
C400   C     0.15245   0.41176   0.50000   0.00000  Uiso   1.00
C401   C     0.15245   0.08824   0.50000   0.00000  Uiso   1.00
C402   C     0.06185   0.30676   0.50000   0.00000  Uiso   1.00
C403   C     0.34755   0.41176   0.50000   0.00000  Uiso   1.00
C404   C     0.31185   0.44324   0.50000   0.00000  Uiso   1.00
C405   C     0.18815   0.05676   0.50000   0.00000  Uiso   1.00
C406   C     0.18815   0.44324   0.50000   0.00000  Uiso   1.00
C407   C     0.31185   0.05676   0.50000   0.00000  Uiso   1.00
C408   C     0.00000   0.21070   0.35807   0.00000  Uiso   1.00
Cl409  Cl    0.00000   0.15901   0.38747   0.00000  Uiso   1.00
Cl410  Cl   -0.00000   0.34099   0.61253   0.00000  Uiso   1.00
Cl411  Cl   -0.00000   0.34099   0.38747   0.00000  Uiso   1.00
Cl412  Cl    0.00000   0.15901   0.61253   0.00000  Uiso   1.00
Cl413  Cl    0.25000   0.40901   0.38747   0.00000  Uiso   1.00
Cl414  Cl    0.25000   0.09099   0.61253   0.00000  Uiso   1.00
Cl415  Cl    0.25000   0.09099   0.38747   0.00000  Uiso   1.00
Cl416  Cl    0.25000   0.40901   0.61253   0.00000  Uiso   1.00
Cu417  Cu    0.00000   0.25000   0.54689   0.00000  Uiso   1.00
Cu418  Cu    0.00000   0.25000   0.45311   0.00000  Uiso   1.00
Cu419  Cu    0.25000   0.00000   0.54689   0.00000  Uiso   1.00
Cu420  Cu    0.25000   0.00000   0.45311   0.00000  Uiso   1.00
N421   N     0.00000   0.25000   0.61736   0.00000  Uiso   1.00
N422   N    -0.00000   0.25000   0.38264   0.00000  Uiso   1.00
N423   N     0.25000   0.00000   0.61736   0.00000  Uiso   1.00
N424   N     0.25000   0.00000   0.38264   0.00000  Uiso   1.00
O425   O     0.04508   0.20491   0.53958   0.00000  Uiso   1.00
O426   O     0.20491   0.04509   0.46042   0.00000  Uiso   1.00
O427   O     0.20491   0.04509   0.53958   0.00000  Uiso   1.00
O428   O     0.29508   0.45491   0.46042   0.00000  Uiso   1.00
O429   O     0.20491   0.45491   0.46042   0.00000  Uiso   1.00
O430   O     0.29508   0.04509   0.53958   0.00000  Uiso   1.00
O431   O     0.29508   0.04509   0.46042   0.00000  Uiso   1.00
O432   O     0.20491   0.45491   0.53958   0.00000  Uiso   1.00
O433   O     0.45491   0.29509   0.46042   0.00000  Uiso   1.00
O434   O     0.45491   0.29509   0.53958   0.00000  Uiso   1.00
O435   O     0.04508   0.20491   0.46042   0.00000  Uiso   1.00
O436   O     0.45491   0.20491   0.46042   0.00000  Uiso   1.00
O437   O     0.04508   0.29509   0.53958   0.00000  Uiso   1.00
O438   O     0.04508   0.29509   0.46042   0.00000  Uiso   1.00
O439   O     0.45491   0.20491   0.53958   0.00000  Uiso   1.00
O440   O     0.29508   0.45491   0.53958   0.00000  Uiso   1.00
Br441  Br    0.89092   0.17696   0.39912   0.00000  Uiso   1.00
Br442  Br    0.85908   0.07304   0.60088   0.00000  Uiso   1.00
Br443  Br    0.85908   0.07303   0.39912   0.00000  Uiso   1.00
Br444  Br    0.64092   0.42697   0.60088   0.00000  Uiso   1.00
Br445  Br    0.85908   0.42697   0.60088   0.00000  Uiso   1.00
Br446  Br    0.64092   0.07303   0.39912   0.00000  Uiso   1.00
Br447  Br    0.64092   0.07304   0.60088   0.00000  Uiso   1.00
Br448  Br    0.85908   0.42697   0.39912   0.00000  Uiso   1.00
Br449  Br    0.60908   0.32304   0.60088   0.00000  Uiso   1.00
Br450  Br    0.60908   0.32303   0.39912   0.00000  Uiso   1.00
Br451  Br    0.89092   0.17697   0.60088   0.00000  Uiso   1.00
Br452  Br    0.60908   0.17697   0.60088   0.00000  Uiso   1.00
Br453  Br    0.89092   0.32303   0.39912   0.00000  Uiso   1.00
Br454  Br    0.89092   0.32304   0.60088   0.00000  Uiso   1.00
Br455  Br    0.60908   0.17697   0.39912   0.00000  Uiso   1.00
Br456  Br    0.64092   0.42696   0.39912   0.00000  Uiso   1.00
C457   C     0.56185   0.19324   0.50000   0.00000  Uiso   1.00
C458   C     0.50000   0.28930   0.64193   0.00000  Uiso   1.00
C459   C     0.50000   0.28930   0.35807   0.00000  Uiso   1.00
C460   C     0.50000   0.21070   0.64193   0.00000  Uiso   1.00
C461   C     0.75000   0.46070   0.35807   0.00000  Uiso   1.00
C462   C     0.75000   0.03930   0.64193   0.00000  Uiso   1.00
C463   C     0.75000   0.03930   0.35807   0.00000  Uiso   1.00
C464   C     0.75000   0.46070   0.64193   0.00000  Uiso   1.00
C465   C     0.88700   0.14446   0.45741   0.00000  Uiso   1.00
C466   C     0.61300   0.35554   0.54259   0.00000  Uiso   1.00
C467   C     0.61300   0.35554   0.45741   0.00000  Uiso   1.00
C468   C     0.93815   0.30676   0.50000   0.00000  Uiso   1.00
C469   C     0.88700   0.14446   0.54259   0.00000  Uiso   1.00
C470   C     0.61300   0.14446   0.54259   0.00000  Uiso   1.00
C471   C     0.88700   0.35554   0.45741   0.00000  Uiso   1.00
C472   C     0.88700   0.35554   0.54259   0.00000  Uiso   1.00
C473   C     0.61300   0.14446   0.45741   0.00000  Uiso   1.00
C474   C     0.63700   0.39446   0.45741   0.00000  Uiso   1.00
C475   C     0.86300   0.10554   0.54259   0.00000  Uiso   1.00
C476   C     0.86300   0.10554   0.45741   0.00000  Uiso   1.00
C477   C     0.63700   0.39446   0.54259   0.00000  Uiso   1.00
C478   C     0.86300   0.39446   0.54259   0.00000  Uiso   1.00
C479   C     0.93815   0.19324   0.50000   0.00000  Uiso   1.00
C480   C     0.63700   0.10554   0.45741   0.00000  Uiso   1.00
C481   C     0.63700   0.10554   0.54259   0.00000  Uiso   1.00
C482   C     0.86300   0.39446   0.45741   0.00000  Uiso   1.00
C483   C     0.59755   0.33824   0.50000   0.00000  Uiso   1.00
C484   C     0.90245   0.16176   0.50000   0.00000  Uiso   1.00
C485   C     0.90245   0.33824   0.50000   0.00000  Uiso   1.00
C486   C     0.59755   0.16176   0.50000   0.00000  Uiso   1.00
C487   C     0.84755   0.08824   0.50000   0.00000  Uiso   1.00
C488   C     0.65245   0.41176   0.50000   0.00000  Uiso   1.00
C489   C     0.65245   0.08824   0.50000   0.00000  Uiso   1.00
C490   C     0.56185   0.30676   0.50000   0.00000  Uiso   1.00
C491   C     0.84755   0.41176   0.50000   0.00000  Uiso   1.00
C492   C     0.81185   0.44324   0.50000   0.00000  Uiso   1.00
C493   C     0.68815   0.05676   0.50000   0.00000  Uiso   1.00
C494   C     0.68815   0.44324   0.50000   0.00000  Uiso   1.00
C495   C     0.81185   0.05676   0.50000   0.00000  Uiso   1.00
C496   C     0.50000   0.21070   0.35807   0.00000  Uiso   1.00
Cl497  Cl    0.50000   0.15901   0.38747   0.00000  Uiso   1.00
Cl498  Cl    0.50000   0.34099   0.61253   0.00000  Uiso   1.00
Cl499  Cl    0.50000   0.34099   0.38747   0.00000  Uiso   1.00
Cl500  Cl    0.50000   0.15901   0.61253   0.00000  Uiso   1.00
Cl501  Cl    0.75000   0.40901   0.38747   0.00000  Uiso   1.00
Cl502  Cl    0.75000   0.09099   0.61253   0.00000  Uiso   1.00
Cl503  Cl    0.75000   0.09099   0.38747   0.00000  Uiso   1.00
Cl504  Cl    0.75000   0.40901   0.61253   0.00000  Uiso   1.00
Cu505  Cu    0.50000   0.25000   0.54689   0.00000  Uiso   1.00
Cu506  Cu    0.50000   0.25000   0.45311   0.00000  Uiso   1.00
Cu507  Cu    0.75000   0.00000   0.54689   0.00000  Uiso   1.00
Cu508  Cu    0.75000   0.00000   0.45311   0.00000  Uiso   1.00
N509   N     0.50000   0.25000   0.61736   0.00000  Uiso   1.00
N510   N     0.50000   0.25000   0.38264   0.00000  Uiso   1.00
N511   N     0.75000   0.00000   0.61736   0.00000  Uiso   1.00
N512   N     0.75000   0.00000   0.38264   0.00000  Uiso   1.00
O513   O     0.54508   0.20491   0.53958   0.00000  Uiso   1.00
O514   O     0.70491   0.04509   0.46042   0.00000  Uiso   1.00
O515   O     0.70491   0.04509   0.53958   0.00000  Uiso   1.00
O516   O     0.79508   0.45491   0.46042   0.00000  Uiso   1.00
O517   O     0.70491   0.45491   0.46042   0.00000  Uiso   1.00
O518   O     0.79508   0.04509   0.53958   0.00000  Uiso   1.00
O519   O     0.79508   0.04509   0.46042   0.00000  Uiso   1.00
O520   O     0.70491   0.45491   0.53958   0.00000  Uiso   1.00
O521   O     0.95491   0.29509   0.46042   0.00000  Uiso   1.00
O522   O     0.95491   0.29509   0.53958   0.00000  Uiso   1.00
O523   O     0.54508   0.20491   0.46042   0.00000  Uiso   1.00
O524   O     0.95491   0.20491   0.46042   0.00000  Uiso   1.00
O525   O     0.54508   0.29509   0.53958   0.00000  Uiso   1.00
O526   O     0.54508   0.29509   0.46042   0.00000  Uiso   1.00
O527   O     0.95491   0.20491   0.53958   0.00000  Uiso   1.00
O528   O     0.79508   0.45491   0.53958   0.00000  Uiso   1.00
Br529  Br    0.39092   0.67696   0.39912   0.00000  Uiso   1.00
Br530  Br    0.35908   0.57304   0.60088   0.00000  Uiso   1.00
Br531  Br    0.35908   0.57303   0.39912   0.00000  Uiso   1.00
Br532  Br    0.14092   0.92697   0.60088   0.00000  Uiso   1.00
Br533  Br    0.35908   0.92697   0.60088   0.00000  Uiso   1.00
Br534  Br    0.14092   0.57303   0.39912   0.00000  Uiso   1.00
Br535  Br    0.14092   0.57304   0.60088   0.00000  Uiso   1.00
Br536  Br    0.35908   0.92697   0.39912   0.00000  Uiso   1.00
Br537  Br    0.10908   0.82304   0.60088   0.00000  Uiso   1.00
Br538  Br    0.10908   0.82303   0.39912   0.00000  Uiso   1.00
Br539  Br    0.39092   0.67697   0.60088   0.00000  Uiso   1.00
Br540  Br    0.10908   0.67697   0.60088   0.00000  Uiso   1.00
Br541  Br    0.39092   0.82303   0.39912   0.00000  Uiso   1.00
Br542  Br    0.39092   0.82304   0.60088   0.00000  Uiso   1.00
Br543  Br    0.10908   0.67697   0.39912   0.00000  Uiso   1.00
Br544  Br    0.14092   0.92696   0.39912   0.00000  Uiso   1.00
C545   C     0.06185   0.69324   0.50000   0.00000  Uiso   1.00
C546   C    -0.00000   0.78930   0.64193   0.00000  Uiso   1.00
C547   C    -0.00000   0.78930   0.35807   0.00000  Uiso   1.00
C548   C     0.00000   0.71070   0.64193   0.00000  Uiso   1.00
C549   C     0.25000   0.96070   0.35807   0.00000  Uiso   1.00
C550   C     0.25000   0.53930   0.64193   0.00000  Uiso   1.00
C551   C     0.25000   0.53930   0.35807   0.00000  Uiso   1.00
C552   C     0.25000   0.96070   0.64193   0.00000  Uiso   1.00
C553   C     0.38700   0.64446   0.45741   0.00000  Uiso   1.00
C554   C     0.11300   0.85554   0.54259   0.00000  Uiso   1.00
C555   C     0.11300   0.85554   0.45741   0.00000  Uiso   1.00
C556   C     0.43815   0.80676   0.50000   0.00000  Uiso   1.00
C557   C     0.38700   0.64446   0.54259   0.00000  Uiso   1.00
C558   C     0.11300   0.64446   0.54259   0.00000  Uiso   1.00
C559   C     0.38700   0.85554   0.45741   0.00000  Uiso   1.00
C560   C     0.38700   0.85554   0.54259   0.00000  Uiso   1.00
C561   C     0.11300   0.64446   0.45741   0.00000  Uiso   1.00
C562   C     0.13700   0.89446   0.45741   0.00000  Uiso   1.00
C563   C     0.36300   0.60554   0.54259   0.00000  Uiso   1.00
C564   C     0.36300   0.60554   0.45741   0.00000  Uiso   1.00
C565   C     0.13700   0.89446   0.54259   0.00000  Uiso   1.00
C566   C     0.36300   0.89446   0.54259   0.00000  Uiso   1.00
C567   C     0.43815   0.69324   0.50000   0.00000  Uiso   1.00
C568   C     0.13700   0.60554   0.45741   0.00000  Uiso   1.00
C569   C     0.13700   0.60554   0.54259   0.00000  Uiso   1.00
C570   C     0.36300   0.89446   0.45741   0.00000  Uiso   1.00
C571   C     0.09755   0.83824   0.50000   0.00000  Uiso   1.00
C572   C     0.40245   0.66176   0.50000   0.00000  Uiso   1.00
C573   C     0.40245   0.83824   0.50000   0.00000  Uiso   1.00
C574   C     0.09755   0.66176   0.50000   0.00000  Uiso   1.00
C575   C     0.34755   0.58824   0.50000   0.00000  Uiso   1.00
C576   C     0.15245   0.91176   0.50000   0.00000  Uiso   1.00
C577   C     0.15245   0.58824   0.50000   0.00000  Uiso   1.00
C578   C     0.06185   0.80676   0.50000   0.00000  Uiso   1.00
C579   C     0.34755   0.91176   0.50000   0.00000  Uiso   1.00
C580   C     0.31185   0.94324   0.50000   0.00000  Uiso   1.00
C581   C     0.18815   0.55676   0.50000   0.00000  Uiso   1.00
C582   C     0.18815   0.94324   0.50000   0.00000  Uiso   1.00
C583   C     0.31185   0.55676   0.50000   0.00000  Uiso   1.00
C584   C     0.00000   0.71070   0.35807   0.00000  Uiso   1.00
Cl585  Cl    0.00000   0.65901   0.38747   0.00000  Uiso   1.00
Cl586  Cl   -0.00000   0.84099   0.61253   0.00000  Uiso   1.00
Cl587  Cl   -0.00000   0.84099   0.38747   0.00000  Uiso   1.00
Cl588  Cl    0.00000   0.65901   0.61253   0.00000  Uiso   1.00
Cl589  Cl    0.25000   0.90901   0.38747   0.00000  Uiso   1.00
Cl590  Cl    0.25000   0.59099   0.61253   0.00000  Uiso   1.00
Cl591  Cl    0.25000   0.59099   0.38747   0.00000  Uiso   1.00
Cl592  Cl    0.25000   0.90901   0.61253   0.00000  Uiso   1.00
Cu593  Cu    0.00000   0.75000   0.54689   0.00000  Uiso   1.00
Cu594  Cu    0.00000   0.75000   0.45311   0.00000  Uiso   1.00
Cu595  Cu    0.25000   0.50000   0.54689   0.00000  Uiso   1.00
Cu596  Cu    0.25000   0.50000   0.45311   0.00000  Uiso   1.00
N597   N     0.00000   0.75000   0.61736   0.00000  Uiso   1.00
N598   N    -0.00000   0.75000   0.38264   0.00000  Uiso   1.00
N599   N     0.25000   0.50000   0.61736   0.00000  Uiso   1.00
N600   N     0.25000   0.50000   0.38264   0.00000  Uiso   1.00
O601   O     0.04508   0.70491   0.53958   0.00000  Uiso   1.00
O602   O     0.20491   0.54509   0.46042   0.00000  Uiso   1.00
O603   O     0.20491   0.54509   0.53958   0.00000  Uiso   1.00
O604   O     0.29508   0.95491   0.46042   0.00000  Uiso   1.00
O605   O     0.20491   0.95491   0.46042   0.00000  Uiso   1.00
O606   O     0.29508   0.54509   0.53958   0.00000  Uiso   1.00
O607   O     0.29508   0.54509   0.46042   0.00000  Uiso   1.00
O608   O     0.20491   0.95491   0.53958   0.00000  Uiso   1.00
O609   O     0.45491   0.79509   0.46042   0.00000  Uiso   1.00
O610   O     0.45491   0.79509   0.53958   0.00000  Uiso   1.00
O611   O     0.04508   0.70491   0.46042   0.00000  Uiso   1.00
O612   O     0.45491   0.70491   0.46042   0.00000  Uiso   1.00
O613   O     0.04508   0.79509   0.53958   0.00000  Uiso   1.00
O614   O     0.04508   0.79509   0.46042   0.00000  Uiso   1.00
O615   O     0.45491   0.70491   0.53958   0.00000  Uiso   1.00
O616   O     0.29508   0.95491   0.53958   0.00000  Uiso   1.00
Br617  Br    0.89092   0.67696   0.39912   0.00000  Uiso   1.00
Br618  Br    0.85908   0.57304   0.60088   0.00000  Uiso   1.00
Br619  Br    0.85908   0.57303   0.39912   0.00000  Uiso   1.00
Br620  Br    0.64092   0.92697   0.60088   0.00000  Uiso   1.00
Br621  Br    0.85908   0.92697   0.60088   0.00000  Uiso   1.00
Br622  Br    0.64092   0.57303   0.39912   0.00000  Uiso   1.00
Br623  Br    0.64092   0.57304   0.60088   0.00000  Uiso   1.00
Br624  Br    0.85908   0.92697   0.39912   0.00000  Uiso   1.00
Br625  Br    0.60908   0.82304   0.60088   0.00000  Uiso   1.00
Br626  Br    0.60908   0.82303   0.39912   0.00000  Uiso   1.00
Br627  Br    0.89092   0.67697   0.60088   0.00000  Uiso   1.00
Br628  Br    0.60908   0.67697   0.60088   0.00000  Uiso   1.00
Br629  Br    0.89092   0.82303   0.39912   0.00000  Uiso   1.00
Br630  Br    0.89092   0.82304   0.60088   0.00000  Uiso   1.00
Br631  Br    0.60908   0.67697   0.39912   0.00000  Uiso   1.00
Br632  Br    0.64092   0.92696   0.39912   0.00000  Uiso   1.00
C633   C     0.56185   0.69324   0.50000   0.00000  Uiso   1.00
C634   C     0.50000   0.78930   0.64193   0.00000  Uiso   1.00
C635   C     0.50000   0.78930   0.35807   0.00000  Uiso   1.00
C636   C     0.50000   0.71070   0.64193   0.00000  Uiso   1.00
C637   C     0.75000   0.96070   0.35807   0.00000  Uiso   1.00
C638   C     0.75000   0.53930   0.64193   0.00000  Uiso   1.00
C639   C     0.75000   0.53930   0.35807   0.00000  Uiso   1.00
C640   C     0.75000   0.96070   0.64193   0.00000  Uiso   1.00
C641   C     0.88700   0.64446   0.45741   0.00000  Uiso   1.00
C642   C     0.61300   0.85554   0.54259   0.00000  Uiso   1.00
C643   C     0.61300   0.85554   0.45741   0.00000  Uiso   1.00
C644   C     0.93815   0.80676   0.50000   0.00000  Uiso   1.00
C645   C     0.88700   0.64446   0.54259   0.00000  Uiso   1.00
C646   C     0.61300   0.64446   0.54259   0.00000  Uiso   1.00
C647   C     0.88700   0.85554   0.45741   0.00000  Uiso   1.00
C648   C     0.88700   0.85554   0.54259   0.00000  Uiso   1.00
C649   C     0.61300   0.64446   0.45741   0.00000  Uiso   1.00
C650   C     0.63700   0.89446   0.45741   0.00000  Uiso   1.00
C651   C     0.86300   0.60554   0.54259   0.00000  Uiso   1.00
C652   C     0.86300   0.60554   0.45741   0.00000  Uiso   1.00
C653   C     0.63700   0.89446   0.54259   0.00000  Uiso   1.00
C654   C     0.86300   0.89446   0.54259   0.00000  Uiso   1.00
C655   C     0.93815   0.69324   0.50000   0.00000  Uiso   1.00
C656   C     0.63700   0.60554   0.45741   0.00000  Uiso   1.00
C657   C     0.63700   0.60554   0.54259   0.00000  Uiso   1.00
C658   C     0.86300   0.89446   0.45741   0.00000  Uiso   1.00
C659   C     0.59755   0.83824   0.50000   0.00000  Uiso   1.00
C660   C     0.90245   0.66176   0.50000   0.00000  Uiso   1.00
C661   C     0.90245   0.83824   0.50000   0.00000  Uiso   1.00
C662   C     0.59755   0.66176   0.50000   0.00000  Uiso   1.00
C663   C     0.84755   0.58824   0.50000   0.00000  Uiso   1.00
C664   C     0.65245   0.91176   0.50000   0.00000  Uiso   1.00
C665   C     0.65245   0.58824   0.50000   0.00000  Uiso   1.00
C666   C     0.56185   0.80676   0.50000   0.00000  Uiso   1.00
C667   C     0.84755   0.91176   0.50000   0.00000  Uiso   1.00
C668   C     0.81185   0.94324   0.50000   0.00000  Uiso   1.00
C669   C     0.68815   0.55676   0.50000   0.00000  Uiso   1.00
C670   C     0.68815   0.94324   0.50000   0.00000  Uiso   1.00
C671   C     0.81185   0.55676   0.50000   0.00000  Uiso   1.00
C672   C     0.50000   0.71070   0.35807   0.00000  Uiso   1.00
Cl673  Cl    0.50000   0.65901   0.38747   0.00000  Uiso   1.00
Cl674  Cl    0.50000   0.84099   0.61253   0.00000  Uiso   1.00
Cl675  Cl    0.50000   0.84099   0.38747   0.00000  Uiso   1.00
Cl676  Cl    0.50000   0.65901   0.61253   0.00000  Uiso   1.00
Cl677  Cl    0.75000   0.90901   0.38747   0.00000  Uiso   1.00
Cl678  Cl    0.75000   0.59099   0.61253   0.00000  Uiso   1.00
Cl679  Cl    0.75000   0.59099   0.38747   0.00000  Uiso   1.00
Cl680  Cl    0.75000   0.90901   0.61253   0.00000  Uiso   1.00
Cu681  Cu    0.50000   0.75000   0.54689   0.00000  Uiso   1.00
Cu682  Cu    0.50000   0.75000   0.45311   0.00000  Uiso   1.00
Cu683  Cu    0.75000   0.50000   0.54689   0.00000  Uiso   1.00
Cu684  Cu    0.75000   0.50000   0.45311   0.00000  Uiso   1.00
N685   N     0.50000   0.75000   0.61736   0.00000  Uiso   1.00
N686   N     0.50000   0.75000   0.38264   0.00000  Uiso   1.00
N687   N     0.75000   0.50000   0.61736   0.00000  Uiso   1.00
N688   N     0.75000   0.50000   0.38264   0.00000  Uiso   1.00
O689   O     0.54508   0.70491   0.53958   0.00000  Uiso   1.00
O690   O     0.70491   0.54509   0.46042   0.00000  Uiso   1.00
O691   O     0.70491   0.54509   0.53958   0.00000  Uiso   1.00
O692   O     0.79508   0.95491   0.46042   0.00000  Uiso   1.00
O693   O     0.70491   0.95491   0.46042   0.00000  Uiso   1.00
O694   O     0.79508   0.54509   0.53958   0.00000  Uiso   1.00
O695   O     0.79508   0.54509   0.46042   0.00000  Uiso   1.00
O696   O     0.70491   0.95491   0.53958   0.00000  Uiso   1.00
O697   O     0.95491   0.79509   0.46042   0.00000  Uiso   1.00
O698   O     0.95491   0.79509   0.53958   0.00000  Uiso   1.00
O699   O     0.54508   0.70491   0.46042   0.00000  Uiso   1.00
O700   O     0.95491   0.70491   0.46042   0.00000  Uiso   1.00
O701   O     0.54508   0.79509   0.53958   0.00000  Uiso   1.00
O702   O     0.54508   0.79509   0.46042   0.00000  Uiso   1.00
O703   O     0.95491   0.70491   0.53958   0.00000  Uiso   1.00
O704   O     0.79508   0.95491   0.53958   0.00000  Uiso   1.00
Br705  Br    0.39092   0.17696   0.73245   0.00000  Uiso   1.00
Br706  Br    0.35908   0.07304   0.93422   0.00000  Uiso   1.00
Br707  Br    0.35908   0.07303   0.73245   0.00000  Uiso   1.00
Br708  Br    0.14092   0.42697   0.93422   0.00000  Uiso   1.00
Br709  Br    0.35908   0.42697   0.93422   0.00000  Uiso   1.00
Br710  Br    0.14092   0.07303   0.73245   0.00000  Uiso   1.00
Br711  Br    0.14092   0.07304   0.93422   0.00000  Uiso   1.00
Br712  Br    0.35908   0.42697   0.73245   0.00000  Uiso   1.00
Br713  Br    0.10908   0.32304   0.93422   0.00000  Uiso   1.00
Br714  Br    0.10908   0.32303   0.73245   0.00000  Uiso   1.00
Br715  Br    0.39092   0.17697   0.93422   0.00000  Uiso   1.00
Br716  Br    0.10908   0.17697   0.93422   0.00000  Uiso   1.00
Br717  Br    0.39092   0.32303   0.73245   0.00000  Uiso   1.00
Br718  Br    0.39092   0.32304   0.93422   0.00000  Uiso   1.00
Br719  Br    0.10908   0.17697   0.73245   0.00000  Uiso   1.00
Br720  Br    0.14092   0.42696   0.73245   0.00000  Uiso   1.00
C721   C     0.06185   0.19324   0.83333   0.00000  Uiso   1.00
C722   C    -0.00000   0.28930   0.97526   0.00000  Uiso   1.00
C723   C    -0.00000   0.28930   0.69141   0.00000  Uiso   1.00
C724   C     0.00000   0.21070   0.97526   0.00000  Uiso   1.00
C725   C     0.25000   0.46070   0.69141   0.00000  Uiso   1.00
C726   C     0.25000   0.03930   0.97526   0.00000  Uiso   1.00
C727   C     0.25000   0.03930   0.69141   0.00000  Uiso   1.00
C728   C     0.25000   0.46070   0.97526   0.00000  Uiso   1.00
C729   C     0.38700   0.14446   0.79075   0.00000  Uiso   1.00
C730   C     0.11300   0.35554   0.87592   0.00000  Uiso   1.00
C731   C     0.11300   0.35554   0.79075   0.00000  Uiso   1.00
C732   C     0.43815   0.30676   0.83333   0.00000  Uiso   1.00
C733   C     0.38700   0.14446   0.87592   0.00000  Uiso   1.00
C734   C     0.11300   0.14446   0.87592   0.00000  Uiso   1.00
C735   C     0.38700   0.35554   0.79075   0.00000  Uiso   1.00
C736   C     0.38700   0.35554   0.87592   0.00000  Uiso   1.00
C737   C     0.11300   0.14446   0.79075   0.00000  Uiso   1.00
C738   C     0.13700   0.39446   0.79075   0.00000  Uiso   1.00
C739   C     0.36300   0.10554   0.87592   0.00000  Uiso   1.00
C740   C     0.36300   0.10554   0.79075   0.00000  Uiso   1.00
C741   C     0.13700   0.39446   0.87592   0.00000  Uiso   1.00
C742   C     0.36300   0.39446   0.87592   0.00000  Uiso   1.00
C743   C     0.43815   0.19324   0.83333   0.00000  Uiso   1.00
C744   C     0.13700   0.10554   0.79075   0.00000  Uiso   1.00
C745   C     0.13700   0.10554   0.87592   0.00000  Uiso   1.00
C746   C     0.36300   0.39446   0.79075   0.00000  Uiso   1.00
C747   C     0.09755   0.33824   0.83333   0.00000  Uiso   1.00
C748   C     0.40245   0.16176   0.83333   0.00000  Uiso   1.00
C749   C     0.40245   0.33824   0.83333   0.00000  Uiso   1.00
C750   C     0.09755   0.16176   0.83333   0.00000  Uiso   1.00
C751   C     0.34755   0.08824   0.83333   0.00000  Uiso   1.00
C752   C     0.15245   0.41176   0.83333   0.00000  Uiso   1.00
C753   C     0.15245   0.08824   0.83333   0.00000  Uiso   1.00
C754   C     0.06185   0.30676   0.83333   0.00000  Uiso   1.00
C755   C     0.34755   0.41176   0.83333   0.00000  Uiso   1.00
C756   C     0.31185   0.44324   0.83333   0.00000  Uiso   1.00
C757   C     0.18815   0.05676   0.83333   0.00000  Uiso   1.00
C758   C     0.18815   0.44324   0.83333   0.00000  Uiso   1.00
C759   C     0.31185   0.05676   0.83333   0.00000  Uiso   1.00
C760   C     0.00000   0.21070   0.69141   0.00000  Uiso   1.00
Cl761  Cl    0.00000   0.15901   0.72080   0.00000  Uiso   1.00
Cl762  Cl   -0.00000   0.34099   0.94586   0.00000  Uiso   1.00
Cl763  Cl   -0.00000   0.34099   0.72080   0.00000  Uiso   1.00
Cl764  Cl    0.00000   0.15901   0.94586   0.00000  Uiso   1.00
Cl765  Cl    0.25000   0.40901   0.72080   0.00000  Uiso   1.00
Cl766  Cl    0.25000   0.09099   0.94586   0.00000  Uiso   1.00
Cl767  Cl    0.25000   0.09099   0.72080   0.00000  Uiso   1.00
Cl768  Cl    0.25000   0.40901   0.94586   0.00000  Uiso   1.00
Cu769  Cu    0.00000   0.25000   0.88022   0.00000  Uiso   1.00
Cu770  Cu    0.00000   0.25000   0.78645   0.00000  Uiso   1.00
Cu771  Cu    0.25000   0.00000   0.88022   0.00000  Uiso   1.00
Cu772  Cu    0.25000   0.00000   0.78645   0.00000  Uiso   1.00
N773   N     0.00000   0.25000   0.95069   0.00000  Uiso   1.00
N774   N    -0.00000   0.25000   0.71598   0.00000  Uiso   1.00
N775   N     0.25000   0.00000   0.95069   0.00000  Uiso   1.00
N776   N     0.25000   0.00000   0.71598   0.00000  Uiso   1.00
O777   O     0.04508   0.20491   0.87291   0.00000  Uiso   1.00
O778   O     0.20491   0.04509   0.79375   0.00000  Uiso   1.00
O779   O     0.20491   0.04509   0.87291   0.00000  Uiso   1.00
O780   O     0.29508   0.45491   0.79375   0.00000  Uiso   1.00
O781   O     0.20491   0.45491   0.79375   0.00000  Uiso   1.00
O782   O     0.29508   0.04509   0.87291   0.00000  Uiso   1.00
O783   O     0.29508   0.04509   0.79375   0.00000  Uiso   1.00
O784   O     0.20491   0.45491   0.87291   0.00000  Uiso   1.00
O785   O     0.45491   0.29509   0.79375   0.00000  Uiso   1.00
O786   O     0.45491   0.29509   0.87291   0.00000  Uiso   1.00
O787   O     0.04508   0.20491   0.79375   0.00000  Uiso   1.00
O788   O     0.45491   0.20491   0.79375   0.00000  Uiso   1.00
O789   O     0.04508   0.29509   0.87291   0.00000  Uiso   1.00
O790   O     0.04508   0.29509   0.79375   0.00000  Uiso   1.00
O791   O     0.45491   0.20491   0.87291   0.00000  Uiso   1.00
O792   O     0.29508   0.45491   0.87291   0.00000  Uiso   1.00
Br793  Br    0.89092   0.17696   0.73245   0.00000  Uiso   1.00
Br794  Br    0.85908   0.07304   0.93422   0.00000  Uiso   1.00
Br795  Br    0.85908   0.07303   0.73245   0.00000  Uiso   1.00
Br796  Br    0.64092   0.42697   0.93422   0.00000  Uiso   1.00
Br797  Br    0.85908   0.42697   0.93422   0.00000  Uiso   1.00
Br798  Br    0.64092   0.07303   0.73245   0.00000  Uiso   1.00
Br799  Br    0.64092   0.07304   0.93422   0.00000  Uiso   1.00
Br800  Br    0.85908   0.42697   0.73245   0.00000  Uiso   1.00
Br801  Br    0.60908   0.32304   0.93422   0.00000  Uiso   1.00
Br802  Br    0.60908   0.32303   0.73245   0.00000  Uiso   1.00
Br803  Br    0.89092   0.17697   0.93422   0.00000  Uiso   1.00
Br804  Br    0.60908   0.17697   0.93422   0.00000  Uiso   1.00
Br805  Br    0.89092   0.32303   0.73245   0.00000  Uiso   1.00
Br806  Br    0.89092   0.32304   0.93422   0.00000  Uiso   1.00
Br807  Br    0.60908   0.17697   0.73245   0.00000  Uiso   1.00
Br808  Br    0.64092   0.42696   0.73245   0.00000  Uiso   1.00
C809   C     0.56185   0.19324   0.83333   0.00000  Uiso   1.00
C810   C     0.50000   0.28930   0.97526   0.00000  Uiso   1.00
C811   C     0.50000   0.28930   0.69141   0.00000  Uiso   1.00
C812   C     0.50000   0.21070   0.97526   0.00000  Uiso   1.00
C813   C     0.75000   0.46070   0.69141   0.00000  Uiso   1.00
C814   C     0.75000   0.03930   0.97526   0.00000  Uiso   1.00
C815   C     0.75000   0.03930   0.69141   0.00000  Uiso   1.00
C816   C     0.75000   0.46070   0.97526   0.00000  Uiso   1.00
C817   C     0.88700   0.14446   0.79075   0.00000  Uiso   1.00
C818   C     0.61300   0.35554   0.87592   0.00000  Uiso   1.00
C819   C     0.61300   0.35554   0.79075   0.00000  Uiso   1.00
C820   C     0.93815   0.30676   0.83333   0.00000  Uiso   1.00
C821   C     0.88700   0.14446   0.87592   0.00000  Uiso   1.00
C822   C     0.61300   0.14446   0.87592   0.00000  Uiso   1.00
C823   C     0.88700   0.35554   0.79075   0.00000  Uiso   1.00
C824   C     0.88700   0.35554   0.87592   0.00000  Uiso   1.00
C825   C     0.61300   0.14446   0.79075   0.00000  Uiso   1.00
C826   C     0.63700   0.39446   0.79075   0.00000  Uiso   1.00
C827   C     0.86300   0.10554   0.87592   0.00000  Uiso   1.00
C828   C     0.86300   0.10554   0.79075   0.00000  Uiso   1.00
C829   C     0.63700   0.39446   0.87592   0.00000  Uiso   1.00
C830   C     0.86300   0.39446   0.87592   0.00000  Uiso   1.00
C831   C     0.93815   0.19324   0.83333   0.00000  Uiso   1.00
C832   C     0.63700   0.10554   0.79075   0.00000  Uiso   1.00
C833   C     0.63700   0.10554   0.87592   0.00000  Uiso   1.00
C834   C     0.86300   0.39446   0.79075   0.00000  Uiso   1.00
C835   C     0.59755   0.33824   0.83333   0.00000  Uiso   1.00
C836   C     0.90245   0.16176   0.83333   0.00000  Uiso   1.00
C837   C     0.90245   0.33824   0.83333   0.00000  Uiso   1.00
C838   C     0.59755   0.16176   0.83333   0.00000  Uiso   1.00
C839   C     0.84755   0.08824   0.83333   0.00000  Uiso   1.00
C840   C     0.65245   0.41176   0.83333   0.00000  Uiso   1.00
C841   C     0.65245   0.08824   0.83333   0.00000  Uiso   1.00
C842   C     0.56185   0.30676   0.83333   0.00000  Uiso   1.00
C843   C     0.84755   0.41176   0.83333   0.00000  Uiso   1.00
C844   C     0.81185   0.44324   0.83333   0.00000  Uiso   1.00
C845   C     0.68815   0.05676   0.83333   0.00000  Uiso   1.00
C846   C     0.68815   0.44324   0.83333   0.00000  Uiso   1.00
C847   C     0.81185   0.05676   0.83333   0.00000  Uiso   1.00
C848   C     0.50000   0.21070   0.69141   0.00000  Uiso   1.00
Cl849  Cl    0.50000   0.15901   0.72080   0.00000  Uiso   1.00
Cl850  Cl    0.50000   0.34099   0.94586   0.00000  Uiso   1.00
Cl851  Cl    0.50000   0.34099   0.72080   0.00000  Uiso   1.00
Cl852  Cl    0.50000   0.15901   0.94586   0.00000  Uiso   1.00
Cl853  Cl    0.75000   0.40901   0.72080   0.00000  Uiso   1.00
Cl854  Cl    0.75000   0.09099   0.94586   0.00000  Uiso   1.00
Cl855  Cl    0.75000   0.09099   0.72080   0.00000  Uiso   1.00
Cl856  Cl    0.75000   0.40901   0.94586   0.00000  Uiso   1.00
Cu857  Cu    0.50000   0.25000   0.88022   0.00000  Uiso   1.00
Cu858  Cu    0.50000   0.25000   0.78645   0.00000  Uiso   1.00
Cu859  Cu    0.75000   0.00000   0.88022   0.00000  Uiso   1.00
Cu860  Cu    0.75000   0.00000   0.78645   0.00000  Uiso   1.00
N861   N     0.50000   0.25000   0.95069   0.00000  Uiso   1.00
N862   N     0.50000   0.25000   0.71598   0.00000  Uiso   1.00
N863   N     0.75000   0.00000   0.95069   0.00000  Uiso   1.00
N864   N     0.75000   0.00000   0.71598   0.00000  Uiso   1.00
O865   O     0.54508   0.20491   0.87291   0.00000  Uiso   1.00
O866   O     0.70491   0.04509   0.79375   0.00000  Uiso   1.00
O867   O     0.70491   0.04509   0.87291   0.00000  Uiso   1.00
O868   O     0.79508   0.45491   0.79375   0.00000  Uiso   1.00
O869   O     0.70491   0.45491   0.79375   0.00000  Uiso   1.00
O870   O     0.79508   0.04509   0.87291   0.00000  Uiso   1.00
O871   O     0.79508   0.04509   0.79375   0.00000  Uiso   1.00
O872   O     0.70491   0.45491   0.87291   0.00000  Uiso   1.00
O873   O     0.95491   0.29509   0.79375   0.00000  Uiso   1.00
O874   O     0.95491   0.29509   0.87291   0.00000  Uiso   1.00
O875   O     0.54508   0.20491   0.79375   0.00000  Uiso   1.00
O876   O     0.95491   0.20491   0.79375   0.00000  Uiso   1.00
O877   O     0.54508   0.29509   0.87291   0.00000  Uiso   1.00
O878   O     0.54508   0.29509   0.79375   0.00000  Uiso   1.00
O879   O     0.95491   0.20491   0.87291   0.00000  Uiso   1.00
O880   O     0.79508   0.45491   0.87291   0.00000  Uiso   1.00
Br881  Br    0.39092   0.67696   0.73245   0.00000  Uiso   1.00
Br882  Br    0.35908   0.57304   0.93422   0.00000  Uiso   1.00
Br883  Br    0.35908   0.57303   0.73245   0.00000  Uiso   1.00
Br884  Br    0.14092   0.92697   0.93422   0.00000  Uiso   1.00
Br885  Br    0.35908   0.92697   0.93422   0.00000  Uiso   1.00
Br886  Br    0.14092   0.57303   0.73245   0.00000  Uiso   1.00
Br887  Br    0.14092   0.57304   0.93422   0.00000  Uiso   1.00
Br888  Br    0.35908   0.92697   0.73245   0.00000  Uiso   1.00
Br889  Br    0.10908   0.82304   0.93422   0.00000  Uiso   1.00
Br890  Br    0.10908   0.82303   0.73245   0.00000  Uiso   1.00
Br891  Br    0.39092   0.67697   0.93422   0.00000  Uiso   1.00
Br892  Br    0.10908   0.67697   0.93422   0.00000  Uiso   1.00
Br893  Br    0.39092   0.82303   0.73245   0.00000  Uiso   1.00
Br894  Br    0.39092   0.82304   0.93422   0.00000  Uiso   1.00
Br895  Br    0.10908   0.67697   0.73245   0.00000  Uiso   1.00
Br896  Br    0.14092   0.92696   0.73245   0.00000  Uiso   1.00
C897   C     0.06185   0.69324   0.83333   0.00000  Uiso   1.00
C898   C    -0.00000   0.78930   0.97526   0.00000  Uiso   1.00
C899   C    -0.00000   0.78930   0.69141   0.00000  Uiso   1.00
C900   C     0.00000   0.71070   0.97526   0.00000  Uiso   1.00
C901   C     0.25000   0.96070   0.69141   0.00000  Uiso   1.00
C902   C     0.25000   0.53930   0.97526   0.00000  Uiso   1.00
C903   C     0.25000   0.53930   0.69141   0.00000  Uiso   1.00
C904   C     0.25000   0.96070   0.97526   0.00000  Uiso   1.00
C905   C     0.38700   0.64446   0.79075   0.00000  Uiso   1.00
C906   C     0.11300   0.85554   0.87592   0.00000  Uiso   1.00
C907   C     0.11300   0.85554   0.79075   0.00000  Uiso   1.00
C908   C     0.43815   0.80676   0.83333   0.00000  Uiso   1.00
C909   C     0.38700   0.64446   0.87592   0.00000  Uiso   1.00
C910   C     0.11300   0.64446   0.87592   0.00000  Uiso   1.00
C911   C     0.38700   0.85554   0.79075   0.00000  Uiso   1.00
C912   C     0.38700   0.85554   0.87592   0.00000  Uiso   1.00
C913   C     0.11300   0.64446   0.79075   0.00000  Uiso   1.00
C914   C     0.13700   0.89446   0.79075   0.00000  Uiso   1.00
C915   C     0.36300   0.60554   0.87592   0.00000  Uiso   1.00
C916   C     0.36300   0.60554   0.79075   0.00000  Uiso   1.00
C917   C     0.13700   0.89446   0.87592   0.00000  Uiso   1.00
C918   C     0.36300   0.89446   0.87592   0.00000  Uiso   1.00
C919   C     0.43815   0.69324   0.83333   0.00000  Uiso   1.00
C920   C     0.13700   0.60554   0.79075   0.00000  Uiso   1.00
C921   C     0.13700   0.60554   0.87592   0.00000  Uiso   1.00
C922   C     0.36300   0.89446   0.79075   0.00000  Uiso   1.00
C923   C     0.09755   0.83824   0.83333   0.00000  Uiso   1.00
C924   C     0.40245   0.66176   0.83333   0.00000  Uiso   1.00
C925   C     0.40245   0.83824   0.83333   0.00000  Uiso   1.00
C926   C     0.09755   0.66176   0.83333   0.00000  Uiso   1.00
C927   C     0.34755   0.58824   0.83333   0.00000  Uiso   1.00
C928   C     0.15245   0.91176   0.83333   0.00000  Uiso   1.00
C929   C     0.15245   0.58824   0.83333   0.00000  Uiso   1.00
C930   C     0.06185   0.80676   0.83333   0.00000  Uiso   1.00
C931   C     0.34755   0.91176   0.83333   0.00000  Uiso   1.00
C932   C     0.31185   0.94324   0.83333   0.00000  Uiso   1.00
C933   C     0.18815   0.55676   0.83333   0.00000  Uiso   1.00
C934   C     0.18815   0.94324   0.83333   0.00000  Uiso   1.00
C935   C     0.31185   0.55676   0.83333   0.00000  Uiso   1.00
C936   C     0.00000   0.71070   0.69141   0.00000  Uiso   1.00
Cl937  Cl    0.00000   0.65901   0.72080   0.00000  Uiso   1.00
Cl938  Cl   -0.00000   0.84099   0.94586   0.00000  Uiso   1.00
Cl939  Cl   -0.00000   0.84099   0.72080   0.00000  Uiso   1.00
Cl940  Cl    0.00000   0.65901   0.94586   0.00000  Uiso   1.00
Cl941  Cl    0.25000   0.90901   0.72080   0.00000  Uiso   1.00
Cl942  Cl    0.25000   0.59099   0.94586   0.00000  Uiso   1.00
Cl943  Cl    0.25000   0.59099   0.72080   0.00000  Uiso   1.00
Cl944  Cl    0.25000   0.90901   0.94586   0.00000  Uiso   1.00
Cu945  Cu    0.00000   0.75000   0.88022   0.00000  Uiso   1.00
Cu946  Cu    0.00000   0.75000   0.78645   0.00000  Uiso   1.00
Cu947  Cu    0.25000   0.50000   0.88022   0.00000  Uiso   1.00
Cu948  Cu    0.25000   0.50000   0.78645   0.00000  Uiso   1.00
N949   N     0.00000   0.75000   0.95069   0.00000  Uiso   1.00
N950   N    -0.00000   0.75000   0.71598   0.00000  Uiso   1.00
N951   N     0.25000   0.50000   0.95069   0.00000  Uiso   1.00
N952   N     0.25000   0.50000   0.71598   0.00000  Uiso   1.00
O953   O     0.04508   0.70491   0.87291   0.00000  Uiso   1.00
O954   O     0.20491   0.54509   0.79375   0.00000  Uiso   1.00
O955   O     0.20491   0.54509   0.87291   0.00000  Uiso   1.00
O956   O     0.29508   0.95491   0.79375   0.00000  Uiso   1.00
O957   O     0.20491   0.95491   0.79375   0.00000  Uiso   1.00
O958   O     0.29508   0.54509   0.87291   0.00000  Uiso   1.00
O959   O     0.29508   0.54509   0.79375   0.00000  Uiso   1.00
O960   O     0.20491   0.95491   0.87291   0.00000  Uiso   1.00
O961   O     0.45491   0.79509   0.79375   0.00000  Uiso   1.00
O962   O     0.45491   0.79509   0.87291   0.00000  Uiso   1.00
O963   O     0.04508   0.70491   0.79375   0.00000  Uiso   1.00
O964   O     0.45491   0.70491   0.79375   0.00000  Uiso   1.00
O965   O     0.04508   0.79509   0.87291   0.00000  Uiso   1.00
O966   O     0.04508   0.79509   0.79375   0.00000  Uiso   1.00
O967   O     0.45491   0.70491   0.87291   0.00000  Uiso   1.00
O968   O     0.29508   0.95491   0.87291   0.00000  Uiso   1.00
Br969  Br    0.89092   0.67696   0.73245   0.00000  Uiso   1.00
Br970  Br    0.85908   0.57304   0.93422   0.00000  Uiso   1.00
Br971  Br    0.85908   0.57303   0.73245   0.00000  Uiso   1.00
Br972  Br    0.64092   0.92697   0.93422   0.00000  Uiso   1.00
Br973  Br    0.85908   0.92697   0.93422   0.00000  Uiso   1.00
Br974  Br    0.64092   0.57303   0.73245   0.00000  Uiso   1.00
Br975  Br    0.64092   0.57304   0.93422   0.00000  Uiso   1.00
Br976  Br    0.85908   0.92697   0.73245   0.00000  Uiso   1.00
Br977  Br    0.60908   0.82304   0.93422   0.00000  Uiso   1.00
Br978  Br    0.60908   0.82303   0.73245   0.00000  Uiso   1.00
Br979  Br    0.89092   0.67697   0.93422   0.00000  Uiso   1.00
Br980  Br    0.60908   0.67697   0.93422   0.00000  Uiso   1.00
Br981  Br    0.89092   0.82303   0.73245   0.00000  Uiso   1.00
Br982  Br    0.89092   0.82304   0.93422   0.00000  Uiso   1.00
Br983  Br    0.60908   0.67697   0.73245   0.00000  Uiso   1.00
Br984  Br    0.64092   0.92696   0.73245   0.00000  Uiso   1.00
C985   C     0.56185   0.69324   0.83333   0.00000  Uiso   1.00
C986   C     0.50000   0.78930   0.97526   0.00000  Uiso   1.00
C987   C     0.50000   0.78930   0.69141   0.00000  Uiso   1.00
C988   C     0.50000   0.71070   0.97526   0.00000  Uiso   1.00
C989   C     0.75000   0.96070   0.69141   0.00000  Uiso   1.00
C990   C     0.75000   0.53930   0.97526   0.00000  Uiso   1.00
C991   C     0.75000   0.53930   0.69141   0.00000  Uiso   1.00
C992   C     0.75000   0.96070   0.97526   0.00000  Uiso   1.00
C993   C     0.88700   0.64446   0.79075   0.00000  Uiso   1.00
C994   C     0.61300   0.85554   0.87592   0.00000  Uiso   1.00
C995   C     0.61300   0.85554   0.79075   0.00000  Uiso   1.00
C996   C     0.93815   0.80676   0.83333   0.00000  Uiso   1.00
C997   C     0.88700   0.64446   0.87592   0.00000  Uiso   1.00
C998   C     0.61300   0.64446   0.87592   0.00000  Uiso   1.00
C999   C     0.88700   0.85554   0.79075   0.00000  Uiso   1.00
C1000  C     0.88700   0.85554   0.87592   0.00000  Uiso   1.00
C1001  C     0.61300   0.64446   0.79075   0.00000  Uiso   1.00
C1002  C     0.63700   0.89446   0.79075   0.00000  Uiso   1.00
C1003  C     0.86300   0.60554   0.87592   0.00000  Uiso   1.00
C1004  C     0.86300   0.60554   0.79075   0.00000  Uiso   1.00
C1005  C     0.63700   0.89446   0.87592   0.00000  Uiso   1.00
C1006  C     0.86300   0.89446   0.87592   0.00000  Uiso   1.00
C1007  C     0.93815   0.69324   0.83333   0.00000  Uiso   1.00
C1008  C     0.63700   0.60554   0.79075   0.00000  Uiso   1.00
C1009  C     0.63700   0.60554   0.87592   0.00000  Uiso   1.00
C1010  C     0.86300   0.89446   0.79075   0.00000  Uiso   1.00
C1011  C     0.59755   0.83824   0.83333   0.00000  Uiso   1.00
C1012  C     0.90245   0.66176   0.83333   0.00000  Uiso   1.00
C1013  C     0.90245   0.83824   0.83333   0.00000  Uiso   1.00
C1014  C     0.59755   0.66176   0.83333   0.00000  Uiso   1.00
C1015  C     0.84755   0.58824   0.83333   0.00000  Uiso   1.00
C1016  C     0.65245   0.91176   0.83333   0.00000  Uiso   1.00
C1017  C     0.65245   0.58824   0.83333   0.00000  Uiso   1.00
C1018  C     0.56185   0.80676   0.83333   0.00000  Uiso   1.00
C1019  C     0.84755   0.91176   0.83333   0.00000  Uiso   1.00
C1020  C     0.81185   0.94324   0.83333   0.00000  Uiso   1.00
C1021  C     0.68815   0.55676   0.83333   0.00000  Uiso   1.00
C1022  C     0.68815   0.94324   0.83333   0.00000  Uiso   1.00
C1023  C     0.81185   0.55676   0.83333   0.00000  Uiso   1.00
C1024  C     0.50000   0.71070   0.69141   0.00000  Uiso   1.00
Cl1025 Cl    0.50000   0.65901   0.72080   0.00000  Uiso   1.00
Cl1026 Cl    0.50000   0.84099   0.94586   0.00000  Uiso   1.00
Cl1027 Cl    0.50000   0.84099   0.72080   0.00000  Uiso   1.00
Cl1028 Cl    0.50000   0.65901   0.94586   0.00000  Uiso   1.00
Cl1029 Cl    0.75000   0.90901   0.72080   0.00000  Uiso   1.00
Cl1030 Cl    0.75000   0.59099   0.94586   0.00000  Uiso   1.00
Cl1031 Cl    0.75000   0.59099   0.72080   0.00000  Uiso   1.00
Cl1032 Cl    0.75000   0.90901   0.94586   0.00000  Uiso   1.00
Cu1033 Cu    0.50000   0.75000   0.88022   0.00000  Uiso   1.00
Cu1034 Cu    0.50000   0.75000   0.78645   0.00000  Uiso   1.00
Cu1035 Cu    0.75000   0.50000   0.88022   0.00000  Uiso   1.00
Cu1036 Cu    0.75000   0.50000   0.78645   0.00000  Uiso   1.00
N1037  N     0.50000   0.75000   0.95069   0.00000  Uiso   1.00
N1038  N     0.50000   0.75000   0.71598   0.00000  Uiso   1.00
N1039  N     0.75000   0.50000   0.95069   0.00000  Uiso   1.00
N1040  N     0.75000   0.50000   0.71598   0.00000  Uiso   1.00
O1041  O     0.54508   0.70491   0.87291   0.00000  Uiso   1.00
O1042  O     0.70491   0.54509   0.79375   0.00000  Uiso   1.00
O1043  O     0.70491   0.54509   0.87291   0.00000  Uiso   1.00
O1044  O     0.79508   0.95491   0.79375   0.00000  Uiso   1.00
O1045  O     0.70491   0.95491   0.79375   0.00000  Uiso   1.00
O1046  O     0.79508   0.54509   0.87291   0.00000  Uiso   1.00
O1047  O     0.79508   0.54509   0.79375   0.00000  Uiso   1.00
O1048  O     0.70491   0.95491   0.87291   0.00000  Uiso   1.00
O1049  O     0.95491   0.79509   0.79375   0.00000  Uiso   1.00
O1050  O     0.95491   0.79509   0.87291   0.00000  Uiso   1.00
O1051  O     0.54508   0.70491   0.79375   0.00000  Uiso   1.00
O1052  O     0.95491   0.70491   0.79375   0.00000  Uiso   1.00
O1053  O     0.54508   0.79509   0.87291   0.00000  Uiso   1.00
O1054  O     0.54508   0.79509   0.79375   0.00000  Uiso   1.00
O1055  O     0.95491   0.70491   0.87291   0.00000  Uiso   1.00
O1056  O     0.79508   0.95491   0.87291   0.00000  Uiso   1.00
loop_
_geom_bond_atom_site_label_1
_geom_bond_atom_site_label_2
_geom_bond_distance
_geom_bond_site_symmetry_2
_ccdc_geom_bond_type
Br1    C25     1.938   .     S
Br2    C35     1.938   .     S
Br3    C36     1.938   .     S
Br4    C37     1.938   .     S
Br5    C38     1.938   .     S
Br6    C40     1.938   .     S
Br7    C41     1.938   .     S
Br8    C42     1.938   .     S
Br9    C26     1.938   .     S
Br10   C27     1.938   .     S
Br11   C29     1.938   .     S
Br12   C30     1.938   .     S
Br13   C31     1.938   .     S
Br14   C32     1.938   .     S
Br15   C33     1.938   .     S
Br16   C34     1.938   .     S
C17    O73     1.300   .     A
C17    C46     1.471   .     S
C17    O83     1.300   .     A
C18    Cl58    1.764   .     S
C18    C371    1.418   .     S
C18    N69     1.373   .     S
C19    Cl59    1.764   .     S
C19    N70     1.373   .     A
C19    C722    1.418   1_554 S
C20    Cl60    1.764   .     S
C20    N69     1.373   .     A
C20    C408    1.418   .     S
C21    Cl61    1.764   .     S
C21    C728    1.418   1_554 S
C21    N248    1.373   .     S
C22    Cl62    1.764   .     S
C22    N71     1.373   .     A
C22    C375    1.418   .     S
C23    Cl63    1.764   .     S
C23    N72     1.373   .     A
C23    C726    1.418   1_554 S
C24    Cl64    1.764   .     S
C24    C373    1.418   .     S
C24    N247    1.373   .     S
C25    C44     1.413   .     A
C25    C36     1.392   .     A
C26    C43     1.413   .     A
C26    C37     1.392   .     A
C27    C34     1.392   .     A
C27    C43     1.413   .     A
C28    C45     1.471   .     S
C28    O82     1.300   .     A
C28    O81     1.300   .     A
C29    C44     1.413   .     A
C29    C35     1.392   .     A
C30    C41     1.392   .     A
C30    C46     1.413   .     A
C31    C42     1.392   .     A
C31    C45     1.413   .     A
C32    C45     1.413   .     A
C32    C38     1.392   .     A
C33    C46     1.413   .     A
C33    C40     1.392   .     A
C34    C48     1.413   .     A
C35    C47     1.413   .     A
C36    C47     1.413   .     A
C37    C48     1.413   .     A
C38    C51     1.413   .     A
C39    O87     1.300   .     A
C39    O84     1.300   .     A
C39    C44     1.471   .     S
C40    C49     1.413   .     A
C41    C49     1.413   .     A
C42    C51     1.413   .     A
C43    C50     1.471   .     S
C47    C55     1.471   .     S
C48    C54     1.471   .     S
C49    C53     1.471   .     S
C50    O85     1.300   .     A
C50    O86     1.300   .     A
C51    C52     1.471   .     S
C52    O88     1.300   .     A
C52    O76     1.300   .     A
C53    O74     1.300   .     A
C53    O75     1.300   .     A
C54    O77     1.300   .     A
C54    O80     1.300   .     A
C55    O78     1.300   .     A
C55    O79     1.300   .     A
C56    Cl57    1.764   .     S
C56    C724    1.418   1_554 S
C56    N70     1.373   .     S
Cu65   O73     1.976   .     S
Cu65   O85     1.976   .     S
Cu65   N69     2.019   .     S
Cu65   Cu66    2.687   .     S
Cu65   O170    1.976   1_455 S
Cu65   O175    1.976   1_455 S
Cu66   O83     1.976   .     S
Cu66   O86     1.976   .     S
Cu66   N70     2.019   .     S
Cu66   O169    1.976   1_455 S
Cu66   O172    1.976   1_455 S
Cu67   O78     1.976   .     S
Cu67   Cu68    2.687   .     S
Cu67   O75     1.976   .     S
Cu67   N71     2.019   .     S
Cu67   O256    1.976   1_545 S
Cu67   O264    1.976   1_545 S
Cu68   O74     1.976   .     S
Cu68   N72     2.019   .     S
Cu68   O79     1.976   .     S
Cu68   O252    1.976   1_545 S
Cu68   O253    1.976   1_545 S
N71    C200    1.373   1_545 S
N72    C197    1.373   1_545 S
O76    Cu244   1.976   .     S
O77    Cu244   1.976   .     S
O80    Cu243   1.976   .     S
O81    Cu154   1.976   .     S
O82    Cu153   1.976   .     S
O84    Cu154   1.976   .     S
O87    Cu153   1.976   .     S
O88    Cu243   1.976   .     S
Br89   C113    1.938   .     S
Br90   C123    1.938   .     S
Br91   C124    1.938   .     S
Br92   C125    1.938   .     S
Br93   C126    1.938   .     S
Br94   C128    1.938   .     S
Br95   C129    1.938   .     S
Br96   C130    1.938   .     S
Br97   C114    1.938   .     S
Br98   C115    1.938   .     S
Br99   C117    1.938   .     S
Br100  C118    1.938   .     S
Br101  C119    1.938   .     S
Br102  C120    1.938   .     S
Br103  C121    1.938   .     S
Br104  C122    1.938   .     S
C105   O161    1.300   .     A
C105   C134    1.471   .     S
C105   O171    1.300   .     A
C106   Cl146   1.764   .     S
C106   C459    1.418   .     S
C106   N157    1.373   .     S
C107   Cl147   1.764   .     S
C107   N158    1.373   .     A
C107   C810    1.418   1_554 S
C108   Cl148   1.764   .     S
C108   N157    1.373   .     A
C108   C496    1.418   .     S
C109   Cl149   1.764   .     S
C109   C816    1.418   1_554 S
C109   N336    1.373   .     S
C110   Cl150   1.764   .     S
C110   N159    1.373   .     A
C110   C463    1.418   .     S
C111   Cl151   1.764   .     S
C111   N160    1.373   .     A
C111   C814    1.418   1_554 S
C112   Cl152   1.764   .     S
C112   C461    1.418   .     S
C112   N335    1.373   .     S
C113   C132    1.413   .     A
C113   C124    1.392   .     A
C114   C131    1.413   .     A
C114   C125    1.392   .     A
C115   C122    1.392   .     A
C115   C131    1.413   .     A
C116   C133    1.471   .     S
C116   O170    1.300   .     A
C116   O169    1.300   .     A
C117   C132    1.413   .     A
C117   C123    1.392   .     A
C118   C129    1.392   .     A
C118   C134    1.413   .     A
C119   C130    1.392   .     A
C119   C133    1.413   .     A
C120   C133    1.413   .     A
C120   C126    1.392   .     A
C121   C134    1.413   .     A
C121   C128    1.392   .     A
C122   C136    1.413   .     A
C123   C135    1.413   .     A
C124   C135    1.413   .     A
C125   C136    1.413   .     A
C126   C139    1.413   .     A
C127   O175    1.300   .     A
C127   O172    1.300   .     A
C127   C132    1.471   .     S
C128   C137    1.413   .     A
C129   C137    1.413   .     A
C130   C139    1.413   .     A
C131   C138    1.471   .     S
C135   C143    1.471   .     S
C136   C142    1.471   .     S
C137   C141    1.471   .     S
C138   O173    1.300   .     A
C138   O174    1.300   .     A
C139   C140    1.471   .     S
C140   O176    1.300   .     A
C140   O164    1.300   .     A
C141   O162    1.300   .     A
C141   O163    1.300   .     A
C142   O165    1.300   .     A
C142   O168    1.300   .     A
C143   O166    1.300   .     A
C143   O167    1.300   .     A
C144   Cl145   1.764   .     S
C144   C812    1.418   1_554 S
C144   N158    1.373   .     S
Cu153  O161    1.976   .     S
Cu153  O173    1.976   .     S
Cu153  N157    2.019   .     S
Cu153  Cu154   2.687   .     S
Cu154  O171    1.976   .     S
Cu154  O174    1.976   .     S
Cu154  N158    2.019   .     S
Cu155  O166    1.976   .     S
Cu155  Cu156   2.687   .     S
Cu155  O163    1.976   .     S
Cu155  N159    2.019   .     S
Cu155  O344    1.976   1_545 S
Cu155  O352    1.976   1_545 S
Cu156  O162    1.976   .     S
Cu156  N160    2.019   .     S
Cu156  O167    1.976   .     S
Cu156  O340    1.976   1_545 S
Cu156  O341    1.976   1_545 S
N159   C288    1.373   1_545 S
N160   C285    1.373   1_545 S
O164   Cu332   1.976   .     S
O165   Cu332   1.976   .     S
O168   Cu331   1.976   .     S
O169   Cu66    1.976   1_655 S
O170   Cu65    1.976   1_655 S
O172   Cu66    1.976   1_655 S
O175   Cu65    1.976   1_655 S
O176   Cu331   1.976   .     S
Br177  C201    1.938   .     S
Br178  C211    1.938   .     S
Br179  C212    1.938   .     S
Br180  C213    1.938   .     S
Br181  C214    1.938   .     S
Br182  C216    1.938   .     S
Br183  C217    1.938   .     S
Br184  C218    1.938   .     S
Br185  C202    1.938   .     S
Br186  C203    1.938   .     S
Br187  C205    1.938   .     S
Br188  C206    1.938   .     S
Br189  C207    1.938   .     S
Br190  C208    1.938   .     S
Br191  C209    1.938   .     S
Br192  C210    1.938   .     S
C193   O249    1.300   .     A
C193   C222    1.471   .     S
C193   O259    1.300   .     A
C194   Cl234   1.764   .     S
C194   C547    1.418   .     S
C194   N245    1.373   .     S
C195   Cl235   1.764   .     S
C195   N246    1.373   .     A
C195   C898    1.418   1_554 S
C196   Cl236   1.764   .     S
C196   N245    1.373   .     A
C196   C584    1.418   .     S
C197   Cl237   1.764   .     S
C197   C904    1.418   1_554 S
C197   N72     1.373   1_565 S
C198   Cl238   1.764   .     S
C198   N247    1.373   .     A
C198   C551    1.418   .     S
C199   Cl239   1.764   .     S
C199   N248    1.373   .     A
C199   C902    1.418   1_554 S
C200   Cl240   1.764   .     S
C200   C549    1.418   .     S
C200   N71     1.373   1_565 S
C201   C220    1.413   .     A
C201   C212    1.392   .     A
C202   C219    1.413   .     A
C202   C213    1.392   .     A
C203   C210    1.392   .     A
C203   C219    1.413   .     A
C204   C221    1.471   .     S
C204   O258    1.300   .     A
C204   O257    1.300   .     A
C205   C220    1.413   .     A
C205   C211    1.392   .     A
C206   C217    1.392   .     A
C206   C222    1.413   .     A
C207   C218    1.392   .     A
C207   C221    1.413   .     A
C208   C221    1.413   .     A
C208   C214    1.392   .     A
C209   C222    1.413   .     A
C209   C216    1.392   .     A
C210   C224    1.413   .     A
C211   C223    1.413   .     A
C212   C223    1.413   .     A
C213   C224    1.413   .     A
C214   C227    1.413   .     A
C215   O263    1.300   .     A
C215   O260    1.300   .     A
C215   C220    1.471   .     S
C216   C225    1.413   .     A
C217   C225    1.413   .     A
C218   C227    1.413   .     A
C219   C226    1.471   .     S
C223   C231    1.471   .     S
C224   C230    1.471   .     S
C225   C229    1.471   .     S
C226   O261    1.300   .     A
C226   O262    1.300   .     A
C227   C228    1.471   .     S
C228   O264    1.300   .     A
C228   O252    1.300   .     A
C229   O250    1.300   .     A
C229   O251    1.300   .     A
C230   O253    1.300   .     A
C230   O256    1.300   .     A
C231   O254    1.300   .     A
C231   O255    1.300   .     A
C232   Cl233   1.764   .     S
C232   C900    1.418   1_554 S
C232   N246    1.373   .     S
Cu241  O249    1.976   .     S
Cu241  O261    1.976   .     S
Cu241  N245    2.019   .     S
Cu241  Cu242   2.687   .     S
Cu241  O346    1.976   1_455 S
Cu241  O351    1.976   1_455 S
Cu242  O259    1.976   .     S
Cu242  O262    1.976   .     S
Cu242  N246    2.019   .     S
Cu242  O345    1.976   1_455 S
Cu242  O348    1.976   1_455 S
Cu243  O254    1.976   .     S
Cu243  Cu244   2.687   .     S
Cu243  O251    1.976   .     S
Cu243  N247    2.019   .     S
Cu244  O250    1.976   .     S
Cu244  N248    2.019   .     S
Cu244  O255    1.976   .     S
O252   Cu68    1.976   1_565 S
O253   Cu68    1.976   1_565 S
O256   Cu67    1.976   1_565 S
O257   Cu330   1.976   .     S
O258   Cu329   1.976   .     S
O260   Cu330   1.976   .     S
O263   Cu329   1.976   .     S
O264   Cu67    1.976   1_565 S
Br265  C289    1.938   .     S
Br266  C299    1.938   .     S
Br267  C300    1.938   .     S
Br268  C301    1.938   .     S
Br269  C302    1.938   .     S
Br270  C304    1.938   .     S
Br271  C305    1.938   .     S
Br272  C306    1.938   .     S
Br273  C290    1.938   .     S
Br274  C291    1.938   .     S
Br275  C293    1.938   .     S
Br276  C294    1.938   .     S
Br277  C295    1.938   .     S
Br278  C296    1.938   .     S
Br279  C297    1.938   .     S
Br280  C298    1.938   .     S
C281   O337    1.300   .     A
C281   C310    1.471   .     S
C281   O347    1.300   .     A
C282   Cl322   1.764   .     S
C282   C635    1.418   .     S
C282   N333    1.373   .     S
C283   Cl323   1.764   .     S
C283   N334    1.373   .     A
C283   C986    1.418   1_554 S
C284   Cl324   1.764   .     S
C284   N333    1.373   .     A
C284   C672    1.418   .     S
C285   Cl325   1.764   .     S
C285   C992    1.418   1_554 S
C285   N160    1.373   1_565 S
C286   Cl326   1.764   .     S
C286   N335    1.373   .     A
C286   C639    1.418   .     S
C287   Cl327   1.764   .     S
C287   N336    1.373   .     A
C287   C990    1.418   1_554 S
C288   Cl328   1.764   .     S
C288   C637    1.418   .     S
C288   N159    1.373   1_565 S
C289   C308    1.413   .     A
C289   C300    1.392   .     A
C290   C307    1.413   .     A
C290   C301    1.392   .     A
C291   C298    1.392   .     A
C291   C307    1.413   .     A
C292   C309    1.471   .     S
C292   O346    1.300   .     A
C292   O345    1.300   .     A
C293   C308    1.413   .     A
C293   C299    1.392   .     A
C294   C305    1.392   .     A
C294   C310    1.413   .     A
C295   C306    1.392   .     A
C295   C309    1.413   .     A
C296   C309    1.413   .     A
C296   C302    1.392   .     A
C297   C310    1.413   .     A
C297   C304    1.392   .     A
C298   C312    1.413   .     A
C299   C311    1.413   .     A
C300   C311    1.413   .     A
C301   C312    1.413   .     A
C302   C315    1.413   .     A
C303   O351    1.300   .     A
C303   O348    1.300   .     A
C303   C308    1.471   .     S
C304   C313    1.413   .     A
C305   C313    1.413   .     A
C306   C315    1.413   .     A
C307   C314    1.471   .     S
C311   C319    1.471   .     S
C312   C318    1.471   .     S
C313   C317    1.471   .     S
C314   O349    1.300   .     A
C314   O350    1.300   .     A
C315   C316    1.471   .     S
C316   O352    1.300   .     A
C316   O340    1.300   .     A
C317   O338    1.300   .     A
C317   O339    1.300   .     A
C318   O341    1.300   .     A
C318   O344    1.300   .     A
C319   O342    1.300   .     A
C319   O343    1.300   .     A
C320   Cl321   1.764   .     S
C320   C988    1.418   1_554 S
C320   N334    1.373   .     S
Cu329  O337    1.976   .     S
Cu329  O349    1.976   .     S
Cu329  N333    2.019   .     S
Cu329  Cu330   2.687   .     S
Cu330  O347    1.976   .     S
Cu330  O350    1.976   .     S
Cu330  N334    2.019   .     S
Cu331  O342    1.976   .     S
Cu331  Cu332   2.687   .     S
Cu331  O339    1.976   .     S
Cu331  N335    2.019   .     S
Cu332  O338    1.976   .     S
Cu332  N336    2.019   .     S
Cu332  O343    1.976   .     S
O340   Cu156   1.976   1_565 S
O341   Cu156   1.976   1_565 S
O344   Cu155   1.976   1_565 S
O345   Cu242   1.976   1_655 S
O346   Cu241   1.976   1_655 S
O348   Cu242   1.976   1_655 S
O351   Cu241   1.976   1_655 S
O352   Cu155   1.976   1_565 S
Br353  C377    1.938   .     S
Br354  C387    1.938   .     S
Br355  C388    1.938   .     S
Br356  C389    1.938   .     S
Br357  C390    1.938   .     S
Br358  C392    1.938   .     S
Br359  C393    1.938   .     S
Br360  C394    1.938   .     S
Br361  C378    1.938   .     S
Br362  C379    1.938   .     S
Br363  C381    1.938   .     S
Br364  C382    1.938   .     S
Br365  C383    1.938   .     S
Br366  C384    1.938   .     S
Br367  C385    1.938   .     S
Br368  C386    1.938   .     S
C369   O425    1.300   .     A
C369   C398    1.471   .     S
C369   O435    1.300   .     A
C370   Cl410   1.764   .     S
C370   C723    1.418   .     S
C370   N421    1.373   .     S
C371   Cl411   1.764   .     S
C371   N422    1.373   .     A
C372   Cl412   1.764   .     S
C372   N421    1.373   .     A
C372   C760    1.418   .     S
C373   Cl413   1.764   .     S
C373   N600    1.373   .     S
C374   Cl414   1.764   .     S
C374   N423    1.373   .     A
C374   C727    1.418   .     S
C375   Cl415   1.764   .     S
C375   N424    1.373   .     A
C376   Cl416   1.764   .     S
C376   C725    1.418   .     S
C376   N599    1.373   .     S
C377   C396    1.413   .     A
C377   C388    1.392   .     A
C378   C395    1.413   .     A
C378   C389    1.392   .     A
C379   C386    1.392   .     A
C379   C395    1.413   .     A
C380   C397    1.471   .     S
C380   O434    1.300   .     A
C380   O433    1.300   .     A
C381   C396    1.413   .     A
C381   C387    1.392   .     A
C382   C393    1.392   .     A
C382   C398    1.413   .     A
C383   C394    1.392   .     A
C383   C397    1.413   .     A
C384   C397    1.413   .     A
C384   C390    1.392   .     A
C385   C398    1.413   .     A
C385   C392    1.392   .     A
C386   C400    1.413   .     A
C387   C399    1.413   .     A
C388   C399    1.413   .     A
C389   C400    1.413   .     A
C390   C403    1.413   .     A
C391   O439    1.300   .     A
C391   O436    1.300   .     A
C391   C396    1.471   .     S
C392   C401    1.413   .     A
C393   C401    1.413   .     A
C394   C403    1.413   .     A
C395   C402    1.471   .     S
C399   C407    1.471   .     S
C400   C406    1.471   .     S
C401   C405    1.471   .     S
C402   O437    1.300   .     A
C402   O438    1.300   .     A
C403   C404    1.471   .     S
C404   O440    1.300   .     A
C404   O428    1.300   .     A
C405   O426    1.300   .     A
C405   O427    1.300   .     A
C406   O429    1.300   .     A
C406   O432    1.300   .     A
C407   O430    1.300   .     A
C407   O431    1.300   .     A
C408   Cl409   1.764   .     S
C408   N422    1.373   .     S
Cu417  O425    1.976   .     S
Cu417  O437    1.976   .     S
Cu417  N421    2.019   .     S
Cu417  Cu418   2.687   .     S
Cu417  O522    1.976   1_455 S
Cu417  O527    1.976   1_455 S
Cu418  O435    1.976   .     S
Cu418  O438    1.976   .     S
Cu418  N422    2.019   .     S
Cu418  O521    1.976   1_455 S
Cu418  O524    1.976   1_455 S
Cu419  O430    1.976   .     S
Cu419  Cu420   2.687   .     S
Cu419  O427    1.976   .     S
Cu419  N423    2.019   .     S
Cu419  O608    1.976   1_545 S
Cu419  O616    1.976   1_545 S
Cu420  O426    1.976   .     S
Cu420  N424    2.019   .     S
Cu420  O431    1.976   .     S
Cu420  O604    1.976   1_545 S
Cu420  O605    1.976   1_545 S
N423   C552    1.373   1_545 S
N424   C549    1.373   1_545 S
O428   Cu596   1.976   .     S
O429   Cu596   1.976   .     S
O432   Cu595   1.976   .     S
O433   Cu506   1.976   .     S
O434   Cu505   1.976   .     S
O436   Cu506   1.976   .     S
O439   Cu505   1.976   .     S
O440   Cu595   1.976   .     S
Br441  C465    1.938   .     S
Br442  C475    1.938   .     S
Br443  C476    1.938   .     S
Br444  C477    1.938   .     S
Br445  C478    1.938   .     S
Br446  C480    1.938   .     S
Br447  C481    1.938   .     S
Br448  C482    1.938   .     S
Br449  C466    1.938   .     S
Br450  C467    1.938   .     S
Br451  C469    1.938   .     S
Br452  C470    1.938   .     S
Br453  C471    1.938   .     S
Br454  C472    1.938   .     S
Br455  C473    1.938   .     S
Br456  C474    1.938   .     S
C457   O513    1.300   .     A
C457   C486    1.471   .     S
C457   O523    1.300   .     A
C458   Cl498   1.764   .     S
C458   C811    1.418   .     S
C458   N509    1.373   .     S
C459   Cl499   1.764   .     S
C459   N510    1.373   .     A
C460   Cl500   1.764   .     S
C460   N509    1.373   .     A
C460   C848    1.418   .     S
C461   Cl501   1.764   .     S
C461   N688    1.373   .     S
C462   Cl502   1.764   .     S
C462   N511    1.373   .     A
C462   C815    1.418   .     S
C463   Cl503   1.764   .     S
C463   N512    1.373   .     A
C464   Cl504   1.764   .     S
C464   C813    1.418   .     S
C464   N687    1.373   .     S
C465   C484    1.413   .     A
C465   C476    1.392   .     A
C466   C483    1.413   .     A
C466   C477    1.392   .     A
C467   C474    1.392   .     A
C467   C483    1.413   .     A
C468   C485    1.471   .     S
C468   O522    1.300   .     A
C468   O521    1.300   .     A
C469   C484    1.413   .     A
C469   C475    1.392   .     A
C470   C481    1.392   .     A
C470   C486    1.413   .     A
C471   C482    1.392   .     A
C471   C485    1.413   .     A
C472   C485    1.413   .     A
C472   C478    1.392   .     A
C473   C486    1.413   .     A
C473   C480    1.392   .     A
C474   C488    1.413   .     A
C475   C487    1.413   .     A
C476   C487    1.413   .     A
C477   C488    1.413   .     A
C478   C491    1.413   .     A
C479   O527    1.300   .     A
C479   O524    1.300   .     A
C479   C484    1.471   .     S
C480   C489    1.413   .     A
C481   C489    1.413   .     A
C482   C491    1.413   .     A
C483   C490    1.471   .     S
C487   C495    1.471   .     S
C488   C494    1.471   .     S
C489   C493    1.471   .     S
C490   O525    1.300   .     A
C490   O526    1.300   .     A
C491   C492    1.471   .     S
C492   O528    1.300   .     A
C492   O516    1.300   .     A
C493   O514    1.300   .     A
C493   O515    1.300   .     A
C494   O517    1.300   .     A
C494   O520    1.300   .     A
C495   O518    1.300   .     A
C495   O519    1.300   .     A
C496   Cl497   1.764   .     S
C496   N510    1.373   .     S
Cu505  O513    1.976   .     S
Cu505  O525    1.976   .     S
Cu505  N509    2.019   .     S
Cu505  Cu506   2.687   .     S
Cu506  O523    1.976   .     S
Cu506  O526    1.976   .     S
Cu506  N510    2.019   .     S
Cu507  O518    1.976   .     S
Cu507  Cu508   2.687   .     S
Cu507  O515    1.976   .     S
Cu507  N511    2.019   .     S
Cu507  O696    1.976   1_545 S
Cu507  O704    1.976   1_545 S
Cu508  O514    1.976   .     S
Cu508  N512    2.019   .     S
Cu508  O519    1.976   .     S
Cu508  O692    1.976   1_545 S
Cu508  O693    1.976   1_545 S
N511   C640    1.373   1_545 S
N512   C637    1.373   1_545 S
O516   Cu684   1.976   .     S
O517   Cu684   1.976   .     S
O520   Cu683   1.976   .     S
O521   Cu418   1.976   1_655 S
O522   Cu417   1.976   1_655 S
O524   Cu418   1.976   1_655 S
O527   Cu417   1.976   1_655 S
O528   Cu683   1.976   .     S
Br529  C553    1.938   .     S
Br530  C563    1.938   .     S
Br531  C564    1.938   .     S
Br532  C565    1.938   .     S
Br533  C566    1.938   .     S
Br534  C568    1.938   .     S
Br535  C569    1.938   .     S
Br536  C570    1.938   .     S
Br537  C554    1.938   .     S
Br538  C555    1.938   .     S
Br539  C557    1.938   .     S
Br540  C558    1.938   .     S
Br541  C559    1.938   .     S
Br542  C560    1.938   .     S
Br543  C561    1.938   .     S
Br544  C562    1.938   .     S
C545   O601    1.300   .     A
C545   C574    1.471   .     S
C545   O611    1.300   .     A
C546   Cl586   1.764   .     S
C546   C899    1.418   .     S
C546   N597    1.373   .     S
C547   Cl587   1.764   .     S
C547   N598    1.373   .     A
C548   Cl588   1.764   .     S
C548   N597    1.373   .     A
C548   C936    1.418   .     S
C549   Cl589   1.764   .     S
C549   N424    1.373   1_565 S
C550   Cl590   1.764   .     S
C550   N599    1.373   .     A
C550   C903    1.418   .     S
C551   Cl591   1.764   .     S
C551   N600    1.373   .     A
C552   Cl592   1.764   .     S
C552   C901    1.418   .     S
C552   N423    1.373   1_565 S
C553   C572    1.413   .     A
C553   C564    1.392   .     A
C554   C571    1.413   .     A
C554   C565    1.392   .     A
C555   C562    1.392   .     A
C555   C571    1.413   .     A
C556   C573    1.471   .     S
C556   O610    1.300   .     A
C556   O609    1.300   .     A
C557   C572    1.413   .     A
C557   C563    1.392   .     A
C558   C569    1.392   .     A
C558   C574    1.413   .     A
C559   C570    1.392   .     A
C559   C573    1.413   .     A
C560   C573    1.413   .     A
C560   C566    1.392   .     A
C561   C574    1.413   .     A
C561   C568    1.392   .     A
C562   C576    1.413   .     A
C563   C575    1.413   .     A
C564   C575    1.413   .     A
C565   C576    1.413   .     A
C566   C579    1.413   .     A
C567   O615    1.300   .     A
C567   O612    1.300   .     A
C567   C572    1.471   .     S
C568   C577    1.413   .     A
C569   C577    1.413   .     A
C570   C579    1.413   .     A
C571   C578    1.471   .     S
C575   C583    1.471   .     S
C576   C582    1.471   .     S
C577   C581    1.471   .     S
C578   O613    1.300   .     A
C578   O614    1.300   .     A
C579   C580    1.471   .     S
C580   O616    1.300   .     A
C580   O604    1.300   .     A
C581   O602    1.300   .     A
C581   O603    1.300   .     A
C582   O605    1.300   .     A
C582   O608    1.300   .     A
C583   O606    1.300   .     A
C583   O607    1.300   .     A
C584   Cl585   1.764   .     S
C584   N598    1.373   .     S
Cu593  O601    1.976   .     S
Cu593  O613    1.976   .     S
Cu593  N597    2.019   .     S
Cu593  Cu594   2.687   .     S
Cu593  O698    1.976   1_455 S
Cu593  O703    1.976   1_455 S
Cu594  O611    1.976   .     S
Cu594  O614    1.976   .     S
Cu594  N598    2.019   .     S
Cu594  O697    1.976   1_455 S
Cu594  O700    1.976   1_455 S
Cu595  O606    1.976   .     S
Cu595  Cu596   2.687   .     S
Cu595  O603    1.976   .     S
Cu595  N599    2.019   .     S
Cu596  O602    1.976   .     S
Cu596  N600    2.019   .     S
Cu596  O607    1.976   .     S
O604   Cu420   1.976   1_565 S
O605   Cu420   1.976   1_565 S
O608   Cu419   1.976   1_565 S
O609   Cu682   1.976   .     S
O610   Cu681   1.976   .     S
O612   Cu682   1.976   .     S
O615   Cu681   1.976   .     S
O616   Cu419   1.976   1_565 S
Br617  C641    1.938   .     S
Br618  C651    1.938   .     S
Br619  C652    1.938   .     S
Br620  C653    1.938   .     S
Br621  C654    1.938   .     S
Br622  C656    1.938   .     S
Br623  C657    1.938   .     S
Br624  C658    1.938   .     S
Br625  C642    1.938   .     S
Br626  C643    1.938   .     S
Br627  C645    1.938   .     S
Br628  C646    1.938   .     S
Br629  C647    1.938   .     S
Br630  C648    1.938   .     S
Br631  C649    1.938   .     S
Br632  C650    1.938   .     S
C633   O689    1.300   .     A
C633   C662    1.471   .     S
C633   O699    1.300   .     A
C634   Cl674   1.764   .     S
C634   C987    1.418   .     S
C634   N685    1.373   .     S
C635   Cl675   1.764   .     S
C635   N686    1.373   .     A
C636   Cl676   1.764   .     S
C636   N685    1.373   .     A
C636   C1024   1.418   .     S
C637   Cl677   1.764   .     S
C637   N512    1.373   1_565 S
C638   Cl678   1.764   .     S
C638   N687    1.373   .     A
C638   C991    1.418   .     S
C639   Cl679   1.764   .     S
C639   N688    1.373   .     A
C640   Cl680   1.764   .     S
C640   C989    1.418   .     S
C640   N511    1.373   1_565 S
C641   C660    1.413   .     A
C641   C652    1.392   .     A
C642   C659    1.413   .     A
C642   C653    1.392   .     A
C643   C650    1.392   .     A
C643   C659    1.413   .     A
C644   C661    1.471   .     S
C644   O698    1.300   .     A
C644   O697    1.300   .     A
C645   C660    1.413   .     A
C645   C651    1.392   .     A
C646   C657    1.392   .     A
C646   C662    1.413   .     A
C647   C658    1.392   .     A
C647   C661    1.413   .     A
C648   C661    1.413   .     A
C648   C654    1.392   .     A
C649   C662    1.413   .     A
C649   C656    1.392   .     A
C650   C664    1.413   .     A
C651   C663    1.413   .     A
C652   C663    1.413   .     A
C653   C664    1.413   .     A
C654   C667    1.413   .     A
C655   O703    1.300   .     A
C655   O700    1.300   .     A
C655   C660    1.471   .     S
C656   C665    1.413   .     A
C657   C665    1.413   .     A
C658   C667    1.413   .     A
C659   C666    1.471   .     S
C663   C671    1.471   .     S
C664   C670    1.471   .     S
C665   C669    1.471   .     S
C666   O701    1.300   .     A
C666   O702    1.300   .     A
C667   C668    1.471   .     S
C668   O704    1.300   .     A
C668   O692    1.300   .     A
C669   O690    1.300   .     A
C669   O691    1.300   .     A
C670   O693    1.300   .     A
C670   O696    1.300   .     A
C671   O694    1.300   .     A
C671   O695    1.300   .     A
C672   Cl673   1.764   .     S
C672   N686    1.373   .     S
Cu681  O689    1.976   .     S
Cu681  O701    1.976   .     S
Cu681  N685    2.019   .     S
Cu681  Cu682   2.687   .     S
Cu682  O699    1.976   .     S
Cu682  O702    1.976   .     S
Cu682  N686    2.019   .     S
Cu683  O694    1.976   .     S
Cu683  Cu684   2.687   .     S
Cu683  O691    1.976   .     S
Cu683  N687    2.019   .     S
Cu684  O690    1.976   .     S
Cu684  N688    2.019   .     S
Cu684  O695    1.976   .     S
O692   Cu508   1.976   1_565 S
O693   Cu508   1.976   1_565 S
O696   Cu507   1.976   1_565 S
O697   Cu594   1.976   1_655 S
O698   Cu593   1.976   1_655 S
O700   Cu594   1.976   1_655 S
O703   Cu593   1.976   1_655 S
O704   Cu507   1.976   1_565 S
Br705  C729    1.938   .     S
Br706  C739    1.938   .     S
Br707  C740    1.938   .     S
Br708  C741    1.938   .     S
Br709  C742    1.938   .     S
Br710  C744    1.938   .     S
Br711  C745    1.938   .     S
Br712  C746    1.938   .     S
Br713  C730    1.938   .     S
Br714  C731    1.938   .     S
Br715  C733    1.938   .     S
Br716  C734    1.938   .     S
Br717  C735    1.938   .     S
Br718  C736    1.938   .     S
Br719  C737    1.938   .     S
Br720  C738    1.938   .     S
C721   O777    1.300   .     A
C721   C750    1.471   .     S
C721   O787    1.300   .     A
C722   Cl762   1.764   .     S
C722   C19     1.418   1_556 S
C722   N773    1.373   .     S
C723   Cl763   1.764   .     S
C723   N774    1.373   .     A
C724   Cl764   1.764   .     S
C724   N773    1.373   .     A
C724   C56     1.418   1_556 S
C725   Cl765   1.764   .     S
C725   N952    1.373   .     S
C726   Cl766   1.764   .     S
C726   N775    1.373   .     A
C726   C23     1.418   1_556 S
C727   Cl767   1.764   .     S
C727   N776    1.373   .     A
C728   Cl768   1.764   .     S
C728   C21     1.418   1_556 S
C728   N951    1.373   .     S
C729   C748    1.413   .     A
C729   C740    1.392   .     A
C730   C747    1.413   .     A
C730   C741    1.392   .     A
C731   C738    1.392   .     A
C731   C747    1.413   .     A
C732   C749    1.471   .     S
C732   O786    1.300   .     A
C732   O785    1.300   .     A
C733   C748    1.413   .     A
C733   C739    1.392   .     A
C734   C745    1.392   .     A
C734   C750    1.413   .     A
C735   C746    1.392   .     A
C735   C749    1.413   .     A
C736   C749    1.413   .     A
C736   C742    1.392   .     A
C737   C750    1.413   .     A
C737   C744    1.392   .     A
C738   C752    1.413   .     A
C739   C751    1.413   .     A
C740   C751    1.413   .     A
C741   C752    1.413   .     A
C742   C755    1.413   .     A
C743   O791    1.300   .     A
C743   O788    1.300   .     A
C743   C748    1.471   .     S
C744   C753    1.413   .     A
C745   C753    1.413   .     A
C746   C755    1.413   .     A
C747   C754    1.471   .     S
C751   C759    1.471   .     S
C752   C758    1.471   .     S
C753   C757    1.471   .     S
C754   O789    1.300   .     A
C754   O790    1.300   .     A
C755   C756    1.471   .     S
C756   O792    1.300   .     A
C756   O780    1.300   .     A
C757   O778    1.300   .     A
C757   O779    1.300   .     A
C758   O781    1.300   .     A
C758   O784    1.300   .     A
C759   O782    1.300   .     A
C759   O783    1.300   .     A
C760   Cl761   1.764   .     S
C760   N774    1.373   .     S
Cu769  O777    1.976   .     S
Cu769  O789    1.976   .     S
Cu769  N773    2.019   .     S
Cu769  Cu770   2.687   .     S
Cu769  O874    1.976   1_455 S
Cu769  O879    1.976   1_455 S
Cu770  O787    1.976   .     S
Cu770  O790    1.976   .     S
Cu770  N774    2.019   .     S
Cu770  O873    1.976   1_455 S
Cu770  O876    1.976   1_455 S
Cu771  O782    1.976   .     S
Cu771  Cu772   2.687   .     S
Cu771  O779    1.976   .     S
Cu771  N775    2.019   .     S
Cu771  O960    1.976   1_545 S
Cu771  O968    1.976   1_545 S
Cu772  O778    1.976   .     S
Cu772  N776    2.019   .     S
Cu772  O783    1.976   .     S
Cu772  O956    1.976   1_545 S
Cu772  O957    1.976   1_545 S
N775   C904    1.373   1_545 S
N776   C901    1.373   1_545 S
O780   Cu948   1.976   .     S
O781   Cu948   1.976   .     S
O784   Cu947   1.976   .     S
O785   Cu858   1.976   .     S
O786   Cu857   1.976   .     S
O788   Cu858   1.976   .     S
O791   Cu857   1.976   .     S
O792   Cu947   1.976   .     S
Br793  C817    1.938   .     S
Br794  C827    1.938   .     S
Br795  C828    1.938   .     S
Br796  C829    1.938   .     S
Br797  C830    1.938   .     S
Br798  C832    1.938   .     S
Br799  C833    1.938   .     S
Br800  C834    1.938   .     S
Br801  C818    1.938   .     S
Br802  C819    1.938   .     S
Br803  C821    1.938   .     S
Br804  C822    1.938   .     S
Br805  C823    1.938   .     S
Br806  C824    1.938   .     S
Br807  C825    1.938   .     S
Br808  C826    1.938   .     S
C809   O865    1.300   .     A
C809   C838    1.471   .     S
C809   O875    1.300   .     A
C810   Cl850   1.764   .     S
C810   C107    1.418   1_556 S
C810   N861    1.373   .     S
C811   Cl851   1.764   .     S
C811   N862    1.373   .     A
C812   Cl852   1.764   .     S
C812   N861    1.373   .     A
C812   C144    1.418   1_556 S
C813   Cl853   1.764   .     S
C813   N1040   1.373   .     S
C814   Cl854   1.764   .     S
C814   N863    1.373   .     A
C814   C111    1.418   1_556 S
C815   Cl855   1.764   .     S
C815   N864    1.373   .     A
C816   Cl856   1.764   .     S
C816   C109    1.418   1_556 S
C816   N1039   1.373   .     S
C817   C836    1.413   .     A
C817   C828    1.392   .     A
C818   C835    1.413   .     A
C818   C829    1.392   .     A
C819   C826    1.392   .     A
C819   C835    1.413   .     A
C820   C837    1.471   .     S
C820   O874    1.300   .     A
C820   O873    1.300   .     A
C821   C836    1.413   .     A
C821   C827    1.392   .     A
C822   C833    1.392   .     A
C822   C838    1.413   .     A
C823   C834    1.392   .     A
C823   C837    1.413   .     A
C824   C837    1.413   .     A
C824   C830    1.392   .     A
C825   C838    1.413   .     A
C825   C832    1.392   .     A
C826   C840    1.413   .     A
C827   C839    1.413   .     A
C828   C839    1.413   .     A
C829   C840    1.413   .     A
C830   C843    1.413   .     A
C831   O879    1.300   .     A
C831   O876    1.300   .     A
C831   C836    1.471   .     S
C832   C841    1.413   .     A
C833   C841    1.413   .     A
C834   C843    1.413   .     A
C835   C842    1.471   .     S
C839   C847    1.471   .     S
C840   C846    1.471   .     S
C841   C845    1.471   .     S
C842   O877    1.300   .     A
C842   O878    1.300   .     A
C843   C844    1.471   .     S
C844   O880    1.300   .     A
C844   O868    1.300   .     A
C845   O866    1.300   .     A
C845   O867    1.300   .     A
C846   O869    1.300   .     A
C846   O872    1.300   .     A
C847   O870    1.300   .     A
C847   O871    1.300   .     A
C848   Cl849   1.764   .     S
C848   N862    1.373   .     S
Cu857  O865    1.976   .     S
Cu857  O877    1.976   .     S
Cu857  N861    2.019   .     S
Cu857  Cu858   2.687   .     S
Cu858  O875    1.976   .     S
Cu858  O878    1.976   .     S
Cu858  N862    2.019   .     S
Cu859  O870    1.976   .     S
Cu859  Cu860   2.687   .     S
Cu859  O867    1.976   .     S
Cu859  N863    2.019   .     S
Cu859  O1048   1.976   1_545 S
Cu859  O1056   1.976   1_545 S
Cu860  O866    1.976   .     S
Cu860  N864    2.019   .     S
Cu860  O871    1.976   .     S
Cu860  O1044   1.976   1_545 S
Cu860  O1045   1.976   1_545 S
N863   C992    1.373   1_545 S
N864   C989    1.373   1_545 S
O868   Cu1036  1.976   .     S
O869   Cu1036  1.976   .     S
O872   Cu1035  1.976   .     S
O873   Cu770   1.976   1_655 S
O874   Cu769   1.976   1_655 S
O876   Cu770   1.976   1_655 S
O879   Cu769   1.976   1_655 S
O880   Cu1035  1.976   .     S
Br881  C905    1.938   .     S
Br882  C915    1.938   .     S
Br883  C916    1.938   .     S
Br884  C917    1.938   .     S
Br885  C918    1.938   .     S
Br886  C920    1.938   .     S
Br887  C921    1.938   .     S
Br888  C922    1.938   .     S
Br889  C906    1.938   .     S
Br890  C907    1.938   .     S
Br891  C909    1.938   .     S
Br892  C910    1.938   .     S
Br893  C911    1.938   .     S
Br894  C912    1.938   .     S
Br895  C913    1.938   .     S
Br896  C914    1.938   .     S
C897   O953    1.300   .     A
C897   C926    1.471   .     S
C897   O963    1.300   .     A
C898   Cl938   1.764   .     S
C898   C195    1.418   1_556 S
C898   N949    1.373   .     S
C899   Cl939   1.764   .     S
C899   N950    1.373   .     A
C900   Cl940   1.764   .     S
C900   N949    1.373   .     A
C900   C232    1.418   1_556 S
C901   Cl941   1.764   .     S
C901   N776    1.373   1_565 S
C902   Cl942   1.764   .     S
C902   N951    1.373   .     A
C902   C199    1.418   1_556 S
C903   Cl943   1.764   .     S
C903   N952    1.373   .     A
C904   Cl944   1.764   .     S
C904   C197    1.418   1_556 S
C904   N775    1.373   1_565 S
C905   C924    1.413   .     A
C905   C916    1.392   .     A
C906   C923    1.413   .     A
C906   C917    1.392   .     A
C907   C914    1.392   .     A
C907   C923    1.413   .     A
C908   C925    1.471   .     S
C908   O962    1.300   .     A
C908   O961    1.300   .     A
C909   C924    1.413   .     A
C909   C915    1.392   .     A
C910   C921    1.392   .     A
C910   C926    1.413   .     A
C911   C922    1.392   .     A
C911   C925    1.413   .     A
C912   C925    1.413   .     A
C912   C918    1.392   .     A
C913   C926    1.413   .     A
C913   C920    1.392   .     A
C914   C928    1.413   .     A
C915   C927    1.413   .     A
C916   C927    1.413   .     A
C917   C928    1.413   .     A
C918   C931    1.413   .     A
C919   O967    1.300   .     A
C919   O964    1.300   .     A
C919   C924    1.471   .     S
C920   C929    1.413   .     A
C921   C929    1.413   .     A
C922   C931    1.413   .     A
C923   C930    1.471   .     S
C927   C935    1.471   .     S
C928   C934    1.471   .     S
C929   C933    1.471   .     S
C930   O965    1.300   .     A
C930   O966    1.300   .     A
C931   C932    1.471   .     S
C932   O968    1.300   .     A
C932   O956    1.300   .     A
C933   O954    1.300   .     A
C933   O955    1.300   .     A
C934   O957    1.300   .     A
C934   O960    1.300   .     A
C935   O958    1.300   .     A
C935   O959    1.300   .     A
C936   Cl937   1.764   .     S
C936   N950    1.373   .     S
Cu945  O953    1.976   .     S
Cu945  O965    1.976   .     S
Cu945  N949    2.019   .     S
Cu945  Cu946   2.687   .     S
Cu945  O1050   1.976   1_455 S
Cu945  O1055   1.976   1_455 S
Cu946  O963    1.976   .     S
Cu946  O966    1.976   .     S
Cu946  N950    2.019   .     S
Cu946  O1049   1.976   1_455 S
Cu946  O1052   1.976   1_455 S
Cu947  O958    1.976   .     S
Cu947  Cu948   2.687   .     S
Cu947  O955    1.976   .     S
Cu947  N951    2.019   .     S
Cu948  O954    1.976   .     S
Cu948  N952    2.019   .     S
Cu948  O959    1.976   .     S
O956   Cu772   1.976   1_565 S
O957   Cu772   1.976   1_565 S
O960   Cu771   1.976   1_565 S
O961   Cu1034  1.976   .     S
O962   Cu1033  1.976   .     S
O964   Cu1034  1.976   .     S
O967   Cu1033  1.976   .     S
O968   Cu771   1.976   1_565 S
Br969  C993    1.938   .     S
Br970  C1003   1.938   .     S
Br971  C1004   1.938   .     S
Br972  C1005   1.938   .     S
Br973  C1006   1.938   .     S
Br974  C1008   1.938   .     S
Br975  C1009   1.938   .     S
Br976  C1010   1.938   .     S
Br977  C994    1.938   .     S
Br978  C995    1.938   .     S
Br979  C997    1.938   .     S
Br980  C998    1.938   .     S
Br981  C999    1.938   .     S
Br982  C1000   1.938   .     S
Br983  C1001   1.938   .     S
Br984  C1002   1.938   .     S
C985   O1041   1.300   .     A
C985   C1014   1.471   .     S
C985   O1051   1.300   .     A
C986   Cl1026  1.764   .     S
C986   C283    1.418   1_556 S
C986   N1037   1.373   .     S
C987   Cl1027  1.764   .     S
C987   N1038   1.373   .     A
C988   Cl1028  1.764   .     S
C988   N1037   1.373   .     A
C988   C320    1.418   1_556 S
C989   Cl1029  1.764   .     S
C989   N864    1.373   1_565 S
C990   Cl1030  1.764   .     S
C990   N1039   1.373   .     A
C990   C287    1.418   1_556 S
C991   Cl1031  1.764   .     S
C991   N1040   1.373   .     A
C992   Cl1032  1.764   .     S
C992   C285    1.418   1_556 S
C992   N863    1.373   1_565 S
C993   C1012   1.413   .     A
C993   C1004   1.392   .     A
C994   C1011   1.413   .     A
C994   C1005   1.392   .     A
C995   C1002   1.392   .     A
C995   C1011   1.413   .     A
C996   C1013   1.471   .     S
C996   O1050   1.300   .     A
C996   O1049   1.300   .     A
C997   C1012   1.413   .     A
C997   C1003   1.392   .     A
C998   C1009   1.392   .     A
C998   C1014   1.413   .     A
C999   C1010   1.392   .     A
C999   C1013   1.413   .     A
C1000  C1013   1.413   .     A
C1000  C1006   1.392   .     A
C1001  C1014   1.413   .     A
C1001  C1008   1.392   .     A
C1002  C1016   1.413   .     A
C1003  C1015   1.413   .     A
C1004  C1015   1.413   .     A
C1005  C1016   1.413   .     A
C1006  C1019   1.413   .     A
C1007  O1055   1.300   .     A
C1007  O1052   1.300   .     A
C1007  C1012   1.471   .     S
C1008  C1017   1.413   .     A
C1009  C1017   1.413   .     A
C1010  C1019   1.413   .     A
C1011  C1018   1.471   .     S
C1015  C1023   1.471   .     S
C1016  C1022   1.471   .     S
C1017  C1021   1.471   .     S
C1018  O1053   1.300   .     A
C1018  O1054   1.300   .     A
C1019  C1020   1.471   .     S
C1020  O1056   1.300   .     A
C1020  O1044   1.300   .     A
C1021  O1042   1.300   .     A
C1021  O1043   1.300   .     A
C1022  O1045   1.300   .     A
C1022  O1048   1.300   .     A
C1023  O1046   1.300   .     A
C1023  O1047   1.300   .     A
C1024  Cl1025  1.764   .     S
C1024  N1038   1.373   .     S
Cu1033 O1041   1.976   .     S
Cu1033 O1053   1.976   .     S
Cu1033 N1037   2.019   .     S
Cu1033 Cu1034  2.687   .     S
Cu1034 O1051   1.976   .     S
Cu1034 O1054   1.976   .     S
Cu1034 N1038   2.019   .     S
Cu1035 O1046   1.976   .     S
Cu1035 Cu1036  2.687   .     S
Cu1035 O1043   1.976   .     S
Cu1035 N1039   2.019   .     S
Cu1036 O1042   1.976   .     S
Cu1036 N1040   2.019   .     S
Cu1036 O1047   1.976   .     S
O1044  Cu860   1.976   1_565 S
O1045  Cu860   1.976   1_565 S
O1048  Cu859   1.976   1_565 S
O1049  Cu946   1.976   1_655 S
O1050  Cu945   1.976   1_655 S
O1052  Cu946   1.976   1_655 S
O1055  Cu945   1.976   1_655 S
O1056  Cu859   1.976   1_565 S
