data_str_m2_o1_o2_pcu_sym.19
_audit_creation_date              2020-01-03
_audit_creation_method            'Materials Studio'
_symmetry_space_group_name_H-M    'P1'
_symmetry_Int_Tables_number       1
_symmetry_cell_setting            triclinic
loop_
_symmetry_equiv_pos_as_xyz
  x,y,z
_cell_length_a                    32.4570
_cell_length_b                    29.0128
_cell_length_c                    30.1749
_cell_angle_alpha                 89.9611
_cell_angle_beta                  94.3055
_cell_angle_gamma                 90.3547
loop_
_atom_site_label
_atom_site_type_symbol
_atom_site_fract_x
_atom_site_fract_y
_atom_site_fract_z
_atom_site_U_iso_or_equiv
_atom_site_adp_type
_atom_site_occupancy
C1     C     0.08779   0.16648   0.25406   0.00000  Uiso   1.00
C2     C     0.31271   0.20884   0.24553   0.00000  Uiso   1.00
C3     C     0.31174   0.12534   0.24081   0.00000  Uiso   1.00
C4     C     0.02144   0.20799   0.25828   0.00000  Uiso   1.00
C5     C     0.12752   0.17455   0.04588   0.00000  Uiso   1.00
C6     C     0.16456   0.12487   0.45382   0.00000  Uiso   1.00
C7     C     0.16030   0.20825   0.45335   0.00000  Uiso   1.00
C8     C     0.20114   0.15815   0.05036   0.00000  Uiso   1.00
C9     C     0.12829   0.17418   0.09204   0.00000  Uiso   1.00
C10    C     0.16422   0.12465   0.40770   0.00000  Uiso   1.00
C11    C     0.16036   0.20838   0.40723   0.00000  Uiso   1.00
C12    C     0.24548   0.16685   0.24570   0.00000  Uiso   1.00
C13    C     0.20196   0.15820   0.09657   0.00000  Uiso   1.00
C14    C     0.16558   0.16652   0.11733   0.00000  Uiso   1.00
C15    C     0.16348   0.16656   0.38380   0.00000  Uiso   1.00
C16    C     0.16395   0.16660   0.02502   0.00000  Uiso   1.00
C17    C     0.16307   0.16661   0.47666   0.00000  Uiso   1.00
C18    C     0.29030   0.16721   0.24159   0.00000  Uiso   1.00
C19    C     0.04290   0.16611   0.25768   0.00000  Uiso   1.00
C20    C     0.16639   0.16665   0.16534   0.00000  Uiso   1.00
C21    C     0.16565   0.16664   0.33507   0.00000  Uiso   1.00
C22    C     0.14043   0.02455   0.22068   0.00000  Uiso   1.00
C23    C     0.19310   0.30880   0.27913   0.00000  Uiso   1.00
C24    C     0.19326   0.02482   0.27896   0.00000  Uiso   1.00
C25    C     0.14030   0.30855   0.22085   0.00000  Uiso   1.00
C26    C     0.02048   0.12446   0.25351   0.00000  Uiso   1.00
Cu27   Cu    0.16667   0.21355   0.25000   0.00000  Uiso   1.00
Cu28   Cu    0.16667   0.11978   0.25000   0.00000  Uiso   1.00
F29    F     0.09129   0.18192   0.02145   0.00000  Uiso   1.00
F30    F     0.16591   0.08427   0.47631   0.00000  Uiso   1.00
F31    F     0.15793   0.24882   0.47543   0.00000  Uiso   1.00
F32    F     0.23649   0.15034   0.03026   0.00000  Uiso   1.00
F33    F     0.09263   0.18023   0.11205   0.00000  Uiso   1.00
F34    F     0.16399   0.08326   0.38682   0.00000  Uiso   1.00
F35    F     0.15674   0.24948   0.38584   0.00000  Uiso   1.00
F36    F     0.23808   0.15048   0.12108   0.00000  Uiso   1.00
I37    I     0.09896   0.05908   0.17270   0.00000  Uiso   1.00
I38    I     0.23542   0.27432   0.32625   0.00000  Uiso   1.00
I39    I     0.23710   0.05969   0.32448   0.00000  Uiso   1.00
I40    I     0.09743   0.27380   0.17444   0.00000  Uiso   1.00
I41    I     0.04441   0.06200   0.28205   0.00000  Uiso   1.00
I42    I     0.28874   0.27104   0.21648   0.00000  Uiso   1.00
I43    I     0.28538   0.06684   0.20611   0.00000  Uiso   1.00
I44    I     0.04762   0.26661   0.29291   0.00000  Uiso   1.00
N45    N     0.16667   0.28402   0.25000   0.00000  Uiso   1.00
N46    N     0.16667   0.04931   0.25000   0.00000  Uiso   1.00
O47    O     0.10655   0.20625   0.24999   0.00000  Uiso   1.00
O48    O     0.22679   0.12709   0.25001   0.00000  Uiso   1.00
O49    O     0.22679   0.20625   0.25000   0.00000  Uiso   1.00
O50    O     0.10655   0.12709   0.24999   0.00000  Uiso   1.00
O51    O     0.16666   0.20626   0.18573   0.00000  Uiso   1.00
O52    O     0.16667   0.12707   0.31427   0.00000  Uiso   1.00
O53    O     0.16667   0.20626   0.31427   0.00000  Uiso   1.00
O54    O     0.16666   0.12707   0.18573   0.00000  Uiso   1.00
C55    C     0.42113   0.16648   0.25406   0.00000  Uiso   1.00
C56    C     0.64605   0.20884   0.24553   0.00000  Uiso   1.00
C57    C     0.64507   0.12534   0.24081   0.00000  Uiso   1.00
C58    C     0.35477   0.20799   0.25828   0.00000  Uiso   1.00
C59    C     0.46085   0.17455   0.04588   0.00000  Uiso   1.00
C60    C     0.49789   0.12487   0.45382   0.00000  Uiso   1.00
C61    C     0.49363   0.20825   0.45335   0.00000  Uiso   1.00
C62    C     0.53447   0.15815   0.05036   0.00000  Uiso   1.00
C63    C     0.46162   0.17418   0.09204   0.00000  Uiso   1.00
C64    C     0.49755   0.12465   0.40770   0.00000  Uiso   1.00
C65    C     0.49369   0.20838   0.40723   0.00000  Uiso   1.00
C66    C     0.57881   0.16685   0.24570   0.00000  Uiso   1.00
C67    C     0.53529   0.15820   0.09657   0.00000  Uiso   1.00
C68    C     0.49891   0.16652   0.11733   0.00000  Uiso   1.00
C69    C     0.49681   0.16656   0.38380   0.00000  Uiso   1.00
C70    C     0.49728   0.16660   0.02502   0.00000  Uiso   1.00
C71    C     0.49640   0.16661   0.47666   0.00000  Uiso   1.00
C72    C     0.62363   0.16721   0.24159   0.00000  Uiso   1.00
C73    C     0.37623   0.16611   0.25768   0.00000  Uiso   1.00
C74    C     0.49973   0.16665   0.16534   0.00000  Uiso   1.00
C75    C     0.49898   0.16664   0.33507   0.00000  Uiso   1.00
C76    C     0.47377   0.02455   0.22068   0.00000  Uiso   1.00
C77    C     0.52643   0.30880   0.27913   0.00000  Uiso   1.00
C78    C     0.52659   0.02482   0.27896   0.00000  Uiso   1.00
C79    C     0.47363   0.30855   0.22085   0.00000  Uiso   1.00
C80    C     0.35381   0.12446   0.25351   0.00000  Uiso   1.00
Cu81   Cu    0.50000   0.21355   0.25000   0.00000  Uiso   1.00
Cu82   Cu    0.50000   0.11978   0.25000   0.00000  Uiso   1.00
F83    F     0.42463   0.18192   0.02145   0.00000  Uiso   1.00
F84    F     0.49924   0.08427   0.47631   0.00000  Uiso   1.00
F85    F     0.49127   0.24882   0.47543   0.00000  Uiso   1.00
F86    F     0.56982   0.15034   0.03026   0.00000  Uiso   1.00
F87    F     0.42596   0.18023   0.11205   0.00000  Uiso   1.00
F88    F     0.49732   0.08326   0.38682   0.00000  Uiso   1.00
F89    F     0.49008   0.24948   0.38584   0.00000  Uiso   1.00
F90    F     0.57141   0.15048   0.12108   0.00000  Uiso   1.00
I91    I     0.43230   0.05908   0.17270   0.00000  Uiso   1.00
I92    I     0.56875   0.27432   0.32625   0.00000  Uiso   1.00
I93    I     0.57044   0.05969   0.32448   0.00000  Uiso   1.00
I94    I     0.43076   0.27380   0.17444   0.00000  Uiso   1.00
I95    I     0.37774   0.06200   0.28205   0.00000  Uiso   1.00
I96    I     0.62208   0.27104   0.21648   0.00000  Uiso   1.00
I97    I     0.61871   0.06684   0.20611   0.00000  Uiso   1.00
I98    I     0.38095   0.26661   0.29291   0.00000  Uiso   1.00
N99    N     0.50000   0.28402   0.25000   0.00000  Uiso   1.00
N100   N     0.50000   0.04931   0.25000   0.00000  Uiso   1.00
O101   O     0.43988   0.20625   0.24999   0.00000  Uiso   1.00
O102   O     0.56012   0.12709   0.25001   0.00000  Uiso   1.00
O103   O     0.56012   0.20625   0.25000   0.00000  Uiso   1.00
O104   O     0.43988   0.12709   0.24999   0.00000  Uiso   1.00
O105   O     0.50000   0.20626   0.18573   0.00000  Uiso   1.00
O106   O     0.50000   0.12707   0.31427   0.00000  Uiso   1.00
O107   O     0.50000   0.20626   0.31427   0.00000  Uiso   1.00
O108   O     0.50000   0.12707   0.18573   0.00000  Uiso   1.00
C109   C     0.75446   0.16648   0.25406   0.00000  Uiso   1.00
C110   C     0.97938   0.20884   0.24553   0.00000  Uiso   1.00
C111   C     0.97841   0.12534   0.24081   0.00000  Uiso   1.00
C112   C     0.68811   0.20799   0.25828   0.00000  Uiso   1.00
C113   C     0.79418   0.17455   0.04588   0.00000  Uiso   1.00
C114   C     0.83123   0.12487   0.45382   0.00000  Uiso   1.00
C115   C     0.82696   0.20825   0.45335   0.00000  Uiso   1.00
C116   C     0.86780   0.15815   0.05036   0.00000  Uiso   1.00
C117   C     0.79495   0.17418   0.09204   0.00000  Uiso   1.00
C118   C     0.83089   0.12465   0.40770   0.00000  Uiso   1.00
C119   C     0.82703   0.20838   0.40723   0.00000  Uiso   1.00
C120   C     0.91214   0.16685   0.24570   0.00000  Uiso   1.00
C121   C     0.86862   0.15820   0.09657   0.00000  Uiso   1.00
C122   C     0.83225   0.16652   0.11733   0.00000  Uiso   1.00
C123   C     0.83015   0.16656   0.38380   0.00000  Uiso   1.00
C124   C     0.83061   0.16660   0.02502   0.00000  Uiso   1.00
C125   C     0.82973   0.16661   0.47666   0.00000  Uiso   1.00
C126   C     0.95696   0.16721   0.24159   0.00000  Uiso   1.00
C127   C     0.70956   0.16611   0.25768   0.00000  Uiso   1.00
C128   C     0.83306   0.16665   0.16534   0.00000  Uiso   1.00
C129   C     0.83232   0.16664   0.33507   0.00000  Uiso   1.00
C130   C     0.80710   0.02455   0.22068   0.00000  Uiso   1.00
C131   C     0.85977   0.30880   0.27913   0.00000  Uiso   1.00
C132   C     0.85993   0.02482   0.27896   0.00000  Uiso   1.00
C133   C     0.80696   0.30855   0.22085   0.00000  Uiso   1.00
C134   C     0.68714   0.12446   0.25351   0.00000  Uiso   1.00
Cu135  Cu    0.83333   0.21355   0.25000   0.00000  Uiso   1.00
Cu136  Cu    0.83333   0.11978   0.25000   0.00000  Uiso   1.00
F137   F     0.75796   0.18192   0.02145   0.00000  Uiso   1.00
F138   F     0.83257   0.08427   0.47631   0.00000  Uiso   1.00
F139   F     0.82460   0.24882   0.47543   0.00000  Uiso   1.00
F140   F     0.90316   0.15034   0.03026   0.00000  Uiso   1.00
F141   F     0.75930   0.18023   0.11205   0.00000  Uiso   1.00
F142   F     0.83065   0.08326   0.38682   0.00000  Uiso   1.00
F143   F     0.82341   0.24948   0.38584   0.00000  Uiso   1.00
F144   F     0.90475   0.15048   0.12108   0.00000  Uiso   1.00
I145   I     0.76563   0.05908   0.17270   0.00000  Uiso   1.00
I146   I     0.90208   0.27432   0.32625   0.00000  Uiso   1.00
I147   I     0.90377   0.05969   0.32448   0.00000  Uiso   1.00
I148   I     0.76410   0.27380   0.17444   0.00000  Uiso   1.00
I149   I     0.71107   0.06200   0.28205   0.00000  Uiso   1.00
I150   I     0.95541   0.27104   0.21648   0.00000  Uiso   1.00
I151   I     0.95204   0.06684   0.20611   0.00000  Uiso   1.00
I152   I     0.71428   0.26661   0.29291   0.00000  Uiso   1.00
N153   N     0.83333   0.28402   0.25000   0.00000  Uiso   1.00
N154   N     0.83333   0.04931   0.25000   0.00000  Uiso   1.00
O155   O     0.77321   0.20625   0.24999   0.00000  Uiso   1.00
O156   O     0.89345   0.12709   0.25001   0.00000  Uiso   1.00
O157   O     0.89345   0.20625   0.25000   0.00000  Uiso   1.00
O158   O     0.77321   0.12709   0.24999   0.00000  Uiso   1.00
O159   O     0.83333   0.20626   0.18573   0.00000  Uiso   1.00
O160   O     0.83334   0.12707   0.31427   0.00000  Uiso   1.00
O161   O     0.83334   0.20626   0.31427   0.00000  Uiso   1.00
O162   O     0.83333   0.12707   0.18573   0.00000  Uiso   1.00
C163   C     0.08779   0.49982   0.25406   0.00000  Uiso   1.00
C164   C     0.31271   0.54217   0.24553   0.00000  Uiso   1.00
C165   C     0.31174   0.45867   0.24081   0.00000  Uiso   1.00
C166   C     0.02144   0.54133   0.25828   0.00000  Uiso   1.00
C167   C     0.12752   0.50788   0.04588   0.00000  Uiso   1.00
C168   C     0.16456   0.45820   0.45382   0.00000  Uiso   1.00
C169   C     0.16030   0.54158   0.45335   0.00000  Uiso   1.00
C170   C     0.20114   0.49149   0.05036   0.00000  Uiso   1.00
C171   C     0.12829   0.50751   0.09204   0.00000  Uiso   1.00
C172   C     0.16422   0.45798   0.40770   0.00000  Uiso   1.00
C173   C     0.16036   0.54171   0.40723   0.00000  Uiso   1.00
C174   C     0.24548   0.50018   0.24570   0.00000  Uiso   1.00
C175   C     0.20196   0.49153   0.09657   0.00000  Uiso   1.00
C176   C     0.16558   0.49986   0.11733   0.00000  Uiso   1.00
C177   C     0.16348   0.49989   0.38380   0.00000  Uiso   1.00
C178   C     0.16395   0.49994   0.02502   0.00000  Uiso   1.00
C179   C     0.16307   0.49994   0.47666   0.00000  Uiso   1.00
C180   C     0.29030   0.50054   0.24159   0.00000  Uiso   1.00
C181   C     0.04290   0.49944   0.25768   0.00000  Uiso   1.00
C182   C     0.16639   0.49998   0.16534   0.00000  Uiso   1.00
C183   C     0.16565   0.49997   0.33507   0.00000  Uiso   1.00
C184   C     0.14043   0.35788   0.22068   0.00000  Uiso   1.00
C185   C     0.19310   0.64214   0.27913   0.00000  Uiso   1.00
C186   C     0.19326   0.35815   0.27896   0.00000  Uiso   1.00
C187   C     0.14030   0.64188   0.22085   0.00000  Uiso   1.00
C188   C     0.02048   0.45779   0.25351   0.00000  Uiso   1.00
Cu189  Cu    0.16667   0.54689   0.25000   0.00000  Uiso   1.00
Cu190  Cu    0.16667   0.45311   0.25000   0.00000  Uiso   1.00
F191   F     0.09129   0.51525   0.02145   0.00000  Uiso   1.00
F192   F     0.16591   0.41760   0.47631   0.00000  Uiso   1.00
F193   F     0.15793   0.58215   0.47543   0.00000  Uiso   1.00
F194   F     0.23649   0.48367   0.03026   0.00000  Uiso   1.00
F195   F     0.09263   0.51356   0.11205   0.00000  Uiso   1.00
F196   F     0.16399   0.41659   0.38682   0.00000  Uiso   1.00
F197   F     0.15674   0.58282   0.38584   0.00000  Uiso   1.00
F198   F     0.23808   0.48382   0.12108   0.00000  Uiso   1.00
I199   I     0.09896   0.39242   0.17270   0.00000  Uiso   1.00
I200   I     0.23542   0.60766   0.32625   0.00000  Uiso   1.00
I201   I     0.23710   0.39302   0.32448   0.00000  Uiso   1.00
I202   I     0.09743   0.60713   0.17444   0.00000  Uiso   1.00
I203   I     0.04441   0.39533   0.28205   0.00000  Uiso   1.00
I204   I     0.28874   0.60437   0.21648   0.00000  Uiso   1.00
I205   I     0.28538   0.40017   0.20611   0.00000  Uiso   1.00
I206   I     0.04762   0.59994   0.29291   0.00000  Uiso   1.00
N207   N     0.16667   0.61736   0.25000   0.00000  Uiso   1.00
N208   N     0.16667   0.38264   0.25000   0.00000  Uiso   1.00
O209   O     0.10655   0.53958   0.24999   0.00000  Uiso   1.00
O210   O     0.22679   0.46042   0.25001   0.00000  Uiso   1.00
O211   O     0.22679   0.53958   0.25000   0.00000  Uiso   1.00
O212   O     0.10655   0.46042   0.24999   0.00000  Uiso   1.00
O213   O     0.16666   0.53959   0.18573   0.00000  Uiso   1.00
O214   O     0.16667   0.46041   0.31427   0.00000  Uiso   1.00
O215   O     0.16667   0.53959   0.31427   0.00000  Uiso   1.00
O216   O     0.16666   0.46041   0.18573   0.00000  Uiso   1.00
C217   C     0.42113   0.49982   0.25406   0.00000  Uiso   1.00
C218   C     0.64605   0.54217   0.24553   0.00000  Uiso   1.00
C219   C     0.64507   0.45867   0.24081   0.00000  Uiso   1.00
C220   C     0.35477   0.54133   0.25828   0.00000  Uiso   1.00
C221   C     0.46085   0.50788   0.04588   0.00000  Uiso   1.00
C222   C     0.49789   0.45820   0.45382   0.00000  Uiso   1.00
C223   C     0.49363   0.54158   0.45335   0.00000  Uiso   1.00
C224   C     0.53447   0.49149   0.05036   0.00000  Uiso   1.00
C225   C     0.46162   0.50751   0.09204   0.00000  Uiso   1.00
C226   C     0.49755   0.45798   0.40770   0.00000  Uiso   1.00
C227   C     0.49369   0.54171   0.40723   0.00000  Uiso   1.00
C228   C     0.57881   0.50018   0.24570   0.00000  Uiso   1.00
C229   C     0.53529   0.49153   0.09657   0.00000  Uiso   1.00
C230   C     0.49891   0.49986   0.11733   0.00000  Uiso   1.00
C231   C     0.49681   0.49989   0.38380   0.00000  Uiso   1.00
C232   C     0.49728   0.49994   0.02502   0.00000  Uiso   1.00
C233   C     0.49640   0.49994   0.47666   0.00000  Uiso   1.00
C234   C     0.62363   0.50054   0.24159   0.00000  Uiso   1.00
C235   C     0.37623   0.49944   0.25768   0.00000  Uiso   1.00
C236   C     0.49973   0.49998   0.16534   0.00000  Uiso   1.00
C237   C     0.49898   0.49997   0.33507   0.00000  Uiso   1.00
C238   C     0.47377   0.35788   0.22068   0.00000  Uiso   1.00
C239   C     0.52643   0.64214   0.27913   0.00000  Uiso   1.00
C240   C     0.52659   0.35815   0.27896   0.00000  Uiso   1.00
C241   C     0.47363   0.64188   0.22085   0.00000  Uiso   1.00
C242   C     0.35381   0.45779   0.25351   0.00000  Uiso   1.00
Cu243  Cu    0.50000   0.54689   0.25000   0.00000  Uiso   1.00
Cu244  Cu    0.50000   0.45311   0.25000   0.00000  Uiso   1.00
F245   F     0.42463   0.51525   0.02145   0.00000  Uiso   1.00
F246   F     0.49924   0.41760   0.47631   0.00000  Uiso   1.00
F247   F     0.49127   0.58215   0.47543   0.00000  Uiso   1.00
F248   F     0.56982   0.48367   0.03026   0.00000  Uiso   1.00
F249   F     0.42596   0.51356   0.11205   0.00000  Uiso   1.00
F250   F     0.49732   0.41659   0.38682   0.00000  Uiso   1.00
F251   F     0.49008   0.58282   0.38584   0.00000  Uiso   1.00
F252   F     0.57141   0.48382   0.12108   0.00000  Uiso   1.00
I253   I     0.43230   0.39242   0.17270   0.00000  Uiso   1.00
I254   I     0.56875   0.60766   0.32625   0.00000  Uiso   1.00
I255   I     0.57044   0.39302   0.32448   0.00000  Uiso   1.00
I256   I     0.43076   0.60713   0.17444   0.00000  Uiso   1.00
I257   I     0.37774   0.39533   0.28205   0.00000  Uiso   1.00
I258   I     0.62208   0.60437   0.21648   0.00000  Uiso   1.00
I259   I     0.61871   0.40017   0.20611   0.00000  Uiso   1.00
I260   I     0.38095   0.59994   0.29291   0.00000  Uiso   1.00
N261   N     0.50000   0.61736   0.25000   0.00000  Uiso   1.00
N262   N     0.50000   0.38264   0.25000   0.00000  Uiso   1.00
O263   O     0.43988   0.53958   0.24999   0.00000  Uiso   1.00
O264   O     0.56012   0.46042   0.25001   0.00000  Uiso   1.00
O265   O     0.56012   0.53958   0.25000   0.00000  Uiso   1.00
O266   O     0.43988   0.46042   0.24999   0.00000  Uiso   1.00
O267   O     0.50000   0.53959   0.18573   0.00000  Uiso   1.00
O268   O     0.50000   0.46041   0.31427   0.00000  Uiso   1.00
O269   O     0.50000   0.53959   0.31427   0.00000  Uiso   1.00
O270   O     0.50000   0.46041   0.18573   0.00000  Uiso   1.00
C271   C     0.75446   0.49982   0.25406   0.00000  Uiso   1.00
C272   C     0.97938   0.54217   0.24553   0.00000  Uiso   1.00
C273   C     0.97841   0.45867   0.24081   0.00000  Uiso   1.00
C274   C     0.68811   0.54133   0.25828   0.00000  Uiso   1.00
C275   C     0.79418   0.50788   0.04588   0.00000  Uiso   1.00
C276   C     0.83123   0.45820   0.45382   0.00000  Uiso   1.00
C277   C     0.82696   0.54158   0.45335   0.00000  Uiso   1.00
C278   C     0.86780   0.49149   0.05036   0.00000  Uiso   1.00
C279   C     0.79495   0.50751   0.09204   0.00000  Uiso   1.00
C280   C     0.83089   0.45798   0.40770   0.00000  Uiso   1.00
C281   C     0.82703   0.54171   0.40723   0.00000  Uiso   1.00
C282   C     0.91214   0.50018   0.24570   0.00000  Uiso   1.00
C283   C     0.86862   0.49153   0.09657   0.00000  Uiso   1.00
C284   C     0.83225   0.49986   0.11733   0.00000  Uiso   1.00
C285   C     0.83015   0.49989   0.38380   0.00000  Uiso   1.00
C286   C     0.83061   0.49994   0.02502   0.00000  Uiso   1.00
C287   C     0.82973   0.49994   0.47666   0.00000  Uiso   1.00
C288   C     0.95696   0.50054   0.24159   0.00000  Uiso   1.00
C289   C     0.70956   0.49944   0.25768   0.00000  Uiso   1.00
C290   C     0.83306   0.49998   0.16534   0.00000  Uiso   1.00
C291   C     0.83232   0.49997   0.33507   0.00000  Uiso   1.00
C292   C     0.80710   0.35788   0.22068   0.00000  Uiso   1.00
C293   C     0.85977   0.64214   0.27913   0.00000  Uiso   1.00
C294   C     0.85993   0.35815   0.27896   0.00000  Uiso   1.00
C295   C     0.80696   0.64188   0.22085   0.00000  Uiso   1.00
C296   C     0.68714   0.45779   0.25351   0.00000  Uiso   1.00
Cu297  Cu    0.83333   0.54689   0.25000   0.00000  Uiso   1.00
Cu298  Cu    0.83333   0.45311   0.25000   0.00000  Uiso   1.00
F299   F     0.75796   0.51525   0.02145   0.00000  Uiso   1.00
F300   F     0.83257   0.41760   0.47631   0.00000  Uiso   1.00
F301   F     0.82460   0.58215   0.47543   0.00000  Uiso   1.00
F302   F     0.90316   0.48367   0.03026   0.00000  Uiso   1.00
F303   F     0.75930   0.51356   0.11205   0.00000  Uiso   1.00
F304   F     0.83065   0.41659   0.38682   0.00000  Uiso   1.00
F305   F     0.82341   0.58282   0.38584   0.00000  Uiso   1.00
F306   F     0.90475   0.48382   0.12108   0.00000  Uiso   1.00
I307   I     0.76563   0.39242   0.17270   0.00000  Uiso   1.00
I308   I     0.90208   0.60766   0.32625   0.00000  Uiso   1.00
I309   I     0.90377   0.39302   0.32448   0.00000  Uiso   1.00
I310   I     0.76410   0.60713   0.17444   0.00000  Uiso   1.00
I311   I     0.71107   0.39533   0.28205   0.00000  Uiso   1.00
I312   I     0.95541   0.60437   0.21648   0.00000  Uiso   1.00
I313   I     0.95204   0.40017   0.20611   0.00000  Uiso   1.00
I314   I     0.71428   0.59994   0.29291   0.00000  Uiso   1.00
N315   N     0.83333   0.61736   0.25000   0.00000  Uiso   1.00
N316   N     0.83333   0.38264   0.25000   0.00000  Uiso   1.00
O317   O     0.77321   0.53958   0.24999   0.00000  Uiso   1.00
O318   O     0.89345   0.46042   0.25001   0.00000  Uiso   1.00
O319   O     0.89345   0.53958   0.25000   0.00000  Uiso   1.00
O320   O     0.77321   0.46042   0.24999   0.00000  Uiso   1.00
O321   O     0.83333   0.53959   0.18573   0.00000  Uiso   1.00
O322   O     0.83334   0.46041   0.31427   0.00000  Uiso   1.00
O323   O     0.83334   0.53959   0.31427   0.00000  Uiso   1.00
O324   O     0.83333   0.46041   0.18573   0.00000  Uiso   1.00
C325   C     0.08779   0.83315   0.25406   0.00000  Uiso   1.00
C326   C     0.31271   0.87551   0.24553   0.00000  Uiso   1.00
C327   C     0.31174   0.79200   0.24081   0.00000  Uiso   1.00
C328   C     0.02144   0.87466   0.25828   0.00000  Uiso   1.00
C329   C     0.12752   0.84122   0.04588   0.00000  Uiso   1.00
C330   C     0.16456   0.79153   0.45382   0.00000  Uiso   1.00
C331   C     0.16030   0.87492   0.45335   0.00000  Uiso   1.00
C332   C     0.20114   0.82482   0.05036   0.00000  Uiso   1.00
C333   C     0.12829   0.84085   0.09204   0.00000  Uiso   1.00
C334   C     0.16422   0.79132   0.40770   0.00000  Uiso   1.00
C335   C     0.16036   0.87505   0.40723   0.00000  Uiso   1.00
C336   C     0.24548   0.83351   0.24570   0.00000  Uiso   1.00
C337   C     0.20196   0.82486   0.09657   0.00000  Uiso   1.00
C338   C     0.16558   0.83319   0.11733   0.00000  Uiso   1.00
C339   C     0.16348   0.83323   0.38380   0.00000  Uiso   1.00
C340   C     0.16395   0.83327   0.02502   0.00000  Uiso   1.00
C341   C     0.16307   0.83327   0.47666   0.00000  Uiso   1.00
C342   C     0.29030   0.83387   0.24159   0.00000  Uiso   1.00
C343   C     0.04290   0.83277   0.25768   0.00000  Uiso   1.00
C344   C     0.16639   0.83332   0.16534   0.00000  Uiso   1.00
C345   C     0.16565   0.83330   0.33507   0.00000  Uiso   1.00
C346   C     0.14043   0.69122   0.22068   0.00000  Uiso   1.00
C347   C     0.19310   0.97547   0.27913   0.00000  Uiso   1.00
C348   C     0.19326   0.69149   0.27896   0.00000  Uiso   1.00
C349   C     0.14030   0.97522   0.22085   0.00000  Uiso   1.00
C350   C     0.02048   0.79112   0.25351   0.00000  Uiso   1.00
Cu351  Cu    0.16667   0.88022   0.25000   0.00000  Uiso   1.00
Cu352  Cu    0.16667   0.78645   0.25000   0.00000  Uiso   1.00
F353   F     0.09129   0.84859   0.02145   0.00000  Uiso   1.00
F354   F     0.16591   0.75093   0.47631   0.00000  Uiso   1.00
F355   F     0.15793   0.91548   0.47543   0.00000  Uiso   1.00
F356   F     0.23649   0.81700   0.03026   0.00000  Uiso   1.00
F357   F     0.09263   0.84689   0.11205   0.00000  Uiso   1.00
F358   F     0.16399   0.74992   0.38682   0.00000  Uiso   1.00
F359   F     0.15674   0.91615   0.38584   0.00000  Uiso   1.00
F360   F     0.23808   0.81715   0.12108   0.00000  Uiso   1.00
I361   I     0.09896   0.72575   0.17270   0.00000  Uiso   1.00
I362   I     0.23542   0.94099   0.32625   0.00000  Uiso   1.00
I363   I     0.23710   0.72636   0.32448   0.00000  Uiso   1.00
I364   I     0.09743   0.94047   0.17444   0.00000  Uiso   1.00
I365   I     0.04441   0.72867   0.28205   0.00000  Uiso   1.00
I366   I     0.28874   0.93770   0.21648   0.00000  Uiso   1.00
I367   I     0.28538   0.73350   0.20611   0.00000  Uiso   1.00
I368   I     0.04762   0.93327   0.29291   0.00000  Uiso   1.00
N369   N     0.16667   0.95069   0.25000   0.00000  Uiso   1.00
N370   N     0.16667   0.71598   0.25000   0.00000  Uiso   1.00
O371   O     0.10655   0.87291   0.24999   0.00000  Uiso   1.00
O372   O     0.22679   0.79375   0.25001   0.00000  Uiso   1.00
O373   O     0.22679   0.87291   0.25000   0.00000  Uiso   1.00
O374   O     0.10655   0.79375   0.24999   0.00000  Uiso   1.00
O375   O     0.16666   0.87293   0.18573   0.00000  Uiso   1.00
O376   O     0.16667   0.79374   0.31427   0.00000  Uiso   1.00
O377   O     0.16667   0.87293   0.31427   0.00000  Uiso   1.00
O378   O     0.16666   0.79374   0.18573   0.00000  Uiso   1.00
C379   C     0.42113   0.83315   0.25406   0.00000  Uiso   1.00
C380   C     0.64605   0.87551   0.24553   0.00000  Uiso   1.00
C381   C     0.64507   0.79200   0.24081   0.00000  Uiso   1.00
C382   C     0.35477   0.87466   0.25828   0.00000  Uiso   1.00
C383   C     0.46085   0.84122   0.04588   0.00000  Uiso   1.00
C384   C     0.49789   0.79153   0.45382   0.00000  Uiso   1.00
C385   C     0.49363   0.87492   0.45335   0.00000  Uiso   1.00
C386   C     0.53447   0.82482   0.05036   0.00000  Uiso   1.00
C387   C     0.46162   0.84085   0.09204   0.00000  Uiso   1.00
C388   C     0.49755   0.79132   0.40770   0.00000  Uiso   1.00
C389   C     0.49369   0.87505   0.40723   0.00000  Uiso   1.00
C390   C     0.57881   0.83351   0.24570   0.00000  Uiso   1.00
C391   C     0.53529   0.82486   0.09657   0.00000  Uiso   1.00
C392   C     0.49891   0.83319   0.11733   0.00000  Uiso   1.00
C393   C     0.49681   0.83323   0.38380   0.00000  Uiso   1.00
C394   C     0.49728   0.83327   0.02502   0.00000  Uiso   1.00
C395   C     0.49640   0.83327   0.47666   0.00000  Uiso   1.00
C396   C     0.62363   0.83387   0.24159   0.00000  Uiso   1.00
C397   C     0.37623   0.83277   0.25768   0.00000  Uiso   1.00
C398   C     0.49973   0.83332   0.16534   0.00000  Uiso   1.00
C399   C     0.49898   0.83330   0.33507   0.00000  Uiso   1.00
C400   C     0.47377   0.69122   0.22068   0.00000  Uiso   1.00
C401   C     0.52643   0.97547   0.27913   0.00000  Uiso   1.00
C402   C     0.52659   0.69149   0.27896   0.00000  Uiso   1.00
C403   C     0.47363   0.97522   0.22085   0.00000  Uiso   1.00
C404   C     0.35381   0.79112   0.25351   0.00000  Uiso   1.00
Cu405  Cu    0.50000   0.88022   0.25000   0.00000  Uiso   1.00
Cu406  Cu    0.50000   0.78645   0.25000   0.00000  Uiso   1.00
F407   F     0.42463   0.84859   0.02145   0.00000  Uiso   1.00
F408   F     0.49924   0.75093   0.47631   0.00000  Uiso   1.00
F409   F     0.49127   0.91548   0.47543   0.00000  Uiso   1.00
F410   F     0.56982   0.81700   0.03026   0.00000  Uiso   1.00
F411   F     0.42596   0.84689   0.11205   0.00000  Uiso   1.00
F412   F     0.49732   0.74992   0.38682   0.00000  Uiso   1.00
F413   F     0.49008   0.91615   0.38584   0.00000  Uiso   1.00
F414   F     0.57141   0.81715   0.12108   0.00000  Uiso   1.00
I415   I     0.43230   0.72575   0.17270   0.00000  Uiso   1.00
I416   I     0.56875   0.94099   0.32625   0.00000  Uiso   1.00
I417   I     0.57044   0.72636   0.32448   0.00000  Uiso   1.00
I418   I     0.43076   0.94047   0.17444   0.00000  Uiso   1.00
I419   I     0.37774   0.72867   0.28205   0.00000  Uiso   1.00
I420   I     0.62208   0.93770   0.21648   0.00000  Uiso   1.00
I421   I     0.61871   0.73350   0.20611   0.00000  Uiso   1.00
I422   I     0.38095   0.93327   0.29291   0.00000  Uiso   1.00
N423   N     0.50000   0.95069   0.25000   0.00000  Uiso   1.00
N424   N     0.50000   0.71598   0.25000   0.00000  Uiso   1.00
O425   O     0.43988   0.87291   0.24999   0.00000  Uiso   1.00
O426   O     0.56012   0.79375   0.25001   0.00000  Uiso   1.00
O427   O     0.56012   0.87291   0.25000   0.00000  Uiso   1.00
O428   O     0.43988   0.79375   0.24999   0.00000  Uiso   1.00
O429   O     0.50000   0.87293   0.18573   0.00000  Uiso   1.00
O430   O     0.50000   0.79374   0.31427   0.00000  Uiso   1.00
O431   O     0.50000   0.87293   0.31427   0.00000  Uiso   1.00
O432   O     0.50000   0.79374   0.18573   0.00000  Uiso   1.00
C433   C     0.75446   0.83315   0.25406   0.00000  Uiso   1.00
C434   C     0.97938   0.87551   0.24553   0.00000  Uiso   1.00
C435   C     0.97841   0.79200   0.24081   0.00000  Uiso   1.00
C436   C     0.68811   0.87466   0.25828   0.00000  Uiso   1.00
C437   C     0.79418   0.84122   0.04588   0.00000  Uiso   1.00
C438   C     0.83123   0.79153   0.45382   0.00000  Uiso   1.00
C439   C     0.82696   0.87492   0.45335   0.00000  Uiso   1.00
C440   C     0.86780   0.82482   0.05036   0.00000  Uiso   1.00
C441   C     0.79495   0.84085   0.09204   0.00000  Uiso   1.00
C442   C     0.83089   0.79132   0.40770   0.00000  Uiso   1.00
C443   C     0.82703   0.87505   0.40723   0.00000  Uiso   1.00
C444   C     0.91214   0.83351   0.24570   0.00000  Uiso   1.00
C445   C     0.86862   0.82486   0.09657   0.00000  Uiso   1.00
C446   C     0.83225   0.83319   0.11733   0.00000  Uiso   1.00
C447   C     0.83015   0.83323   0.38380   0.00000  Uiso   1.00
C448   C     0.83061   0.83327   0.02502   0.00000  Uiso   1.00
C449   C     0.82973   0.83327   0.47666   0.00000  Uiso   1.00
C450   C     0.95696   0.83387   0.24159   0.00000  Uiso   1.00
C451   C     0.70956   0.83277   0.25768   0.00000  Uiso   1.00
C452   C     0.83306   0.83332   0.16534   0.00000  Uiso   1.00
C453   C     0.83232   0.83330   0.33507   0.00000  Uiso   1.00
C454   C     0.80710   0.69122   0.22068   0.00000  Uiso   1.00
C455   C     0.85977   0.97547   0.27913   0.00000  Uiso   1.00
C456   C     0.85993   0.69149   0.27896   0.00000  Uiso   1.00
C457   C     0.80696   0.97522   0.22085   0.00000  Uiso   1.00
C458   C     0.68714   0.79112   0.25351   0.00000  Uiso   1.00
Cu459  Cu    0.83333   0.88022   0.25000   0.00000  Uiso   1.00
Cu460  Cu    0.83333   0.78645   0.25000   0.00000  Uiso   1.00
F461   F     0.75796   0.84859   0.02145   0.00000  Uiso   1.00
F462   F     0.83257   0.75093   0.47631   0.00000  Uiso   1.00
F463   F     0.82460   0.91548   0.47543   0.00000  Uiso   1.00
F464   F     0.90316   0.81700   0.03026   0.00000  Uiso   1.00
F465   F     0.75930   0.84689   0.11205   0.00000  Uiso   1.00
F466   F     0.83065   0.74992   0.38682   0.00000  Uiso   1.00
F467   F     0.82341   0.91615   0.38584   0.00000  Uiso   1.00
F468   F     0.90475   0.81715   0.12108   0.00000  Uiso   1.00
I469   I     0.76563   0.72575   0.17270   0.00000  Uiso   1.00
I470   I     0.90208   0.94099   0.32625   0.00000  Uiso   1.00
I471   I     0.90377   0.72636   0.32448   0.00000  Uiso   1.00
I472   I     0.76410   0.94047   0.17444   0.00000  Uiso   1.00
I473   I     0.71107   0.72867   0.28205   0.00000  Uiso   1.00
I474   I     0.95541   0.93770   0.21648   0.00000  Uiso   1.00
I475   I     0.95204   0.73350   0.20611   0.00000  Uiso   1.00
I476   I     0.71428   0.93327   0.29291   0.00000  Uiso   1.00
N477   N     0.83333   0.95069   0.25000   0.00000  Uiso   1.00
N478   N     0.83333   0.71598   0.25000   0.00000  Uiso   1.00
O479   O     0.77321   0.87291   0.24999   0.00000  Uiso   1.00
O480   O     0.89345   0.79375   0.25001   0.00000  Uiso   1.00
O481   O     0.89345   0.87291   0.25000   0.00000  Uiso   1.00
O482   O     0.77321   0.79375   0.24999   0.00000  Uiso   1.00
O483   O     0.83333   0.87293   0.18573   0.00000  Uiso   1.00
O484   O     0.83334   0.79374   0.31427   0.00000  Uiso   1.00
O485   O     0.83334   0.87293   0.31427   0.00000  Uiso   1.00
O486   O     0.83333   0.79374   0.18573   0.00000  Uiso   1.00
C487   C     0.08779   0.16648   0.75406   0.00000  Uiso   1.00
C488   C     0.31271   0.20884   0.74553   0.00000  Uiso   1.00
C489   C     0.31174   0.12534   0.74081   0.00000  Uiso   1.00
C490   C     0.02144   0.20799   0.75828   0.00000  Uiso   1.00
C491   C     0.12752   0.17455   0.54588   0.00000  Uiso   1.00
C492   C     0.16456   0.12487   0.95382   0.00000  Uiso   1.00
C493   C     0.16030   0.20825   0.95335   0.00000  Uiso   1.00
C494   C     0.20114   0.15815   0.55036   0.00000  Uiso   1.00
C495   C     0.12829   0.17418   0.59204   0.00000  Uiso   1.00
C496   C     0.16422   0.12465   0.90770   0.00000  Uiso   1.00
C497   C     0.16036   0.20838   0.90723   0.00000  Uiso   1.00
C498   C     0.24548   0.16685   0.74570   0.00000  Uiso   1.00
C499   C     0.20196   0.15820   0.59657   0.00000  Uiso   1.00
C500   C     0.16558   0.16652   0.61733   0.00000  Uiso   1.00
C501   C     0.16348   0.16656   0.88380   0.00000  Uiso   1.00
C502   C     0.16395   0.16660   0.52502   0.00000  Uiso   1.00
C503   C     0.16307   0.16661   0.97666   0.00000  Uiso   1.00
C504   C     0.29030   0.16721   0.74159   0.00000  Uiso   1.00
C505   C     0.04290   0.16611   0.75768   0.00000  Uiso   1.00
C506   C     0.16639   0.16665   0.66534   0.00000  Uiso   1.00
C507   C     0.16565   0.16664   0.83507   0.00000  Uiso   1.00
C508   C     0.14043   0.02455   0.72068   0.00000  Uiso   1.00
C509   C     0.19310   0.30880   0.77913   0.00000  Uiso   1.00
C510   C     0.19326   0.02482   0.77896   0.00000  Uiso   1.00
C511   C     0.14030   0.30855   0.72085   0.00000  Uiso   1.00
C512   C     0.02048   0.12446   0.75351   0.00000  Uiso   1.00
Cu513  Cu    0.16667   0.21355   0.75000   0.00000  Uiso   1.00
Cu514  Cu    0.16667   0.11978   0.75000   0.00000  Uiso   1.00
F515   F     0.09129   0.18192   0.52145   0.00000  Uiso   1.00
F516   F     0.16591   0.08427   0.97631   0.00000  Uiso   1.00
F517   F     0.15793   0.24882   0.97543   0.00000  Uiso   1.00
F518   F     0.23649   0.15034   0.53026   0.00000  Uiso   1.00
F519   F     0.09263   0.18023   0.61205   0.00000  Uiso   1.00
F520   F     0.16399   0.08326   0.88682   0.00000  Uiso   1.00
F521   F     0.15674   0.24948   0.88584   0.00000  Uiso   1.00
F522   F     0.23808   0.15048   0.62108   0.00000  Uiso   1.00
I523   I     0.09896   0.05908   0.67270   0.00000  Uiso   1.00
I524   I     0.23542   0.27432   0.82625   0.00000  Uiso   1.00
I525   I     0.23710   0.05969   0.82448   0.00000  Uiso   1.00
I526   I     0.09743   0.27380   0.67444   0.00000  Uiso   1.00
I527   I     0.04441   0.06200   0.78205   0.00000  Uiso   1.00
I528   I     0.28874   0.27104   0.71648   0.00000  Uiso   1.00
I529   I     0.28538   0.06684   0.70611   0.00000  Uiso   1.00
I530   I     0.04762   0.26661   0.79291   0.00000  Uiso   1.00
N531   N     0.16667   0.28402   0.75000   0.00000  Uiso   1.00
N532   N     0.16667   0.04931   0.75000   0.00000  Uiso   1.00
O533   O     0.10655   0.20625   0.74999   0.00000  Uiso   1.00
O534   O     0.22679   0.12709   0.75001   0.00000  Uiso   1.00
O535   O     0.22679   0.20625   0.75000   0.00000  Uiso   1.00
O536   O     0.10655   0.12709   0.74999   0.00000  Uiso   1.00
O537   O     0.16666   0.20626   0.68573   0.00000  Uiso   1.00
O538   O     0.16667   0.12707   0.81427   0.00000  Uiso   1.00
O539   O     0.16667   0.20626   0.81427   0.00000  Uiso   1.00
O540   O     0.16666   0.12707   0.68573   0.00000  Uiso   1.00
C541   C     0.42113   0.16648   0.75406   0.00000  Uiso   1.00
C542   C     0.64605   0.20884   0.74553   0.00000  Uiso   1.00
C543   C     0.64507   0.12534   0.74081   0.00000  Uiso   1.00
C544   C     0.35477   0.20799   0.75828   0.00000  Uiso   1.00
C545   C     0.46085   0.17455   0.54588   0.00000  Uiso   1.00
C546   C     0.49789   0.12487   0.95382   0.00000  Uiso   1.00
C547   C     0.49363   0.20825   0.95335   0.00000  Uiso   1.00
C548   C     0.53447   0.15815   0.55036   0.00000  Uiso   1.00
C549   C     0.46162   0.17418   0.59204   0.00000  Uiso   1.00
C550   C     0.49755   0.12465   0.90770   0.00000  Uiso   1.00
C551   C     0.49369   0.20838   0.90723   0.00000  Uiso   1.00
C552   C     0.57881   0.16685   0.74570   0.00000  Uiso   1.00
C553   C     0.53529   0.15820   0.59657   0.00000  Uiso   1.00
C554   C     0.49891   0.16652   0.61733   0.00000  Uiso   1.00
C555   C     0.49681   0.16656   0.88380   0.00000  Uiso   1.00
C556   C     0.49728   0.16660   0.52502   0.00000  Uiso   1.00
C557   C     0.49640   0.16661   0.97666   0.00000  Uiso   1.00
C558   C     0.62363   0.16721   0.74159   0.00000  Uiso   1.00
C559   C     0.37623   0.16611   0.75768   0.00000  Uiso   1.00
C560   C     0.49973   0.16665   0.66534   0.00000  Uiso   1.00
C561   C     0.49898   0.16664   0.83507   0.00000  Uiso   1.00
C562   C     0.47377   0.02455   0.72068   0.00000  Uiso   1.00
C563   C     0.52643   0.30880   0.77913   0.00000  Uiso   1.00
C564   C     0.52659   0.02482   0.77896   0.00000  Uiso   1.00
C565   C     0.47363   0.30855   0.72085   0.00000  Uiso   1.00
C566   C     0.35381   0.12446   0.75351   0.00000  Uiso   1.00
Cu567  Cu    0.50000   0.21355   0.75000   0.00000  Uiso   1.00
Cu568  Cu    0.50000   0.11978   0.75000   0.00000  Uiso   1.00
F569   F     0.42463   0.18192   0.52145   0.00000  Uiso   1.00
F570   F     0.49924   0.08427   0.97631   0.00000  Uiso   1.00
F571   F     0.49127   0.24882   0.97543   0.00000  Uiso   1.00
F572   F     0.56982   0.15034   0.53026   0.00000  Uiso   1.00
F573   F     0.42596   0.18023   0.61205   0.00000  Uiso   1.00
F574   F     0.49732   0.08326   0.88682   0.00000  Uiso   1.00
F575   F     0.49008   0.24948   0.88584   0.00000  Uiso   1.00
F576   F     0.57141   0.15048   0.62108   0.00000  Uiso   1.00
I577   I     0.43230   0.05908   0.67270   0.00000  Uiso   1.00
I578   I     0.56875   0.27432   0.82625   0.00000  Uiso   1.00
I579   I     0.57044   0.05969   0.82448   0.00000  Uiso   1.00
I580   I     0.43076   0.27380   0.67444   0.00000  Uiso   1.00
I581   I     0.37774   0.06200   0.78205   0.00000  Uiso   1.00
I582   I     0.62208   0.27104   0.71648   0.00000  Uiso   1.00
I583   I     0.61871   0.06684   0.70611   0.00000  Uiso   1.00
I584   I     0.38095   0.26661   0.79291   0.00000  Uiso   1.00
N585   N     0.50000   0.28402   0.75000   0.00000  Uiso   1.00
N586   N     0.50000   0.04931   0.75000   0.00000  Uiso   1.00
O587   O     0.43988   0.20625   0.74999   0.00000  Uiso   1.00
O588   O     0.56012   0.12709   0.75001   0.00000  Uiso   1.00
O589   O     0.56012   0.20625   0.75000   0.00000  Uiso   1.00
O590   O     0.43988   0.12709   0.74999   0.00000  Uiso   1.00
O591   O     0.50000   0.20626   0.68573   0.00000  Uiso   1.00
O592   O     0.50000   0.12707   0.81427   0.00000  Uiso   1.00
O593   O     0.50000   0.20626   0.81427   0.00000  Uiso   1.00
O594   O     0.50000   0.12707   0.68573   0.00000  Uiso   1.00
C595   C     0.75446   0.16648   0.75406   0.00000  Uiso   1.00
C596   C     0.97938   0.20884   0.74553   0.00000  Uiso   1.00
C597   C     0.97841   0.12534   0.74081   0.00000  Uiso   1.00
C598   C     0.68811   0.20799   0.75828   0.00000  Uiso   1.00
C599   C     0.79418   0.17455   0.54588   0.00000  Uiso   1.00
C600   C     0.83123   0.12487   0.95382   0.00000  Uiso   1.00
C601   C     0.82696   0.20825   0.95335   0.00000  Uiso   1.00
C602   C     0.86780   0.15815   0.55036   0.00000  Uiso   1.00
C603   C     0.79495   0.17418   0.59204   0.00000  Uiso   1.00
C604   C     0.83089   0.12465   0.90770   0.00000  Uiso   1.00
C605   C     0.82703   0.20838   0.90723   0.00000  Uiso   1.00
C606   C     0.91214   0.16685   0.74570   0.00000  Uiso   1.00
C607   C     0.86862   0.15820   0.59657   0.00000  Uiso   1.00
C608   C     0.83225   0.16652   0.61733   0.00000  Uiso   1.00
C609   C     0.83015   0.16656   0.88380   0.00000  Uiso   1.00
C610   C     0.83061   0.16660   0.52502   0.00000  Uiso   1.00
C611   C     0.82973   0.16661   0.97666   0.00000  Uiso   1.00
C612   C     0.95696   0.16721   0.74159   0.00000  Uiso   1.00
C613   C     0.70956   0.16611   0.75768   0.00000  Uiso   1.00
C614   C     0.83306   0.16665   0.66534   0.00000  Uiso   1.00
C615   C     0.83232   0.16664   0.83507   0.00000  Uiso   1.00
C616   C     0.80710   0.02455   0.72068   0.00000  Uiso   1.00
C617   C     0.85977   0.30880   0.77913   0.00000  Uiso   1.00
C618   C     0.85993   0.02482   0.77896   0.00000  Uiso   1.00
C619   C     0.80696   0.30855   0.72085   0.00000  Uiso   1.00
C620   C     0.68714   0.12446   0.75351   0.00000  Uiso   1.00
Cu621  Cu    0.83333   0.21355   0.75000   0.00000  Uiso   1.00
Cu622  Cu    0.83333   0.11978   0.75000   0.00000  Uiso   1.00
F623   F     0.75796   0.18192   0.52145   0.00000  Uiso   1.00
F624   F     0.83257   0.08427   0.97631   0.00000  Uiso   1.00
F625   F     0.82460   0.24882   0.97543   0.00000  Uiso   1.00
F626   F     0.90316   0.15034   0.53026   0.00000  Uiso   1.00
F627   F     0.75930   0.18023   0.61205   0.00000  Uiso   1.00
F628   F     0.83065   0.08326   0.88682   0.00000  Uiso   1.00
F629   F     0.82341   0.24948   0.88584   0.00000  Uiso   1.00
F630   F     0.90475   0.15048   0.62108   0.00000  Uiso   1.00
I631   I     0.76563   0.05908   0.67270   0.00000  Uiso   1.00
I632   I     0.90208   0.27432   0.82625   0.00000  Uiso   1.00
I633   I     0.90377   0.05969   0.82448   0.00000  Uiso   1.00
I634   I     0.76410   0.27380   0.67444   0.00000  Uiso   1.00
I635   I     0.71107   0.06200   0.78205   0.00000  Uiso   1.00
I636   I     0.95541   0.27104   0.71648   0.00000  Uiso   1.00
I637   I     0.95204   0.06684   0.70611   0.00000  Uiso   1.00
I638   I     0.71428   0.26661   0.79291   0.00000  Uiso   1.00
N639   N     0.83333   0.28402   0.75000   0.00000  Uiso   1.00
N640   N     0.83333   0.04931   0.75000   0.00000  Uiso   1.00
O641   O     0.77321   0.20625   0.74999   0.00000  Uiso   1.00
O642   O     0.89345   0.12709   0.75001   0.00000  Uiso   1.00
O643   O     0.89345   0.20625   0.75000   0.00000  Uiso   1.00
O644   O     0.77321   0.12709   0.74999   0.00000  Uiso   1.00
O645   O     0.83333   0.20626   0.68573   0.00000  Uiso   1.00
O646   O     0.83334   0.12707   0.81427   0.00000  Uiso   1.00
O647   O     0.83334   0.20626   0.81427   0.00000  Uiso   1.00
O648   O     0.83333   0.12707   0.68573   0.00000  Uiso   1.00
C649   C     0.08779   0.49982   0.75406   0.00000  Uiso   1.00
C650   C     0.31271   0.54217   0.74553   0.00000  Uiso   1.00
C651   C     0.31174   0.45867   0.74081   0.00000  Uiso   1.00
C652   C     0.02144   0.54133   0.75828   0.00000  Uiso   1.00
C653   C     0.12752   0.50788   0.54588   0.00000  Uiso   1.00
C654   C     0.16456   0.45820   0.95382   0.00000  Uiso   1.00
C655   C     0.16030   0.54158   0.95335   0.00000  Uiso   1.00
C656   C     0.20114   0.49149   0.55036   0.00000  Uiso   1.00
C657   C     0.12829   0.50751   0.59204   0.00000  Uiso   1.00
C658   C     0.16422   0.45798   0.90770   0.00000  Uiso   1.00
C659   C     0.16036   0.54171   0.90723   0.00000  Uiso   1.00
C660   C     0.24548   0.50018   0.74570   0.00000  Uiso   1.00
C661   C     0.20196   0.49153   0.59657   0.00000  Uiso   1.00
C662   C     0.16558   0.49986   0.61733   0.00000  Uiso   1.00
C663   C     0.16348   0.49989   0.88380   0.00000  Uiso   1.00
C664   C     0.16395   0.49994   0.52502   0.00000  Uiso   1.00
C665   C     0.16307   0.49994   0.97666   0.00000  Uiso   1.00
C666   C     0.29030   0.50054   0.74159   0.00000  Uiso   1.00
C667   C     0.04290   0.49944   0.75768   0.00000  Uiso   1.00
C668   C     0.16639   0.49998   0.66534   0.00000  Uiso   1.00
C669   C     0.16565   0.49997   0.83507   0.00000  Uiso   1.00
C670   C     0.14043   0.35788   0.72068   0.00000  Uiso   1.00
C671   C     0.19310   0.64214   0.77913   0.00000  Uiso   1.00
C672   C     0.19326   0.35815   0.77896   0.00000  Uiso   1.00
C673   C     0.14030   0.64188   0.72085   0.00000  Uiso   1.00
C674   C     0.02048   0.45779   0.75351   0.00000  Uiso   1.00
Cu675  Cu    0.16667   0.54689   0.75000   0.00000  Uiso   1.00
Cu676  Cu    0.16667   0.45311   0.75000   0.00000  Uiso   1.00
F677   F     0.09129   0.51525   0.52145   0.00000  Uiso   1.00
F678   F     0.16591   0.41760   0.97631   0.00000  Uiso   1.00
F679   F     0.15793   0.58215   0.97543   0.00000  Uiso   1.00
F680   F     0.23649   0.48367   0.53026   0.00000  Uiso   1.00
F681   F     0.09263   0.51356   0.61205   0.00000  Uiso   1.00
F682   F     0.16399   0.41659   0.88682   0.00000  Uiso   1.00
F683   F     0.15674   0.58282   0.88584   0.00000  Uiso   1.00
F684   F     0.23808   0.48382   0.62108   0.00000  Uiso   1.00
I685   I     0.09896   0.39242   0.67270   0.00000  Uiso   1.00
I686   I     0.23542   0.60766   0.82625   0.00000  Uiso   1.00
I687   I     0.23710   0.39302   0.82448   0.00000  Uiso   1.00
I688   I     0.09743   0.60713   0.67444   0.00000  Uiso   1.00
I689   I     0.04441   0.39533   0.78205   0.00000  Uiso   1.00
I690   I     0.28874   0.60437   0.71648   0.00000  Uiso   1.00
I691   I     0.28538   0.40017   0.70611   0.00000  Uiso   1.00
I692   I     0.04762   0.59994   0.79291   0.00000  Uiso   1.00
N693   N     0.16667   0.61736   0.75000   0.00000  Uiso   1.00
N694   N     0.16667   0.38264   0.75000   0.00000  Uiso   1.00
O695   O     0.10655   0.53958   0.74999   0.00000  Uiso   1.00
O696   O     0.22679   0.46042   0.75001   0.00000  Uiso   1.00
O697   O     0.22679   0.53958   0.75000   0.00000  Uiso   1.00
O698   O     0.10655   0.46042   0.74999   0.00000  Uiso   1.00
O699   O     0.16666   0.53959   0.68573   0.00000  Uiso   1.00
O700   O     0.16667   0.46041   0.81427   0.00000  Uiso   1.00
O701   O     0.16667   0.53959   0.81427   0.00000  Uiso   1.00
O702   O     0.16666   0.46041   0.68573   0.00000  Uiso   1.00
C703   C     0.42113   0.49982   0.75406   0.00000  Uiso   1.00
C704   C     0.64605   0.54217   0.74553   0.00000  Uiso   1.00
C705   C     0.64507   0.45867   0.74081   0.00000  Uiso   1.00
C706   C     0.35477   0.54133   0.75828   0.00000  Uiso   1.00
C707   C     0.46085   0.50788   0.54588   0.00000  Uiso   1.00
C708   C     0.49789   0.45820   0.95382   0.00000  Uiso   1.00
C709   C     0.49363   0.54158   0.95335   0.00000  Uiso   1.00
C710   C     0.53447   0.49149   0.55036   0.00000  Uiso   1.00
C711   C     0.46162   0.50751   0.59204   0.00000  Uiso   1.00
C712   C     0.49755   0.45798   0.90770   0.00000  Uiso   1.00
C713   C     0.49369   0.54171   0.90723   0.00000  Uiso   1.00
C714   C     0.57881   0.50018   0.74570   0.00000  Uiso   1.00
C715   C     0.53529   0.49153   0.59657   0.00000  Uiso   1.00
C716   C     0.49891   0.49986   0.61733   0.00000  Uiso   1.00
C717   C     0.49681   0.49989   0.88380   0.00000  Uiso   1.00
C718   C     0.49728   0.49994   0.52502   0.00000  Uiso   1.00
C719   C     0.49640   0.49994   0.97666   0.00000  Uiso   1.00
C720   C     0.62363   0.50054   0.74159   0.00000  Uiso   1.00
C721   C     0.37623   0.49944   0.75768   0.00000  Uiso   1.00
C722   C     0.49973   0.49998   0.66534   0.00000  Uiso   1.00
C723   C     0.49898   0.49997   0.83507   0.00000  Uiso   1.00
C724   C     0.47377   0.35788   0.72068   0.00000  Uiso   1.00
C725   C     0.52643   0.64214   0.77913   0.00000  Uiso   1.00
C726   C     0.52659   0.35815   0.77896   0.00000  Uiso   1.00
C727   C     0.47363   0.64188   0.72085   0.00000  Uiso   1.00
C728   C     0.35381   0.45779   0.75351   0.00000  Uiso   1.00
Cu729  Cu    0.50000   0.54689   0.75000   0.00000  Uiso   1.00
Cu730  Cu    0.50000   0.45311   0.75000   0.00000  Uiso   1.00
F731   F     0.42463   0.51525   0.52145   0.00000  Uiso   1.00
F732   F     0.49924   0.41760   0.97631   0.00000  Uiso   1.00
F733   F     0.49127   0.58215   0.97543   0.00000  Uiso   1.00
F734   F     0.56982   0.48367   0.53026   0.00000  Uiso   1.00
F735   F     0.42596   0.51356   0.61205   0.00000  Uiso   1.00
F736   F     0.49732   0.41659   0.88682   0.00000  Uiso   1.00
F737   F     0.49008   0.58282   0.88584   0.00000  Uiso   1.00
F738   F     0.57141   0.48382   0.62108   0.00000  Uiso   1.00
I739   I     0.43230   0.39242   0.67270   0.00000  Uiso   1.00
I740   I     0.56875   0.60766   0.82625   0.00000  Uiso   1.00
I741   I     0.57044   0.39302   0.82448   0.00000  Uiso   1.00
I742   I     0.43076   0.60713   0.67444   0.00000  Uiso   1.00
I743   I     0.37774   0.39533   0.78205   0.00000  Uiso   1.00
I744   I     0.62208   0.60437   0.71648   0.00000  Uiso   1.00
I745   I     0.61871   0.40017   0.70611   0.00000  Uiso   1.00
I746   I     0.38095   0.59994   0.79291   0.00000  Uiso   1.00
N747   N     0.50000   0.61736   0.75000   0.00000  Uiso   1.00
N748   N     0.50000   0.38264   0.75000   0.00000  Uiso   1.00
O749   O     0.43988   0.53958   0.74999   0.00000  Uiso   1.00
O750   O     0.56012   0.46042   0.75001   0.00000  Uiso   1.00
O751   O     0.56012   0.53958   0.75000   0.00000  Uiso   1.00
O752   O     0.43988   0.46042   0.74999   0.00000  Uiso   1.00
O753   O     0.50000   0.53959   0.68573   0.00000  Uiso   1.00
O754   O     0.50000   0.46041   0.81427   0.00000  Uiso   1.00
O755   O     0.50000   0.53959   0.81427   0.00000  Uiso   1.00
O756   O     0.50000   0.46041   0.68573   0.00000  Uiso   1.00
C757   C     0.75446   0.49982   0.75406   0.00000  Uiso   1.00
C758   C     0.97938   0.54217   0.74553   0.00000  Uiso   1.00
C759   C     0.97841   0.45867   0.74081   0.00000  Uiso   1.00
C760   C     0.68811   0.54133   0.75828   0.00000  Uiso   1.00
C761   C     0.79418   0.50788   0.54588   0.00000  Uiso   1.00
C762   C     0.83123   0.45820   0.95382   0.00000  Uiso   1.00
C763   C     0.82696   0.54158   0.95335   0.00000  Uiso   1.00
C764   C     0.86780   0.49149   0.55036   0.00000  Uiso   1.00
C765   C     0.79495   0.50751   0.59204   0.00000  Uiso   1.00
C766   C     0.83089   0.45798   0.90770   0.00000  Uiso   1.00
C767   C     0.82703   0.54171   0.90723   0.00000  Uiso   1.00
C768   C     0.91214   0.50018   0.74570   0.00000  Uiso   1.00
C769   C     0.86862   0.49153   0.59657   0.00000  Uiso   1.00
C770   C     0.83225   0.49986   0.61733   0.00000  Uiso   1.00
C771   C     0.83015   0.49989   0.88380   0.00000  Uiso   1.00
C772   C     0.83061   0.49994   0.52502   0.00000  Uiso   1.00
C773   C     0.82973   0.49994   0.97666   0.00000  Uiso   1.00
C774   C     0.95696   0.50054   0.74159   0.00000  Uiso   1.00
C775   C     0.70956   0.49944   0.75768   0.00000  Uiso   1.00
C776   C     0.83306   0.49998   0.66534   0.00000  Uiso   1.00
C777   C     0.83232   0.49997   0.83507   0.00000  Uiso   1.00
C778   C     0.80710   0.35788   0.72068   0.00000  Uiso   1.00
C779   C     0.85977   0.64214   0.77913   0.00000  Uiso   1.00
C780   C     0.85993   0.35815   0.77896   0.00000  Uiso   1.00
C781   C     0.80696   0.64188   0.72085   0.00000  Uiso   1.00
C782   C     0.68714   0.45779   0.75351   0.00000  Uiso   1.00
Cu783  Cu    0.83333   0.54689   0.75000   0.00000  Uiso   1.00
Cu784  Cu    0.83333   0.45311   0.75000   0.00000  Uiso   1.00
F785   F     0.75796   0.51525   0.52145   0.00000  Uiso   1.00
F786   F     0.83257   0.41760   0.97631   0.00000  Uiso   1.00
F787   F     0.82460   0.58215   0.97543   0.00000  Uiso   1.00
F788   F     0.90316   0.48367   0.53026   0.00000  Uiso   1.00
F789   F     0.75930   0.51356   0.61205   0.00000  Uiso   1.00
F790   F     0.83065   0.41659   0.88682   0.00000  Uiso   1.00
F791   F     0.82341   0.58282   0.88584   0.00000  Uiso   1.00
F792   F     0.90475   0.48382   0.62108   0.00000  Uiso   1.00
I793   I     0.76563   0.39242   0.67270   0.00000  Uiso   1.00
I794   I     0.90208   0.60766   0.82625   0.00000  Uiso   1.00
I795   I     0.90377   0.39302   0.82448   0.00000  Uiso   1.00
I796   I     0.76410   0.60713   0.67444   0.00000  Uiso   1.00
I797   I     0.71107   0.39533   0.78205   0.00000  Uiso   1.00
I798   I     0.95541   0.60437   0.71648   0.00000  Uiso   1.00
I799   I     0.95204   0.40017   0.70611   0.00000  Uiso   1.00
I800   I     0.71428   0.59994   0.79291   0.00000  Uiso   1.00
N801   N     0.83333   0.61736   0.75000   0.00000  Uiso   1.00
N802   N     0.83333   0.38264   0.75000   0.00000  Uiso   1.00
O803   O     0.77321   0.53958   0.74999   0.00000  Uiso   1.00
O804   O     0.89345   0.46042   0.75001   0.00000  Uiso   1.00
O805   O     0.89345   0.53958   0.75000   0.00000  Uiso   1.00
O806   O     0.77321   0.46042   0.74999   0.00000  Uiso   1.00
O807   O     0.83333   0.53959   0.68573   0.00000  Uiso   1.00
O808   O     0.83334   0.46041   0.81427   0.00000  Uiso   1.00
O809   O     0.83334   0.53959   0.81427   0.00000  Uiso   1.00
O810   O     0.83333   0.46041   0.68573   0.00000  Uiso   1.00
C811   C     0.08779   0.83315   0.75406   0.00000  Uiso   1.00
C812   C     0.31271   0.87551   0.74553   0.00000  Uiso   1.00
C813   C     0.31174   0.79200   0.74081   0.00000  Uiso   1.00
C814   C     0.02144   0.87466   0.75828   0.00000  Uiso   1.00
C815   C     0.12752   0.84122   0.54588   0.00000  Uiso   1.00
C816   C     0.16456   0.79153   0.95382   0.00000  Uiso   1.00
C817   C     0.16030   0.87492   0.95335   0.00000  Uiso   1.00
C818   C     0.20114   0.82482   0.55036   0.00000  Uiso   1.00
C819   C     0.12829   0.84085   0.59204   0.00000  Uiso   1.00
C820   C     0.16422   0.79132   0.90770   0.00000  Uiso   1.00
C821   C     0.16036   0.87505   0.90723   0.00000  Uiso   1.00
C822   C     0.24548   0.83351   0.74570   0.00000  Uiso   1.00
C823   C     0.20196   0.82486   0.59657   0.00000  Uiso   1.00
C824   C     0.16558   0.83319   0.61733   0.00000  Uiso   1.00
C825   C     0.16348   0.83323   0.88380   0.00000  Uiso   1.00
C826   C     0.16395   0.83327   0.52502   0.00000  Uiso   1.00
C827   C     0.16307   0.83327   0.97666   0.00000  Uiso   1.00
C828   C     0.29030   0.83387   0.74159   0.00000  Uiso   1.00
C829   C     0.04290   0.83277   0.75768   0.00000  Uiso   1.00
C830   C     0.16639   0.83332   0.66534   0.00000  Uiso   1.00
C831   C     0.16565   0.83330   0.83507   0.00000  Uiso   1.00
C832   C     0.14043   0.69122   0.72068   0.00000  Uiso   1.00
C833   C     0.19310   0.97547   0.77913   0.00000  Uiso   1.00
C834   C     0.19326   0.69149   0.77896   0.00000  Uiso   1.00
C835   C     0.14030   0.97522   0.72085   0.00000  Uiso   1.00
C836   C     0.02048   0.79112   0.75351   0.00000  Uiso   1.00
Cu837  Cu    0.16667   0.88022   0.75000   0.00000  Uiso   1.00
Cu838  Cu    0.16667   0.78645   0.75000   0.00000  Uiso   1.00
F839   F     0.09129   0.84859   0.52145   0.00000  Uiso   1.00
F840   F     0.16591   0.75093   0.97631   0.00000  Uiso   1.00
F841   F     0.15793   0.91548   0.97543   0.00000  Uiso   1.00
F842   F     0.23649   0.81700   0.53026   0.00000  Uiso   1.00
F843   F     0.09263   0.84689   0.61205   0.00000  Uiso   1.00
F844   F     0.16399   0.74992   0.88682   0.00000  Uiso   1.00
F845   F     0.15674   0.91615   0.88584   0.00000  Uiso   1.00
F846   F     0.23808   0.81715   0.62108   0.00000  Uiso   1.00
I847   I     0.09896   0.72575   0.67270   0.00000  Uiso   1.00
I848   I     0.23542   0.94099   0.82625   0.00000  Uiso   1.00
I849   I     0.23710   0.72636   0.82448   0.00000  Uiso   1.00
I850   I     0.09743   0.94047   0.67444   0.00000  Uiso   1.00
I851   I     0.04441   0.72867   0.78205   0.00000  Uiso   1.00
I852   I     0.28874   0.93770   0.71648   0.00000  Uiso   1.00
I853   I     0.28538   0.73350   0.70611   0.00000  Uiso   1.00
I854   I     0.04762   0.93327   0.79291   0.00000  Uiso   1.00
N855   N     0.16667   0.95069   0.75000   0.00000  Uiso   1.00
N856   N     0.16667   0.71598   0.75000   0.00000  Uiso   1.00
O857   O     0.10655   0.87291   0.74999   0.00000  Uiso   1.00
O858   O     0.22679   0.79375   0.75001   0.00000  Uiso   1.00
O859   O     0.22679   0.87291   0.75000   0.00000  Uiso   1.00
O860   O     0.10655   0.79375   0.74999   0.00000  Uiso   1.00
O861   O     0.16666   0.87293   0.68573   0.00000  Uiso   1.00
O862   O     0.16667   0.79374   0.81427   0.00000  Uiso   1.00
O863   O     0.16667   0.87293   0.81427   0.00000  Uiso   1.00
O864   O     0.16666   0.79374   0.68573   0.00000  Uiso   1.00
C865   C     0.42113   0.83315   0.75406   0.00000  Uiso   1.00
C866   C     0.64605   0.87551   0.74553   0.00000  Uiso   1.00
C867   C     0.64507   0.79200   0.74081   0.00000  Uiso   1.00
C868   C     0.35477   0.87466   0.75828   0.00000  Uiso   1.00
C869   C     0.46085   0.84122   0.54588   0.00000  Uiso   1.00
C870   C     0.49789   0.79153   0.95382   0.00000  Uiso   1.00
C871   C     0.49363   0.87492   0.95335   0.00000  Uiso   1.00
C872   C     0.53447   0.82482   0.55036   0.00000  Uiso   1.00
C873   C     0.46162   0.84085   0.59204   0.00000  Uiso   1.00
C874   C     0.49755   0.79132   0.90770   0.00000  Uiso   1.00
C875   C     0.49369   0.87505   0.90723   0.00000  Uiso   1.00
C876   C     0.57881   0.83351   0.74570   0.00000  Uiso   1.00
C877   C     0.53529   0.82486   0.59657   0.00000  Uiso   1.00
C878   C     0.49891   0.83319   0.61733   0.00000  Uiso   1.00
C879   C     0.49681   0.83323   0.88380   0.00000  Uiso   1.00
C880   C     0.49728   0.83327   0.52502   0.00000  Uiso   1.00
C881   C     0.49640   0.83327   0.97666   0.00000  Uiso   1.00
C882   C     0.62363   0.83387   0.74159   0.00000  Uiso   1.00
C883   C     0.37623   0.83277   0.75768   0.00000  Uiso   1.00
C884   C     0.49973   0.83332   0.66534   0.00000  Uiso   1.00
C885   C     0.49898   0.83330   0.83507   0.00000  Uiso   1.00
C886   C     0.47377   0.69122   0.72068   0.00000  Uiso   1.00
C887   C     0.52643   0.97547   0.77913   0.00000  Uiso   1.00
C888   C     0.52659   0.69149   0.77896   0.00000  Uiso   1.00
C889   C     0.47363   0.97522   0.72085   0.00000  Uiso   1.00
C890   C     0.35381   0.79112   0.75351   0.00000  Uiso   1.00
Cu891  Cu    0.50000   0.88022   0.75000   0.00000  Uiso   1.00
Cu892  Cu    0.50000   0.78645   0.75000   0.00000  Uiso   1.00
F893   F     0.42463   0.84859   0.52145   0.00000  Uiso   1.00
F894   F     0.49924   0.75093   0.97631   0.00000  Uiso   1.00
F895   F     0.49127   0.91548   0.97543   0.00000  Uiso   1.00
F896   F     0.56982   0.81700   0.53026   0.00000  Uiso   1.00
F897   F     0.42596   0.84689   0.61205   0.00000  Uiso   1.00
F898   F     0.49732   0.74992   0.88682   0.00000  Uiso   1.00
F899   F     0.49008   0.91615   0.88584   0.00000  Uiso   1.00
F900   F     0.57141   0.81715   0.62108   0.00000  Uiso   1.00
I901   I     0.43230   0.72575   0.67270   0.00000  Uiso   1.00
I902   I     0.56875   0.94099   0.82625   0.00000  Uiso   1.00
I903   I     0.57044   0.72636   0.82448   0.00000  Uiso   1.00
I904   I     0.43076   0.94047   0.67444   0.00000  Uiso   1.00
I905   I     0.37774   0.72867   0.78205   0.00000  Uiso   1.00
I906   I     0.62208   0.93770   0.71648   0.00000  Uiso   1.00
I907   I     0.61871   0.73350   0.70611   0.00000  Uiso   1.00
I908   I     0.38095   0.93327   0.79291   0.00000  Uiso   1.00
N909   N     0.50000   0.95069   0.75000   0.00000  Uiso   1.00
N910   N     0.50000   0.71598   0.75000   0.00000  Uiso   1.00
O911   O     0.43988   0.87291   0.74999   0.00000  Uiso   1.00
O912   O     0.56012   0.79375   0.75001   0.00000  Uiso   1.00
O913   O     0.56012   0.87291   0.75000   0.00000  Uiso   1.00
O914   O     0.43988   0.79375   0.74999   0.00000  Uiso   1.00
O915   O     0.50000   0.87293   0.68573   0.00000  Uiso   1.00
O916   O     0.50000   0.79374   0.81427   0.00000  Uiso   1.00
O917   O     0.50000   0.87293   0.81427   0.00000  Uiso   1.00
O918   O     0.50000   0.79374   0.68573   0.00000  Uiso   1.00
C919   C     0.75446   0.83315   0.75406   0.00000  Uiso   1.00
C920   C     0.97938   0.87551   0.74553   0.00000  Uiso   1.00
C921   C     0.97841   0.79200   0.74081   0.00000  Uiso   1.00
C922   C     0.68811   0.87466   0.75828   0.00000  Uiso   1.00
C923   C     0.79418   0.84122   0.54588   0.00000  Uiso   1.00
C924   C     0.83123   0.79153   0.95382   0.00000  Uiso   1.00
C925   C     0.82696   0.87492   0.95335   0.00000  Uiso   1.00
C926   C     0.86780   0.82482   0.55036   0.00000  Uiso   1.00
C927   C     0.79495   0.84085   0.59204   0.00000  Uiso   1.00
C928   C     0.83089   0.79132   0.90770   0.00000  Uiso   1.00
C929   C     0.82703   0.87505   0.90723   0.00000  Uiso   1.00
C930   C     0.91214   0.83351   0.74570   0.00000  Uiso   1.00
C931   C     0.86862   0.82486   0.59657   0.00000  Uiso   1.00
C932   C     0.83225   0.83319   0.61733   0.00000  Uiso   1.00
C933   C     0.83015   0.83323   0.88380   0.00000  Uiso   1.00
C934   C     0.83061   0.83327   0.52502   0.00000  Uiso   1.00
C935   C     0.82973   0.83327   0.97666   0.00000  Uiso   1.00
C936   C     0.95696   0.83387   0.74159   0.00000  Uiso   1.00
C937   C     0.70956   0.83277   0.75768   0.00000  Uiso   1.00
C938   C     0.83306   0.83332   0.66534   0.00000  Uiso   1.00
C939   C     0.83232   0.83330   0.83507   0.00000  Uiso   1.00
C940   C     0.80710   0.69122   0.72068   0.00000  Uiso   1.00
C941   C     0.85977   0.97547   0.77913   0.00000  Uiso   1.00
C942   C     0.85993   0.69149   0.77896   0.00000  Uiso   1.00
C943   C     0.80696   0.97522   0.72085   0.00000  Uiso   1.00
C944   C     0.68714   0.79112   0.75351   0.00000  Uiso   1.00
Cu945  Cu    0.83333   0.88022   0.75000   0.00000  Uiso   1.00
Cu946  Cu    0.83333   0.78645   0.75000   0.00000  Uiso   1.00
F947   F     0.75796   0.84859   0.52145   0.00000  Uiso   1.00
F948   F     0.83257   0.75093   0.97631   0.00000  Uiso   1.00
F949   F     0.82460   0.91548   0.97543   0.00000  Uiso   1.00
F950   F     0.90316   0.81700   0.53026   0.00000  Uiso   1.00
F951   F     0.75930   0.84689   0.61205   0.00000  Uiso   1.00
F952   F     0.83065   0.74992   0.88682   0.00000  Uiso   1.00
F953   F     0.82341   0.91615   0.88584   0.00000  Uiso   1.00
F954   F     0.90475   0.81715   0.62108   0.00000  Uiso   1.00
I955   I     0.76563   0.72575   0.67270   0.00000  Uiso   1.00
I956   I     0.90208   0.94099   0.82625   0.00000  Uiso   1.00
I957   I     0.90377   0.72636   0.82448   0.00000  Uiso   1.00
I958   I     0.76410   0.94047   0.67444   0.00000  Uiso   1.00
I959   I     0.71107   0.72867   0.78205   0.00000  Uiso   1.00
I960   I     0.95541   0.93770   0.71648   0.00000  Uiso   1.00
I961   I     0.95204   0.73350   0.70611   0.00000  Uiso   1.00
I962   I     0.71428   0.93327   0.79291   0.00000  Uiso   1.00
N963   N     0.83333   0.95069   0.75000   0.00000  Uiso   1.00
N964   N     0.83333   0.71598   0.75000   0.00000  Uiso   1.00
O965   O     0.77321   0.87291   0.74999   0.00000  Uiso   1.00
O966   O     0.89345   0.79375   0.75001   0.00000  Uiso   1.00
O967   O     0.89345   0.87291   0.75000   0.00000  Uiso   1.00
O968   O     0.77321   0.79375   0.74999   0.00000  Uiso   1.00
O969   O     0.83333   0.87293   0.68573   0.00000  Uiso   1.00
O970   O     0.83334   0.79374   0.81427   0.00000  Uiso   1.00
O971   O     0.83334   0.87293   0.81427   0.00000  Uiso   1.00
O972   O     0.83333   0.79374   0.68573   0.00000  Uiso   1.00
loop_
_geom_bond_atom_site_label_1
_geom_bond_atom_site_label_2
_geom_bond_distance
_geom_bond_site_symmetry_2
_ccdc_geom_bond_type
C1     O50     1.308   .     A
C1     C19     1.469   .     S
C1     O47     1.311   .     A
C2     C18     1.407   .     A
C2     I42     2.131   .     S
C2     C58     1.391   .     S
C3     I43     2.135   .     S
C3     C18     1.405   .     A
C3     C80     1.391   .     S
C4     I44     2.135   .     S
C4     C19     1.405   .     A
C4     C110    1.391   1_455 S
C5     C9      1.391   .     A
C5     F29     1.358   .     S
C5     C16     1.401   .     A
C6     C10     1.391   .     A
C6     F30     1.358   .     S
C6     C17     1.397   .     A
C7     C11     1.392   .     A
C7     F31     1.358   .     S
C7     C17     1.398   .     A
C8     C13     1.393   .     A
C8     F32     1.358   .     S
C8     C16     1.402   .     A
C9     C14     1.401   .     A
C9     F33     1.357   .     S
C10    F34     1.356   .     S
C10    C15     1.413   .     A
C11    F35     1.357   .     S
C11    C15     1.413   .     A
C12    O48     1.311   .     A
C12    O49     1.309   .     A
C12    C18     1.469   .     S
C13    F36     1.358   .     S
C13    C14     1.400   .     A
C14    C20     1.447   .     S
C15    C21     1.477   .     S
C16    C503    1.457   1_554 S
C17    C502    1.457   .     S
C19    C26     1.408   .     A
C20    O51     1.304   .     A
C20    O54     1.302   .     A
C21    O53     1.311   .     A
C21    O52     1.310   .     A
C22    I37     2.153   .     S
C22    N46     1.380   .     A
C22    C349    1.431   1_545 S
C23    N45     1.380   .     A
C23    I38     2.152   .     S
C23    C186    1.432   .     S
C24    N46     1.381   .     A
C24    I39     2.151   .     S
C24    C347    1.432   1_545 S
C25    N45     1.381   .     A
C25    I40     2.146   .     S
C25    C184    1.431   .     S
C26    I41     2.131   .     S
C26    C111    1.391   1_455 S
Cu27   O53     1.951   .     S
Cu27   N45     2.045   .     S
Cu27   O51     1.951   .     S
Cu27   O47     1.961   .     S
Cu27   Cu28    2.721   .     S
Cu27   O49     1.964   .     S
Cu28   O52     1.951   .     S
Cu28   O50     1.964   .     S
Cu28   N46     2.045   .     S
Cu28   O54     1.951   .     S
Cu28   O48     1.961   .     S
C55    O104    1.308   .     A
C55    C73     1.469   .     S
C55    O101    1.311   .     A
C56    C72     1.407   .     A
C56    I96     2.131   .     S
C56    C112    1.391   .     S
C57    I97     2.135   .     S
C57    C72     1.405   .     A
C57    C134    1.391   .     S
C58    I98     2.135   .     S
C58    C73     1.405   .     A
C59    C63     1.391   .     A
C59    F83     1.358   .     S
C59    C70     1.401   .     A
C60    C64     1.391   .     A
C60    F84     1.358   .     S
C60    C71     1.397   .     A
C61    C65     1.392   .     A
C61    F85     1.358   .     S
C61    C71     1.398   .     A
C62    C67     1.393   .     A
C62    F86     1.358   .     S
C62    C70     1.402   .     A
C63    C68     1.401   .     A
C63    F87     1.357   .     S
C64    F88     1.356   .     S
C64    C69     1.413   .     A
C65    F89     1.357   .     S
C65    C69     1.413   .     A
C66    O102    1.311   .     A
C66    O103    1.309   .     A
C66    C72     1.469   .     S
C67    F90     1.358   .     S
C67    C68     1.400   .     A
C68    C74     1.447   .     S
C69    C75     1.477   .     S
C70    C557    1.457   1_554 S
C71    C556    1.457   .     S
C73    C80     1.408   .     A
C74    O105    1.304   .     A
C74    O108    1.302   .     A
C75    O107    1.311   .     A
C75    O106    1.310   .     A
C76    I91     2.153   .     S
C76    N100    1.380   .     A
C76    C403    1.431   1_545 S
C77    N99     1.380   .     A
C77    I92     2.152   .     S
C77    C240    1.432   .     S
C78    N100    1.381   .     A
C78    I93     2.151   .     S
C78    C401    1.432   1_545 S
C79    N99     1.381   .     A
C79    I94     2.146   .     S
C79    C238    1.431   .     S
C80    I95     2.131   .     S
Cu81   O107    1.951   .     S
Cu81   N99     2.045   .     S
Cu81   O105    1.951   .     S
Cu81   O101    1.961   .     S
Cu81   Cu82    2.721   .     S
Cu81   O103    1.964   .     S
Cu82   O106    1.951   .     S
Cu82   O104    1.964   .     S
Cu82   N100    2.045   .     S
Cu82   O108    1.951   .     S
Cu82   O102    1.961   .     S
C109   O158    1.308   .     A
C109   C127    1.469   .     S
C109   O155    1.311   .     A
C110   C126    1.407   .     A
C110   I150    2.131   .     S
C110   C4      1.391   1_655 S
C111   I151    2.135   .     S
C111   C126    1.405   .     A
C111   C26     1.391   1_655 S
C112   I152    2.135   .     S
C112   C127    1.405   .     A
C113   C117    1.391   .     A
C113   F137    1.358   .     S
C113   C124    1.401   .     A
C114   C118    1.391   .     A
C114   F138    1.358   .     S
C114   C125    1.397   .     A
C115   C119    1.392   .     A
C115   F139    1.358   .     S
C115   C125    1.398   .     A
C116   C121    1.393   .     A
C116   F140    1.358   .     S
C116   C124    1.402   .     A
C117   C122    1.401   .     A
C117   F141    1.357   .     S
C118   F142    1.356   .     S
C118   C123    1.413   .     A
C119   F143    1.357   .     S
C119   C123    1.413   .     A
C120   O156    1.311   .     A
C120   O157    1.309   .     A
C120   C126    1.469   .     S
C121   F144    1.358   .     S
C121   C122    1.400   .     A
C122   C128    1.447   .     S
C123   C129    1.477   .     S
C124   C611    1.457   1_554 S
C125   C610    1.457   .     S
C127   C134    1.408   .     A
C128   O159    1.304   .     A
C128   O162    1.302   .     A
C129   O161    1.311   .     A
C129   O160    1.310   .     A
C130   I145    2.153   .     S
C130   N154    1.380   .     A
C130   C457    1.431   1_545 S
C131   N153    1.380   .     A
C131   I146    2.152   .     S
C131   C294    1.432   .     S
C132   N154    1.381   .     A
C132   I147    2.151   .     S
C132   C455    1.432   1_545 S
C133   N153    1.381   .     A
C133   I148    2.146   .     S
C133   C292    1.431   .     S
C134   I149    2.131   .     S
Cu135  O161    1.951   .     S
Cu135  N153    2.045   .     S
Cu135  O159    1.951   .     S
Cu135  O155    1.961   .     S
Cu135  Cu136   2.721   .     S
Cu135  O157    1.964   .     S
Cu136  O160    1.951   .     S
Cu136  O158    1.964   .     S
Cu136  N154    2.045   .     S
Cu136  O162    1.951   .     S
Cu136  O156    1.961   .     S
C163   O212    1.308   .     A
C163   C181    1.469   .     S
C163   O209    1.311   .     A
C164   C180    1.407   .     A
C164   I204    2.131   .     S
C164   C220    1.391   .     S
C165   I205    2.135   .     S
C165   C180    1.405   .     A
C165   C242    1.391   .     S
C166   I206    2.135   .     S
C166   C181    1.405   .     A
C166   C272    1.391   1_455 S
C167   C171    1.391   .     A
C167   F191    1.358   .     S
C167   C178    1.401   .     A
C168   C172    1.391   .     A
C168   F192    1.358   .     S
C168   C179    1.397   .     A
C169   C173    1.392   .     A
C169   F193    1.358   .     S
C169   C179    1.398   .     A
C170   C175    1.393   .     A
C170   F194    1.358   .     S
C170   C178    1.402   .     A
C171   C176    1.401   .     A
C171   F195    1.357   .     S
C172   F196    1.356   .     S
C172   C177    1.413   .     A
C173   F197    1.357   .     S
C173   C177    1.413   .     A
C174   O210    1.311   .     A
C174   O211    1.309   .     A
C174   C180    1.469   .     S
C175   F198    1.358   .     S
C175   C176    1.400   .     A
C176   C182    1.447   .     S
C177   C183    1.477   .     S
C178   C665    1.457   1_554 S
C179   C664    1.457   .     S
C181   C188    1.408   .     A
C182   O213    1.304   .     A
C182   O216    1.302   .     A
C183   O215    1.311   .     A
C183   O214    1.310   .     A
C184   I199    2.153   .     S
C184   N208    1.380   .     A
C185   N207    1.380   .     A
C185   I200    2.152   .     S
C185   C348    1.432   .     S
C186   N208    1.381   .     A
C186   I201    2.151   .     S
C187   N207    1.381   .     A
C187   I202    2.146   .     S
C187   C346    1.431   .     S
C188   I203    2.131   .     S
C188   C273    1.391   1_455 S
Cu189  O215    1.951   .     S
Cu189  N207    2.045   .     S
Cu189  O213    1.951   .     S
Cu189  O209    1.961   .     S
Cu189  Cu190   2.721   .     S
Cu189  O211    1.964   .     S
Cu190  O214    1.951   .     S
Cu190  O212    1.964   .     S
Cu190  N208    2.045   .     S
Cu190  O216    1.951   .     S
Cu190  O210    1.961   .     S
C217   O266    1.308   .     A
C217   C235    1.469   .     S
C217   O263    1.311   .     A
C218   C234    1.407   .     A
C218   I258    2.131   .     S
C218   C274    1.391   .     S
C219   I259    2.135   .     S
C219   C234    1.405   .     A
C219   C296    1.391   .     S
C220   I260    2.135   .     S
C220   C235    1.405   .     A
C221   C225    1.391   .     A
C221   F245    1.358   .     S
C221   C232    1.401   .     A
C222   C226    1.391   .     A
C222   F246    1.358   .     S
C222   C233    1.397   .     A
C223   C227    1.392   .     A
C223   F247    1.358   .     S
C223   C233    1.398   .     A
C224   C229    1.393   .     A
C224   F248    1.358   .     S
C224   C232    1.402   .     A
C225   C230    1.401   .     A
C225   F249    1.357   .     S
C226   F250    1.356   .     S
C226   C231    1.413   .     A
C227   F251    1.357   .     S
C227   C231    1.413   .     A
C228   O264    1.311   .     A
C228   O265    1.309   .     A
C228   C234    1.469   .     S
C229   F252    1.358   .     S
C229   C230    1.400   .     A
C230   C236    1.447   .     S
C231   C237    1.477   .     S
C232   C719    1.457   1_554 S
C233   C718    1.457   .     S
C235   C242    1.408   .     A
C236   O267    1.304   .     A
C236   O270    1.302   .     A
C237   O269    1.311   .     A
C237   O268    1.310   .     A
C238   I253    2.153   .     S
C238   N262    1.380   .     A
C239   N261    1.380   .     A
C239   I254    2.152   .     S
C239   C402    1.432   .     S
C240   N262    1.381   .     A
C240   I255    2.151   .     S
C241   N261    1.381   .     A
C241   I256    2.146   .     S
C241   C400    1.431   .     S
C242   I257    2.131   .     S
Cu243  O269    1.951   .     S
Cu243  N261    2.045   .     S
Cu243  O267    1.951   .     S
Cu243  O263    1.961   .     S
Cu243  Cu244   2.721   .     S
Cu243  O265    1.964   .     S
Cu244  O268    1.951   .     S
Cu244  O266    1.964   .     S
Cu244  N262    2.045   .     S
Cu244  O270    1.951   .     S
Cu244  O264    1.961   .     S
C271   O320    1.308   .     A
C271   C289    1.469   .     S
C271   O317    1.311   .     A
C272   C288    1.407   .     A
C272   I312    2.131   .     S
C272   C166    1.391   1_655 S
C273   I313    2.135   .     S
C273   C288    1.405   .     A
C273   C188    1.391   1_655 S
C274   I314    2.135   .     S
C274   C289    1.405   .     A
C275   C279    1.391   .     A
C275   F299    1.358   .     S
C275   C286    1.401   .     A
C276   C280    1.391   .     A
C276   F300    1.358   .     S
C276   C287    1.397   .     A
C277   C281    1.392   .     A
C277   F301    1.358   .     S
C277   C287    1.398   .     A
C278   C283    1.393   .     A
C278   F302    1.358   .     S
C278   C286    1.402   .     A
C279   C284    1.401   .     A
C279   F303    1.357   .     S
C280   F304    1.356   .     S
C280   C285    1.413   .     A
C281   F305    1.357   .     S
C281   C285    1.413   .     A
C282   O318    1.311   .     A
C282   O319    1.309   .     A
C282   C288    1.469   .     S
C283   F306    1.358   .     S
C283   C284    1.400   .     A
C284   C290    1.447   .     S
C285   C291    1.477   .     S
C286   C773    1.457   1_554 S
C287   C772    1.457   .     S
C289   C296    1.408   .     A
C290   O321    1.304   .     A
C290   O324    1.302   .     A
C291   O323    1.311   .     A
C291   O322    1.310   .     A
C292   I307    2.153   .     S
C292   N316    1.380   .     A
C293   N315    1.380   .     A
C293   I308    2.152   .     S
C293   C456    1.432   .     S
C294   N316    1.381   .     A
C294   I309    2.151   .     S
C295   N315    1.381   .     A
C295   I310    2.146   .     S
C295   C454    1.431   .     S
C296   I311    2.131   .     S
Cu297  O323    1.951   .     S
Cu297  N315    2.045   .     S
Cu297  O321    1.951   .     S
Cu297  O317    1.961   .     S
Cu297  Cu298   2.721   .     S
Cu297  O319    1.964   .     S
Cu298  O322    1.951   .     S
Cu298  O320    1.964   .     S
Cu298  N316    2.045   .     S
Cu298  O324    1.951   .     S
Cu298  O318    1.961   .     S
C325   O374    1.308   .     A
C325   C343    1.469   .     S
C325   O371    1.311   .     A
C326   C342    1.407   .     A
C326   I366    2.131   .     S
C326   C382    1.391   .     S
C327   I367    2.135   .     S
C327   C342    1.405   .     A
C327   C404    1.391   .     S
C328   I368    2.135   .     S
C328   C343    1.405   .     A
C328   C434    1.391   1_455 S
C329   C333    1.391   .     A
C329   F353    1.358   .     S
C329   C340    1.401   .     A
C330   C334    1.391   .     A
C330   F354    1.358   .     S
C330   C341    1.397   .     A
C331   C335    1.392   .     A
C331   F355    1.358   .     S
C331   C341    1.398   .     A
C332   C337    1.393   .     A
C332   F356    1.358   .     S
C332   C340    1.402   .     A
C333   C338    1.401   .     A
C333   F357    1.357   .     S
C334   F358    1.356   .     S
C334   C339    1.413   .     A
C335   F359    1.357   .     S
C335   C339    1.413   .     A
C336   O372    1.311   .     A
C336   O373    1.309   .     A
C336   C342    1.469   .     S
C337   F360    1.358   .     S
C337   C338    1.400   .     A
C338   C344    1.447   .     S
C339   C345    1.477   .     S
C340   C827    1.457   1_554 S
C341   C826    1.457   .     S
C343   C350    1.408   .     A
C344   O375    1.304   .     A
C344   O378    1.302   .     A
C345   O377    1.311   .     A
C345   O376    1.310   .     A
C346   I361    2.153   .     S
C346   N370    1.380   .     A
C347   N369    1.380   .     A
C347   I362    2.152   .     S
C347   C24     1.432   1_565 S
C348   N370    1.381   .     A
C348   I363    2.151   .     S
C349   N369    1.381   .     A
C349   I364    2.146   .     S
C349   C22     1.431   1_565 S
C350   I365    2.131   .     S
C350   C435    1.391   1_455 S
Cu351  O377    1.951   .     S
Cu351  N369    2.045   .     S
Cu351  O375    1.951   .     S
Cu351  O371    1.961   .     S
Cu351  Cu352   2.721   .     S
Cu351  O373    1.964   .     S
Cu352  O376    1.951   .     S
Cu352  O374    1.964   .     S
Cu352  N370    2.045   .     S
Cu352  O378    1.951   .     S
Cu352  O372    1.961   .     S
C379   O428    1.308   .     A
C379   C397    1.469   .     S
C379   O425    1.311   .     A
C380   C396    1.407   .     A
C380   I420    2.131   .     S
C380   C436    1.391   .     S
C381   I421    2.135   .     S
C381   C396    1.405   .     A
C381   C458    1.391   .     S
C382   I422    2.135   .     S
C382   C397    1.405   .     A
C383   C387    1.391   .     A
C383   F407    1.358   .     S
C383   C394    1.401   .     A
C384   C388    1.391   .     A
C384   F408    1.358   .     S
C384   C395    1.397   .     A
C385   C389    1.392   .     A
C385   F409    1.358   .     S
C385   C395    1.398   .     A
C386   C391    1.393   .     A
C386   F410    1.358   .     S
C386   C394    1.402   .     A
C387   C392    1.401   .     A
C387   F411    1.357   .     S
C388   F412    1.356   .     S
C388   C393    1.413   .     A
C389   F413    1.357   .     S
C389   C393    1.413   .     A
C390   O426    1.311   .     A
C390   O427    1.309   .     A
C390   C396    1.469   .     S
C391   F414    1.358   .     S
C391   C392    1.400   .     A
C392   C398    1.447   .     S
C393   C399    1.477   .     S
C394   C881    1.457   1_554 S
C395   C880    1.457   .     S
C397   C404    1.408   .     A
C398   O429    1.304   .     A
C398   O432    1.302   .     A
C399   O431    1.311   .     A
C399   O430    1.310   .     A
C400   I415    2.153   .     S
C400   N424    1.380   .     A
C401   N423    1.380   .     A
C401   I416    2.152   .     S
C401   C78     1.432   1_565 S
C402   N424    1.381   .     A
C402   I417    2.151   .     S
C403   N423    1.381   .     A
C403   I418    2.146   .     S
C403   C76     1.431   1_565 S
C404   I419    2.131   .     S
Cu405  O431    1.951   .     S
Cu405  N423    2.045   .     S
Cu405  O429    1.951   .     S
Cu405  O425    1.961   .     S
Cu405  Cu406   2.721   .     S
Cu405  O427    1.964   .     S
Cu406  O430    1.951   .     S
Cu406  O428    1.964   .     S
Cu406  N424    2.045   .     S
Cu406  O432    1.951   .     S
Cu406  O426    1.961   .     S
C433   O482    1.308   .     A
C433   C451    1.469   .     S
C433   O479    1.311   .     A
C434   C450    1.407   .     A
C434   I474    2.131   .     S
C434   C328    1.391   1_655 S
C435   I475    2.135   .     S
C435   C450    1.405   .     A
C435   C350    1.391   1_655 S
C436   I476    2.135   .     S
C436   C451    1.405   .     A
C437   C441    1.391   .     A
C437   F461    1.358   .     S
C437   C448    1.401   .     A
C438   C442    1.391   .     A
C438   F462    1.358   .     S
C438   C449    1.397   .     A
C439   C443    1.392   .     A
C439   F463    1.358   .     S
C439   C449    1.398   .     A
C440   C445    1.393   .     A
C440   F464    1.358   .     S
C440   C448    1.402   .     A
C441   C446    1.401   .     A
C441   F465    1.357   .     S
C442   F466    1.356   .     S
C442   C447    1.413   .     A
C443   F467    1.357   .     S
C443   C447    1.413   .     A
C444   O480    1.311   .     A
C444   O481    1.309   .     A
C444   C450    1.469   .     S
C445   F468    1.358   .     S
C445   C446    1.400   .     A
C446   C452    1.447   .     S
C447   C453    1.477   .     S
C448   C935    1.457   1_554 S
C449   C934    1.457   .     S
C451   C458    1.408   .     A
C452   O483    1.304   .     A
C452   O486    1.302   .     A
C453   O485    1.311   .     A
C453   O484    1.310   .     A
C454   I469    2.153   .     S
C454   N478    1.380   .     A
C455   N477    1.380   .     A
C455   I470    2.152   .     S
C455   C132    1.432   1_565 S
C456   N478    1.381   .     A
C456   I471    2.151   .     S
C457   N477    1.381   .     A
C457   I472    2.146   .     S
C457   C130    1.431   1_565 S
C458   I473    2.131   .     S
Cu459  O485    1.951   .     S
Cu459  N477    2.045   .     S
Cu459  O483    1.951   .     S
Cu459  O479    1.961   .     S
Cu459  Cu460   2.721   .     S
Cu459  O481    1.964   .     S
Cu460  O484    1.951   .     S
Cu460  O482    1.964   .     S
Cu460  N478    2.045   .     S
Cu460  O486    1.951   .     S
Cu460  O480    1.961   .     S
C487   O536    1.308   .     A
C487   C505    1.469   .     S
C487   O533    1.311   .     A
C488   C504    1.407   .     A
C488   I528    2.131   .     S
C488   C544    1.391   .     S
C489   I529    2.135   .     S
C489   C504    1.405   .     A
C489   C566    1.391   .     S
C490   I530    2.135   .     S
C490   C505    1.405   .     A
C490   C596    1.391   1_455 S
C491   C495    1.391   .     A
C491   F515    1.358   .     S
C491   C502    1.401   .     A
C492   C496    1.391   .     A
C492   F516    1.358   .     S
C492   C503    1.397   .     A
C493   C497    1.392   .     A
C493   F517    1.358   .     S
C493   C503    1.398   .     A
C494   C499    1.393   .     A
C494   F518    1.358   .     S
C494   C502    1.402   .     A
C495   C500    1.401   .     A
C495   F519    1.357   .     S
C496   F520    1.356   .     S
C496   C501    1.413   .     A
C497   F521    1.357   .     S
C497   C501    1.413   .     A
C498   O534    1.311   .     A
C498   O535    1.309   .     A
C498   C504    1.469   .     S
C499   F522    1.358   .     S
C499   C500    1.400   .     A
C500   C506    1.447   .     S
C501   C507    1.477   .     S
C503   C16     1.457   1_556 S
C505   C512    1.408   .     A
C506   O537    1.304   .     A
C506   O540    1.302   .     A
C507   O539    1.311   .     A
C507   O538    1.310   .     A
C508   I523    2.153   .     S
C508   N532    1.380   .     A
C508   C835    1.431   1_545 S
C509   N531    1.380   .     A
C509   I524    2.152   .     S
C509   C672    1.432   .     S
C510   N532    1.381   .     A
C510   I525    2.151   .     S
C510   C833    1.432   1_545 S
C511   N531    1.381   .     A
C511   I526    2.146   .     S
C511   C670    1.431   .     S
C512   I527    2.131   .     S
C512   C597    1.391   1_455 S
Cu513  O539    1.951   .     S
Cu513  N531    2.045   .     S
Cu513  O537    1.951   .     S
Cu513  O533    1.961   .     S
Cu513  Cu514   2.721   .     S
Cu513  O535    1.964   .     S
Cu514  O538    1.951   .     S
Cu514  O536    1.964   .     S
Cu514  N532    2.045   .     S
Cu514  O540    1.951   .     S
Cu514  O534    1.961   .     S
C541   O590    1.308   .     A
C541   C559    1.469   .     S
C541   O587    1.311   .     A
C542   C558    1.407   .     A
C542   I582    2.131   .     S
C542   C598    1.391   .     S
C543   I583    2.135   .     S
C543   C558    1.405   .     A
C543   C620    1.391   .     S
C544   I584    2.135   .     S
C544   C559    1.405   .     A
C545   C549    1.391   .     A
C545   F569    1.358   .     S
C545   C556    1.401   .     A
C546   C550    1.391   .     A
C546   F570    1.358   .     S
C546   C557    1.397   .     A
C547   C551    1.392   .     A
C547   F571    1.358   .     S
C547   C557    1.398   .     A
C548   C553    1.393   .     A
C548   F572    1.358   .     S
C548   C556    1.402   .     A
C549   C554    1.401   .     A
C549   F573    1.357   .     S
C550   F574    1.356   .     S
C550   C555    1.413   .     A
C551   F575    1.357   .     S
C551   C555    1.413   .     A
C552   O588    1.311   .     A
C552   O589    1.309   .     A
C552   C558    1.469   .     S
C553   F576    1.358   .     S
C553   C554    1.400   .     A
C554   C560    1.447   .     S
C555   C561    1.477   .     S
C557   C70     1.457   1_556 S
C559   C566    1.408   .     A
C560   O591    1.304   .     A
C560   O594    1.302   .     A
C561   O593    1.311   .     A
C561   O592    1.310   .     A
C562   I577    2.153   .     S
C562   N586    1.380   .     A
C562   C889    1.431   1_545 S
C563   N585    1.380   .     A
C563   I578    2.152   .     S
C563   C726    1.432   .     S
C564   N586    1.381   .     A
C564   I579    2.151   .     S
C564   C887    1.432   1_545 S
C565   N585    1.381   .     A
C565   I580    2.146   .     S
C565   C724    1.431   .     S
C566   I581    2.131   .     S
Cu567  O593    1.951   .     S
Cu567  N585    2.045   .     S
Cu567  O591    1.951   .     S
Cu567  O587    1.961   .     S
Cu567  Cu568   2.721   .     S
Cu567  O589    1.964   .     S
Cu568  O592    1.951   .     S
Cu568  O590    1.964   .     S
Cu568  N586    2.045   .     S
Cu568  O594    1.951   .     S
Cu568  O588    1.961   .     S
C595   O644    1.308   .     A
C595   C613    1.469   .     S
C595   O641    1.311   .     A
C596   C612    1.407   .     A
C596   I636    2.131   .     S
C596   C490    1.391   1_655 S
C597   I637    2.135   .     S
C597   C612    1.405   .     A
C597   C512    1.391   1_655 S
C598   I638    2.135   .     S
C598   C613    1.405   .     A
C599   C603    1.391   .     A
C599   F623    1.358   .     S
C599   C610    1.401   .     A
C600   C604    1.391   .     A
C600   F624    1.358   .     S
C600   C611    1.397   .     A
C601   C605    1.392   .     A
C601   F625    1.358   .     S
C601   C611    1.398   .     A
C602   C607    1.393   .     A
C602   F626    1.358   .     S
C602   C610    1.402   .     A
C603   C608    1.401   .     A
C603   F627    1.357   .     S
C604   F628    1.356   .     S
C604   C609    1.413   .     A
C605   F629    1.357   .     S
C605   C609    1.413   .     A
C606   O642    1.311   .     A
C606   O643    1.309   .     A
C606   C612    1.469   .     S
C607   F630    1.358   .     S
C607   C608    1.400   .     A
C608   C614    1.447   .     S
C609   C615    1.477   .     S
C611   C124    1.457   1_556 S
C613   C620    1.408   .     A
C614   O645    1.304   .     A
C614   O648    1.302   .     A
C615   O647    1.311   .     A
C615   O646    1.310   .     A
C616   I631    2.153   .     S
C616   N640    1.380   .     A
C616   C943    1.431   1_545 S
C617   N639    1.380   .     A
C617   I632    2.152   .     S
C617   C780    1.432   .     S
C618   N640    1.381   .     A
C618   I633    2.151   .     S
C618   C941    1.432   1_545 S
C619   N639    1.381   .     A
C619   I634    2.146   .     S
C619   C778    1.431   .     S
C620   I635    2.131   .     S
Cu621  O647    1.951   .     S
Cu621  N639    2.045   .     S
Cu621  O645    1.951   .     S
Cu621  O641    1.961   .     S
Cu621  Cu622   2.721   .     S
Cu621  O643    1.964   .     S
Cu622  O646    1.951   .     S
Cu622  O644    1.964   .     S
Cu622  N640    2.045   .     S
Cu622  O648    1.951   .     S
Cu622  O642    1.961   .     S
C649   O698    1.308   .     A
C649   C667    1.469   .     S
C649   O695    1.311   .     A
C650   C666    1.407   .     A
C650   I690    2.131   .     S
C650   C706    1.391   .     S
C651   I691    2.135   .     S
C651   C666    1.405   .     A
C651   C728    1.391   .     S
C652   I692    2.135   .     S
C652   C667    1.405   .     A
C652   C758    1.391   1_455 S
C653   C657    1.391   .     A
C653   F677    1.358   .     S
C653   C664    1.401   .     A
C654   C658    1.391   .     A
C654   F678    1.358   .     S
C654   C665    1.397   .     A
C655   C659    1.392   .     A
C655   F679    1.358   .     S
C655   C665    1.398   .     A
C656   C661    1.393   .     A
C656   F680    1.358   .     S
C656   C664    1.402   .     A
C657   C662    1.401   .     A
C657   F681    1.357   .     S
C658   F682    1.356   .     S
C658   C663    1.413   .     A
C659   F683    1.357   .     S
C659   C663    1.413   .     A
C660   O696    1.311   .     A
C660   O697    1.309   .     A
C660   C666    1.469   .     S
C661   F684    1.358   .     S
C661   C662    1.400   .     A
C662   C668    1.447   .     S
C663   C669    1.477   .     S
C665   C178    1.457   1_556 S
C667   C674    1.408   .     A
C668   O699    1.304   .     A
C668   O702    1.302   .     A
C669   O701    1.311   .     A
C669   O700    1.310   .     A
C670   I685    2.153   .     S
C670   N694    1.380   .     A
C671   N693    1.380   .     A
C671   I686    2.152   .     S
C671   C834    1.432   .     S
C672   N694    1.381   .     A
C672   I687    2.151   .     S
C673   N693    1.381   .     A
C673   I688    2.146   .     S
C673   C832    1.431   .     S
C674   I689    2.131   .     S
C674   C759    1.391   1_455 S
Cu675  O701    1.951   .     S
Cu675  N693    2.045   .     S
Cu675  O699    1.951   .     S
Cu675  O695    1.961   .     S
Cu675  Cu676   2.721   .     S
Cu675  O697    1.964   .     S
Cu676  O700    1.951   .     S
Cu676  O698    1.964   .     S
Cu676  N694    2.045   .     S
Cu676  O702    1.951   .     S
Cu676  O696    1.961   .     S
C703   O752    1.308   .     A
C703   C721    1.469   .     S
C703   O749    1.311   .     A
C704   C720    1.407   .     A
C704   I744    2.131   .     S
C704   C760    1.391   .     S
C705   I745    2.135   .     S
C705   C720    1.405   .     A
C705   C782    1.391   .     S
C706   I746    2.135   .     S
C706   C721    1.405   .     A
C707   C711    1.391   .     A
C707   F731    1.358   .     S
C707   C718    1.401   .     A
C708   C712    1.391   .     A
C708   F732    1.358   .     S
C708   C719    1.397   .     A
C709   C713    1.392   .     A
C709   F733    1.358   .     S
C709   C719    1.398   .     A
C710   C715    1.393   .     A
C710   F734    1.358   .     S
C710   C718    1.402   .     A
C711   C716    1.401   .     A
C711   F735    1.357   .     S
C712   F736    1.356   .     S
C712   C717    1.413   .     A
C713   F737    1.357   .     S
C713   C717    1.413   .     A
C714   O750    1.311   .     A
C714   O751    1.309   .     A
C714   C720    1.469   .     S
C715   F738    1.358   .     S
C715   C716    1.400   .     A
C716   C722    1.447   .     S
C717   C723    1.477   .     S
C719   C232    1.457   1_556 S
C721   C728    1.408   .     A
C722   O753    1.304   .     A
C722   O756    1.302   .     A
C723   O755    1.311   .     A
C723   O754    1.310   .     A
C724   I739    2.153   .     S
C724   N748    1.380   .     A
C725   N747    1.380   .     A
C725   I740    2.152   .     S
C725   C888    1.432   .     S
C726   N748    1.381   .     A
C726   I741    2.151   .     S
C727   N747    1.381   .     A
C727   I742    2.146   .     S
C727   C886    1.431   .     S
C728   I743    2.131   .     S
Cu729  O755    1.951   .     S
Cu729  N747    2.045   .     S
Cu729  O753    1.951   .     S
Cu729  O749    1.961   .     S
Cu729  Cu730   2.721   .     S
Cu729  O751    1.964   .     S
Cu730  O754    1.951   .     S
Cu730  O752    1.964   .     S
Cu730  N748    2.045   .     S
Cu730  O756    1.951   .     S
Cu730  O750    1.961   .     S
C757   O806    1.308   .     A
C757   C775    1.469   .     S
C757   O803    1.311   .     A
C758   C774    1.407   .     A
C758   I798    2.131   .     S
C758   C652    1.391   1_655 S
C759   I799    2.135   .     S
C759   C774    1.405   .     A
C759   C674    1.391   1_655 S
C760   I800    2.135   .     S
C760   C775    1.405   .     A
C761   C765    1.391   .     A
C761   F785    1.358   .     S
C761   C772    1.401   .     A
C762   C766    1.391   .     A
C762   F786    1.358   .     S
C762   C773    1.397   .     A
C763   C767    1.392   .     A
C763   F787    1.358   .     S
C763   C773    1.398   .     A
C764   C769    1.393   .     A
C764   F788    1.358   .     S
C764   C772    1.402   .     A
C765   C770    1.401   .     A
C765   F789    1.357   .     S
C766   F790    1.356   .     S
C766   C771    1.413   .     A
C767   F791    1.357   .     S
C767   C771    1.413   .     A
C768   O804    1.311   .     A
C768   O805    1.309   .     A
C768   C774    1.469   .     S
C769   F792    1.358   .     S
C769   C770    1.400   .     A
C770   C776    1.447   .     S
C771   C777    1.477   .     S
C773   C286    1.457   1_556 S
C775   C782    1.408   .     A
C776   O807    1.304   .     A
C776   O810    1.302   .     A
C777   O809    1.311   .     A
C777   O808    1.310   .     A
C778   I793    2.153   .     S
C778   N802    1.380   .     A
C779   N801    1.380   .     A
C779   I794    2.152   .     S
C779   C942    1.432   .     S
C780   N802    1.381   .     A
C780   I795    2.151   .     S
C781   N801    1.381   .     A
C781   I796    2.146   .     S
C781   C940    1.431   .     S
C782   I797    2.131   .     S
Cu783  O809    1.951   .     S
Cu783  N801    2.045   .     S
Cu783  O807    1.951   .     S
Cu783  O803    1.961   .     S
Cu783  Cu784   2.721   .     S
Cu783  O805    1.964   .     S
Cu784  O808    1.951   .     S
Cu784  O806    1.964   .     S
Cu784  N802    2.045   .     S
Cu784  O810    1.951   .     S
Cu784  O804    1.961   .     S
C811   O860    1.308   .     A
C811   C829    1.469   .     S
C811   O857    1.311   .     A
C812   C828    1.407   .     A
C812   I852    2.131   .     S
C812   C868    1.391   .     S
C813   I853    2.135   .     S
C813   C828    1.405   .     A
C813   C890    1.391   .     S
C814   I854    2.135   .     S
C814   C829    1.405   .     A
C814   C920    1.391   1_455 S
C815   C819    1.391   .     A
C815   F839    1.358   .     S
C815   C826    1.401   .     A
C816   C820    1.391   .     A
C816   F840    1.358   .     S
C816   C827    1.397   .     A
C817   C821    1.392   .     A
C817   F841    1.358   .     S
C817   C827    1.398   .     A
C818   C823    1.393   .     A
C818   F842    1.358   .     S
C818   C826    1.402   .     A
C819   C824    1.401   .     A
C819   F843    1.357   .     S
C820   F844    1.356   .     S
C820   C825    1.413   .     A
C821   F845    1.357   .     S
C821   C825    1.413   .     A
C822   O858    1.311   .     A
C822   O859    1.309   .     A
C822   C828    1.469   .     S
C823   F846    1.358   .     S
C823   C824    1.400   .     A
C824   C830    1.447   .     S
C825   C831    1.477   .     S
C827   C340    1.457   1_556 S
C829   C836    1.408   .     A
C830   O861    1.304   .     A
C830   O864    1.302   .     A
C831   O863    1.311   .     A
C831   O862    1.310   .     A
C832   I847    2.153   .     S
C832   N856    1.380   .     A
C833   N855    1.380   .     A
C833   I848    2.152   .     S
C833   C510    1.432   1_565 S
C834   N856    1.381   .     A
C834   I849    2.151   .     S
C835   N855    1.381   .     A
C835   I850    2.146   .     S
C835   C508    1.431   1_565 S
C836   I851    2.131   .     S
C836   C921    1.391   1_455 S
Cu837  O863    1.951   .     S
Cu837  N855    2.045   .     S
Cu837  O861    1.951   .     S
Cu837  O857    1.961   .     S
Cu837  Cu838   2.721   .     S
Cu837  O859    1.964   .     S
Cu838  O862    1.951   .     S
Cu838  O860    1.964   .     S
Cu838  N856    2.045   .     S
Cu838  O864    1.951   .     S
Cu838  O858    1.961   .     S
C865   O914    1.308   .     A
C865   C883    1.469   .     S
C865   O911    1.311   .     A
C866   C882    1.407   .     A
C866   I906    2.131   .     S
C866   C922    1.391   .     S
C867   I907    2.135   .     S
C867   C882    1.405   .     A
C867   C944    1.391   .     S
C868   I908    2.135   .     S
C868   C883    1.405   .     A
C869   C873    1.391   .     A
C869   F893    1.358   .     S
C869   C880    1.401   .     A
C870   C874    1.391   .     A
C870   F894    1.358   .     S
C870   C881    1.397   .     A
C871   C875    1.392   .     A
C871   F895    1.358   .     S
C871   C881    1.398   .     A
C872   C877    1.393   .     A
C872   F896    1.358   .     S
C872   C880    1.402   .     A
C873   C878    1.401   .     A
C873   F897    1.357   .     S
C874   F898    1.356   .     S
C874   C879    1.413   .     A
C875   F899    1.357   .     S
C875   C879    1.413   .     A
C876   O912    1.311   .     A
C876   O913    1.309   .     A
C876   C882    1.469   .     S
C877   F900    1.358   .     S
C877   C878    1.400   .     A
C878   C884    1.447   .     S
C879   C885    1.477   .     S
C881   C394    1.457   1_556 S
C883   C890    1.408   .     A
C884   O915    1.304   .     A
C884   O918    1.302   .     A
C885   O917    1.311   .     A
C885   O916    1.310   .     A
C886   I901    2.153   .     S
C886   N910    1.380   .     A
C887   N909    1.380   .     A
C887   I902    2.152   .     S
C887   C564    1.432   1_565 S
C888   N910    1.381   .     A
C888   I903    2.151   .     S
C889   N909    1.381   .     A
C889   I904    2.146   .     S
C889   C562    1.431   1_565 S
C890   I905    2.131   .     S
Cu891  O917    1.951   .     S
Cu891  N909    2.045   .     S
Cu891  O915    1.951   .     S
Cu891  O911    1.961   .     S
Cu891  Cu892   2.721   .     S
Cu891  O913    1.964   .     S
Cu892  O916    1.951   .     S
Cu892  O914    1.964   .     S
Cu892  N910    2.045   .     S
Cu892  O918    1.951   .     S
Cu892  O912    1.961   .     S
C919   O968    1.308   .     A
C919   C937    1.469   .     S
C919   O965    1.311   .     A
C920   C936    1.407   .     A
C920   I960    2.131   .     S
C920   C814    1.391   1_655 S
C921   I961    2.135   .     S
C921   C936    1.405   .     A
C921   C836    1.391   1_655 S
C922   I962    2.135   .     S
C922   C937    1.405   .     A
C923   C927    1.391   .     A
C923   F947    1.358   .     S
C923   C934    1.401   .     A
C924   C928    1.391   .     A
C924   F948    1.358   .     S
C924   C935    1.397   .     A
C925   C929    1.392   .     A
C925   F949    1.358   .     S
C925   C935    1.398   .     A
C926   C931    1.393   .     A
C926   F950    1.358   .     S
C926   C934    1.402   .     A
C927   C932    1.401   .     A
C927   F951    1.357   .     S
C928   F952    1.356   .     S
C928   C933    1.413   .     A
C929   F953    1.357   .     S
C929   C933    1.413   .     A
C930   O966    1.311   .     A
C930   O967    1.309   .     A
C930   C936    1.469   .     S
C931   F954    1.358   .     S
C931   C932    1.400   .     A
C932   C938    1.447   .     S
C933   C939    1.477   .     S
C935   C448    1.457   1_556 S
C937   C944    1.408   .     A
C938   O969    1.304   .     A
C938   O972    1.302   .     A
C939   O971    1.311   .     A
C939   O970    1.310   .     A
C940   I955    2.153   .     S
C940   N964    1.380   .     A
C941   N963    1.380   .     A
C941   I956    2.152   .     S
C941   C618    1.432   1_565 S
C942   N964    1.381   .     A
C942   I957    2.151   .     S
C943   N963    1.381   .     A
C943   I958    2.146   .     S
C943   C616    1.431   1_565 S
C944   I959    2.131   .     S
Cu945  O971    1.951   .     S
Cu945  N963    2.045   .     S
Cu945  O969    1.951   .     S
Cu945  O965    1.961   .     S
Cu945  Cu946   2.721   .     S
Cu945  O967    1.964   .     S
Cu946  O970    1.951   .     S
Cu946  O968    1.964   .     S
Cu946  N964    2.045   .     S
Cu946  O972    1.951   .     S
Cu946  O966    1.961   .     S
